data_image0
_chemical_formula_structural       Al4H36C56S8N4O20
_chemical_formula_sum              "Al4 H36 C56 S8 N4 O20"
_cell_length_a       6.672509466
_cell_length_b       13.89761904659802
_cell_length_c       15.954
_cell_angle_alpha    90.0
_cell_angle_beta     90.0
_cell_angle_gamma    91.71639527703834

_space_group_name_H-M_alt    "P 1"
_space_group_IT_number       1

loop_
  _space_group_symop_operation_xyz
  'x, y, z'

loop_
  _atom_site_type_symbol
  _atom_site_label
  _atom_site_symmetry_multiplicity
  _atom_site_fract_x
  _atom_site_fract_y
  _atom_site_fract_z
  _atom_site_occupancy
  Al  Al1       1.0  0.00010553900833799572  0.9999975809465055  0.9999818227403805  1.0000
  Al  Al2       1.0  0.5000985419126067  0.49999915040860526  0.5000056412185001  1.0000
  Al  Al3       1.0  0.5000932610533084  0.9999803040497781  0.9999905979691588  1.0000
  Al  Al4       1.0  6.956364834559474e-05  0.49997971389977636  0.4999899711671033  1.0000
  H   H1        1.0  0.7622667010227673  0.12727889822946986  0.985622414441522  1.0000
  H   H2        1.0  0.7378453077359097  0.37267058110103324  0.48569449667795067  1.0000
  H   H3        1.0  0.23789158504567354  0.8726740507338133  0.014321800175501697  1.0000
  H   H4        1.0  0.262240502468984  0.6272737294138864  0.5143807195687629  1.0000
  H   H5        1.0  0.4337735479357648  0.6644996829071772  0.2962786761940562  1.0000
  H   H6        1.0  0.0664647333199042  0.8354927292237517  0.796285571016675  1.0000
  H   H7        1.0  0.566447947283315  0.3355295723500049  0.7037144289833248  1.0000
  H   H8        1.0  0.9337758290969945  0.164481815860448  0.20371254857715823  1.0000
  H   H9        1.0  0.42667245992707603  0.7807667190816687  0.17480819857089355  1.0000
  H   H10       1.0  0.07356454718812701  0.7192292924027441  0.6748226150181791  1.0000
  H   H11       1.0  0.5735561245417173  0.21925605733923695  0.8251667293468756  1.0000
  H   H12       1.0  0.9266659119234434  0.2807754872507359  0.3251673561489311  1.0000
  H   H13       1.0  0.06756981546266161  0.7162986987944675  0.3217155572270299  1.0000
  H   H14       1.0  0.43258386057114256  0.7837549023457198  0.8216509966152685  1.0000
  H   H15       1.0  0.9325881626468445  0.28376942948036527  0.6783339601353902  1.0000
  H   H16       1.0  0.5676128755244463  0.2162858708426185  0.1782838159709144  1.0000
  H   H17       1.0  0.060624036385284824  0.8344546756783942  0.2018484392628821  1.0000
  H   H18       1.0  0.4395862304626448  0.6655931664962154  0.7017895198696278  1.0000
  H   H19       1.0  0.9396327369895732  0.16558753725134065  0.7981785132255224  1.0000
  H   H20       1.0  0.5606329859307593  0.3344476066921231  0.2981465463206732  1.0000
  H   H21       1.0  0.0806234613118164  0.0388233465703678  0.5453647987965411  1.0000
  H   H22       1.0  0.41906294821296797  0.46129602224466737  0.0452262755421842  1.0000
  H   H23       1.0  0.9189732060784764  0.9613520424383493  0.4547730976557601  1.0000
  H   H24       1.0  0.5809585313780445  0.5387461906850675  0.9546145167356173  1.0000
  H   H25       1.0  0.0949992510239568  0.9450066583878609  0.6780048890560337  1.0000
  H   H26       1.0  0.4045902619222518  0.5550123889588647  0.1779340604237163  1.0000
  H   H27       1.0  0.9043316035359938  0.0550398737660558  0.3220584179516095  1.0000
  H   H28       1.0  0.5953040256338653  0.44500894772065175  0.8219368183527607  1.0000
  H   H29       1.0  0.408833729338653  0.9451592709756651  0.762313526388368  1.0000
  H   H30       1.0  0.09061319411901543  0.5547122028781288  0.2621806443525115  1.0000
  H   H31       1.0  0.5903540019607476  0.05465906216723938  0.23784004011532994  1.0000
  H   H32       1.0  0.9092457870546938  0.44527170052513293  0.7376614015293936  1.0000
  H   H33       1.0  0.716120539465976  0.0313287727418796  0.7118434248464351  1.0000
  H   H34       1.0  0.783342784396119  0.46852856313937247  0.2116441017926505  1.0000
  H   H35       1.0  0.2831363893246107  0.9684456482885009  0.2883884919142545  1.0000
  H   H36       1.0  0.21652865204443833  0.5314387832378529  0.7882004512974772  1.0000
  C   C1        1.0  0.7526663437111196  0.6157932315350363  0.3868026827127977  1.0000
  C   C2        1.0  0.7474801486045025  0.8841919818889181  0.8867901466716788  1.0000
  C   C3        1.0  0.24745580578802165  0.3842050692821671  0.6131935564748687  1.0000
  C   C4        1.0  0.2526819265201894  0.11579768047992187  0.11318728845430567  1.0000
  C   C5        1.0  0.7508602282309483  0.6844962511338364  0.3152645104675926  1.0000
  C   C6        1.0  0.7493093115196603  0.8155220763421978  0.8152331703647986  1.0000
  C   C7        1.0  0.2493113445582509  0.3155495611493889  0.6847536667920266  1.0000
  C   C8        1.0  0.2508761869962727  0.1844827033112892  0.18473548953240734  1.0000
  C   C9        1.0  0.5694156251203069  0.7021993113192264  0.2744678450545307  1.0000
  C   C10       1.0  0.9307812951705758  0.797825494993077  0.7744716058668644  1.0000
  C   C11       1.0  0.4307822786147498  0.2978601785072428  0.7255258869249059  1.0000
  C   C12       1.0  0.06941024300065382  0.20218000453110105  0.2255177384981835  1.0000
  C   C13       1.0  0.7416780375508553  0.8851177356055115  0.11296226651623437  1.0000
  C   C14       1.0  0.7585691195343855  0.6148955527756357  0.6129679077347348  1.0000
  C   C15       1.0  0.2585934250073195  0.1148956824963392  0.8870176758179793  1.0000
  C   C16       1.0  0.24167096042526034  0.3851193050676044  0.3870114077974165  1.0000
  C   C17       1.0  0.7431436485111079  0.8147762902999033  0.18304688479378226  1.0000
  C   C18       1.0  0.7570910083980709  0.6852528352365823  0.6830337219506075  1.0000
  C   C19       1.0  0.2571081348028699  0.18525800405216583  0.8169543688103287  1.0000
  C   C20       1.0  0.24315600940108342  0.314777139891298  0.3169274163219242  1.0000
  C   C21       1.0  0.5654220910322182  0.7668530582463047  0.20816597718440724  1.0000
  C   C22       1.0  0.9348040844417227  0.7331602301348425  0.7081672307885183  1.0000
  C   C23       1.0  0.43481193258955403  0.23318483545924804  0.7918265011909253  1.0000
  C   C24       1.0  0.0654307809109937  0.2668431097772483  0.2918152187539178  1.0000
  C   C25       1.0  0.9287498106349121  0.7312691298133132  0.2890203083866112  1.0000
  C   C26       1.0  0.5714454146500358  0.7687765527492088  0.7889494797542937  1.0000
  C   C27       1.0  0.07144565132020382  0.26877524272851616  0.7110292089758019  1.0000
  C   C28       1.0  0.42876608376470676  0.23126062108564574  0.21097593080105526  1.0000
  C   C29       1.0  0.924880744465014  0.7965246886432451  0.22325498307634453  1.0000
  C   C30       1.0  0.5753262457660497  0.703517394565786  0.7232054657139242  1.0000
  C   C31       1.0  0.0753490525524612  0.20351752428648945  0.776773223016171  1.0000
  C   C32       1.0  0.4248956087267147  0.2965176196569742  0.27673686849692547  1.0000
  C   C33       1.0  0.5705936994564454  0.08658388784639467  0.600874388867993  1.0000
  C   C34       1.0  0.9290524872493651  0.4133699107082833  0.1006687977936593  1.0000
  C   C35       1.0  0.4289563162037595  0.9133481848666705  0.3993625423091416  1.0000
  C   C36       1.0  0.0709267198930945  0.5865952760568547  0.8991795161088161  1.0000
  C   C37       1.0  0.3896680178388864  0.0889421842504063  0.5542027077848815  1.0000
  C   C38       1.0  0.10999710084864489  0.4111001584000319  0.0540428732606273  1.0000
  C   C39       1.0  0.6098880887913652  0.9111115466104847  0.4459709163846027  1.0000
  C   C40       1.0  0.8899822243388729  0.5888909437102043  0.9458192302870783  1.0000
  C   C41       1.0  0.21961470720705023  0.0360856783089361  0.5809007145543461  1.0000
  C   C42       1.0  0.2800026613752777  0.4639840194279898  0.0807364924156957  1.0000
  C   C43       1.0  0.7798800995475192  0.9640184435007553  0.4192591199699151  1.0000
  C   C44       1.0  0.7199412624728865  0.5360401967343122  0.9190792277798676  1.0000
  C   C45       1.0  0.22842678134009023  0.9845642730693667  0.6560517738498177  1.0000
  C   C46       1.0  0.2711720829989305  0.5154605332429368  0.1559251598345242  1.0000
  C   C47       1.0  0.7709738827574171  0.015472180894789696  0.3440786009778093  1.0000
  C   C48       1.0  0.7287189377288854  0.4845564842123977  0.8439062304124361  1.0000
  C   C49       1.0  0.40485654952458106  0.983937985562811  0.7030813589068572  1.0000
  C   C50       1.0  0.094648385159374  0.5159745209207287  0.20292591199699214  1.0000
  C   C51       1.0  0.5944539342034219  0.0159501750377231  0.2970935188667454  1.0000
  C   C52       1.0  0.9052294502101645  0.483999304292773  0.7969155070828646  1.0000
  C   C53       1.0  0.5786826360794634  0.03261230219497689  0.6750394885295206  1.0000
  C   C54       1.0  0.9208615834896323  0.46729254515229  0.17486398395386965  1.0000
  C   C55       1.0  0.4206885470219035  0.9672398648706988  0.3251610881283682  1.0000
  C   C56       1.0  0.0790485044360096  0.5326697621300553  0.8249818227403765  1.0000
  S   S1        1.0  0.759409550090716  0.15828228941621345  0.5559276670427451  1.0000
  S   S2        1.0  0.7402790489298  0.341678707845439  0.055661276168983385  1.0000
  S   S3        1.0  0.24019220105036962  0.8416382653656951  0.4443932556098814  1.0000
  S   S4        1.0  0.2597458822648804  0.6582987167215534  0.9441813965149775  1.0000
  S   S5        1.0  0.40764935008639475  0.16240642864043758  0.4664993105177401  1.0000
  S   S6        1.0  0.0921117859009826  0.3376855850881029  0.9663068822865737  1.0000
  S   S7        1.0  0.5920971910945454  0.8376969732985555  0.5337213238059417  1.0000
  S   S8        1.0  0.9079044508564637  0.6623206343067736  0.0335571016672915  1.0000
  N   N1        1.0  0.6399282131419142  0.2056310646534527  0.4761708662404444  1.0000
  N   N2        1.0  0.8598867644091827  0.2944098382555892  0.9758975805440642  1.0000
  N   N3        1.0  0.3598861333446806  0.7944061091814019  0.524140654381348  1.0000
  N   N4        1.0  0.14016771965044947  0.7055848632081305  0.0239413313275634  1.0000
  O   O1        1.0  0.753237511807349  0.05893941333275168  0.999183276921151  1.0000
  O   O2        1.0  0.746917627813396  0.4410287826358682  0.4991826501190956  1.0000
  O   O3        1.0  0.24693030529074636  0.9410221740788953  0.000789770590444  1.0000
  O   O4        1.0  0.2532192108690623  0.5589407233534516  0.5007929046007291  1.0000
  O   O5        1.0  0.9118868173238752  0.9113742994149658  0.08371818979566108  1.0000
  O   O6        1.0  0.5883209697289118  0.5886325101299121  0.5837369938573431  1.0000
  O   O7        1.0  0.088361581116736  0.08862976036782297  0.9162492164974265  1.0000
  O   O8        1.0  0.4118867678562098  0.4113924259030951  0.4162492164974266  1.0000
  O   O9        1.0  0.9225312842807798  0.5926479488788557  0.4158743888679979  1.0000
  O   O10       1.0  0.5776048686393979  0.9073156684241821  0.9158762692741644  1.0000
  O   O11       1.0  0.0775804809137099  0.40732803594673317  0.584113075090883  1.0000
  O   O12       1.0  0.42255594902739796  0.0926538375651376  0.08411182148677197  1.0000
  O   O13       1.0  0.5722775084764394  0.9131127871486839  0.0874263507584274  1.0000
  O   O14       1.0  0.9279216175042748  0.5868753057580562  0.5874194559358159  1.0000
  O   O15       1.0  0.4279438404709524  0.0868660771596979  0.9125560987840016  1.0000
  O   O16       1.0  0.0722848343963207  0.4131049982917147  0.4125560987840017  1.0000
  O   O17       1.0  0.5818612794322037  0.5864167481239448  0.413191676068699  1.0000
  O   O18       1.0  0.918270074608003  0.9135900614209261  0.9131722452049613  1.0000
  O   O19       1.0  0.4182646308965587  0.4135937904951134  0.5868039363169117  1.0000
  O   O20       1.0  0.0818800559337305  0.08640032081861188  0.08680707032718968  1.0000
