data_image0
_chemical_formula_structural       Zn2H54C62I8N2O8
_chemical_formula_sum              "Zn2 H54 C62 I8 N2 O8"
_cell_length_a       10.747220901374881
_cell_length_b       18.794177751248025
_cell_length_c       19.51425364477368
_cell_angle_alpha    88.83771731520736
_cell_angle_beta     85.43743553500624
_cell_angle_gamma    89.05996653507619

_space_group_name_H-M_alt    "P 1"
_space_group_IT_number       1

loop_
  _space_group_symop_operation_xyz
  'x, y, z'

loop_
  _atom_site_type_symbol
  _atom_site_label
  _atom_site_symmetry_multiplicity
  _atom_site_fract_x
  _atom_site_fract_y
  _atom_site_fract_z
  _atom_site_occupancy
  Zn  Zn1       1.0  0.49575494147880755  0.5855633272428662  0.5018797239850488  1.0000
  Zn  Zn2       1.0  0.5085456261324452  0.41533887173371653  0.49660513913160304  1.0000
  H   H1        1.0  0.08787991195200823  0.38276684476220885  0.4582405225117725  1.0000
  H   H2        1.0  0.9176294693993439  0.6147907335830496  0.538827144122692  1.0000
  H   H3        1.0  0.48812033592620446  0.3762624387022059  0.8480483928967149  1.0000
  H   H4        1.0  0.4669836962009554  0.6026272631516817  0.14465708039146116  1.0000
  H   H5        1.0  0.3646978949655022  0.38405919639499336  0.17724407905856054  1.0000
  H   H6        1.0  0.5129281833151323  0.6037205181082328  0.8471825264722813  1.0000
  H   H7        1.0  0.34081956714947376  0.8361991345926755  0.5754207312589444  1.0000
  H   H8        1.0  0.6545308538922612  0.16419155060358293  0.42259757510532847  1.0000
  H   H9        1.0  0.6638316352717979  0.8348259614714735  0.4305997496697529  1.0000
  H   H10       1.0  0.3350374342299601  0.1676399190956914  0.5697958563147054  1.0000
  H   H11       1.0  0.7007251097615281  0.9346874796845341  0.4950801039720718  1.0000
  H   H12       1.0  0.29578240336999057  0.0668987645440566  0.5045526878357978  1.0000
  H   H13       1.0  0.2987680755676507  0.9353062676980174  0.506042665473892  1.0000
  H   H14       1.0  0.6976515202752295  0.06625149243488689  0.4934459520959751  1.0000
  H   H15       1.0  0.1418691149945772  0.4114871022639832  0.948031226814152  1.0000
  H   H16       1.0  0.09597647203815998  0.4537509631152972  0.8714038804491365  1.0000
  H   H17       1.0  0.24106921373103768  0.40710712369478586  0.8710672409648978  1.0000
  H   H18       1.0  0.17030106072233758  0.5460245596925758  0.9469788858369204  1.0000
  H   H19       1.0  0.27225536072247536  0.5389225184857196  0.8726064346549977  1.0000
  H   H20       1.0  0.8030886839183609  0.5306693906033928  0.055781642986517006  1.0000
  H   H21       1.0  0.7025284518424256  0.5563067066229052  0.1279240783764095  1.0000
  H   H22       1.0  0.8209150280241246  0.490709639618899  0.13758092970336125  1.0000
  H   H23       1.0  0.6199288272904157  0.43083915634226594  0.1381016394930867  1.0000
  H   H24       1.0  0.7143652765235656  0.4070147402557679  0.06476263454744922  1.0000
  H   H25       1.0  0.1733634439993281  0.617478987850177  0.0405095462443157  1.0000
  H   H26       1.0  0.0726629321465282  0.5896556630521205  0.11257874288530455  1.0000
  H   H27       1.0  0.2320062205220665  0.6071937099050969  0.12263397545699213  1.0000
  H   H28       1.0  0.13115838946038139  0.4839919909391527  0.04227077222182632  1.0000
  H   H29       1.0  0.1961569529985425  0.4761777684168892  0.12183081098704923  1.0000
  H   H30       1.0  0.7200425197054656  0.5672411069501918  0.8755056690625341  1.0000
  H   H31       1.0  0.7676238841955935  0.5735981922301789  0.9599491790219687  1.0000
  H   H32       1.0  0.8649835221072164  0.5291952229933868  0.895765296457029  1.0000
  H   H33       1.0  0.7638636166355538  0.436383467201388  0.9684711801635829  1.0000
  H   H34       1.0  0.699119395072337  0.4364349961742419  0.888648949108664  1.0000
  H   H35       1.0  0.1601609345260329  0.7708966528141729  0.5649279832251325  1.0000
  H   H36       1.0  0.17279038839331662  0.6935991754452858  0.5135627452259046  1.0000
  H   H37       1.0  0.1117155165663206  0.6872169449328639  0.6008864428397304  1.0000
  H   H38       1.0  0.3295930858249179  0.6399901508046637  0.5901859488896903  1.0000
  H   H39       1.0  0.31928013378862363  0.7162669686906185  0.6407289206859945  1.0000
  H   H40       1.0  0.8293555665861376  0.3044838459173889  0.48046430898376263  1.0000
  H   H41       1.0  0.8364248741880543  0.22770177571391778  0.4283361414203455  1.0000
  H   H42       1.0  0.8851013882222531  0.31128897697868746  0.3923157198416618  1.0000
  H   H43       1.0  0.6732407394324369  0.2850663189682265  0.3564466383329475  1.0000
  H   H44       1.0  0.6689426005018859  0.3605791515200281  0.40784260543736656  1.0000
  H   H45       1.0  0.7245754111502549  0.7617305812633646  0.33490293659626513  1.0000
  H   H46       1.0  0.8330444468133676  0.7732258385078337  0.39820010358567265  1.0000
  H   H47       1.0  0.8439093875197867  0.6971885387098737  0.34620479299165663  1.0000
  H   H48       1.0  0.7490936239750141  0.6644736186477688  0.46294900186214255  1.0000
  H   H49       1.0  0.6491322129875526  0.6485535422089298  0.39926236905028406  1.0000
  H   H50       1.0  0.1697946641023194  0.22931719868664396  0.60687877110756  1.0000
  H   H51       1.0  0.284259655358916  0.24262741248906397  0.666717428916421  1.0000
  H   H52       1.0  0.16293815446455534  0.3064135988441237  0.6573044102211797  1.0000
  H   H53       1.0  0.3517746366684804  0.35523342678595776  0.5986127536474158  1.0000
  H   H54       1.0  0.2486957421873227  0.3359572354724705  0.5372733302870076  1.0000
  C   C1        1.0  0.48877174552330166  0.5067597870131236  0.3679124106122984  1.0000
  C   C2        1.0  0.5022932454716126  0.49549945167542103  0.6325799185126898  1.0000
  C   C3        1.0  0.3488383210946182  0.4983565056947795  0.9642368562397224  1.0000
  C   C4        1.0  0.5557865746343111  0.47221742828893554  0.0440416570605748  1.0000
  C   C5        1.0  0.3304450858992282  0.4961539519742573  0.03661166823084732  1.0000
  C   C6        1.0  0.5745767581853726  0.4756746685758699  0.971697667776013  1.0000
  C   C7        1.0  0.4343606846018702  0.48490095235789005  0.07524534301827403  1.0000
  C   C8        1.0  0.470673930829868  0.48870475523163037  0.9330175608636896  1.0000
  C   C9        1.0  0.41302803683301886  0.7343088787994603  0.5429226147507081  1.0000
  C   C10       1.0  0.5851425296379559  0.2665009261674739  0.4555479936827355  1.0000
  C   C11       1.0  0.591894114428861  0.7335366208548778  0.46527660667291576  1.0000
  C   C12       1.0  0.40795210547561567  0.26849781854939175  0.5344549564864353  1.0000
  C   C13       1.0  0.4119104679188296  0.8086935798423553  0.5424582803045794  1.0000
  C   C14       1.0  0.5850107298600092  0.1921837586001161  0.45614000629930035  1.0000
  C   C15       1.0  0.5924815362804736  0.8076226329326773  0.4635131662296104  1.0000
  C   C16       1.0  0.40617898206819797  0.1943987255045272  0.5363653529429087  1.0000
  C   C17       1.0  0.5012397037803353  0.8470516826887646  0.5021697967903124  1.0000
  C   C18       1.0  0.4959652014851413  0.15443016019851535  0.49723061078263703  1.0000
  C   C19       1.0  0.6117400758277042  0.9635561176276184  0.4961359749872544  1.0000
  C   C20       1.0  0.3847310432638053  0.037992511221162296  0.5034793834521025  1.0000
  C   C21       1.0  0.3864104820251199  0.9639810725133698  0.5043710052999089  1.0000
  C   C22       1.0  0.6100410360495941  0.0375453970871433  0.49520756007219574  1.0000
  C   C23       1.0  0.4965918293480555  0.0760178169169166  0.4988269226349118  1.0000
  C   C24       1.0  0.4999032541924818  0.9254934837216455  0.5007901382024684  1.0000
  C   C25       1.0  0.7376516831573879  0.496964585878409  0.5019893354819233  1.0000
  C   C26       1.0  0.2670902788472063  0.5003499778908279  0.4962045923129852  1.0000
  C   C27       1.0  0.9656020277566241  0.4859963846649932  0.43592113049749787  1.0000
  C   C28       1.0  0.039593635127275185  0.5113731165656075  0.5615954849207655  1.0000
  C   C29       1.0  0.045980071528298104  0.5508933929442748  0.45488181818524964  1.0000
  C   C30       1.0  0.9594303499251566  0.4463819213234855  0.5426083549023417  1.0000
  C   C31       1.0  0.04884970158265389  0.43362778007561087  0.4764505639875198  1.0000
  C   C32       1.0  0.9563919488782273  0.5637349502869071  0.5209900368613135  1.0000
  C   C33       1.0  0.12896685423569207  0.49781000207213577  0.4951670352380548  1.0000
  C   C34       1.0  0.8760927368612741  0.4993850999438934  0.5025581238987871  1.0000
  C   C35       1.0  0.5097461832637507  0.4278840474499361  0.7482776541671827  1.0000
  C   C36       1.0  0.460520092914443  0.5635662606818457  0.24941086079894606  1.0000
  C   C37       1.0  0.4068027843003604  0.44117782202279454  0.2671382402213639  1.0000
  C   C38       1.0  0.5238726958952499  0.5549231209812858  0.7478878640728939  1.0000
  C   C39       1.0  0.4948884619219524  0.42694130104337075  0.8200069904401635  1.0000
  C   C40       1.0  0.4501683107890457  0.5568092003939356  0.1790217692192968  1.0000
  C   C41       1.0  0.3934490122931961  0.4345226689215879  0.1970105579528579  1.0000
  C   C42       1.0  0.5088162848937472  0.5541413994004927  0.819545592735253  1.0000
  C   C43       1.0  0.4899558611740033  0.4902287669774806  0.8564899834662401  1.0000
  C   C44       1.0  0.42228364368823884  0.49143493804742633  0.15154471088958132  1.0000
  C   C45       1.0  0.5157848609929088  0.4922994477991268  0.709153815487902  1.0000
  C   C46       1.0  0.4486792864793401  0.5045816720120514  0.29541508072765055  1.0000
  C   C47       1.0  0.239823354845754  0.510571641030694  0.9203774588050354  1.0000
  C   C48       1.0  0.17602267661723656  0.44180721630572606  0.9017518475791989  1.0000
  C   C49       1.0  0.6609451027037421  0.4518104835309272  0.08859929865069203  1.0000
  C   C50       1.0  0.7518164426553395  0.5108797267823987  0.10301540177879792  1.0000
  C   C51       1.0  0.20175268403441748  0.5065941568980605  0.07297898755945914  1.0000
  C   C52       1.0  0.1679416871252002  0.5847337478369923  0.08793389184839383  1.0000
  C   C53       1.0  0.7039636906850788  0.46739181034787686  0.9355389042153137  1.0000
  C   C54       1.0  0.7675529566440957  0.5384813574515519  0.9156571327320506  1.0000
  C   C55       1.0  0.3128861507967783  0.6974330146156476  0.5880445036601999  1.0000
  C   C56       1.0  0.181753224566755  0.7134990641984585  0.5653953004369755  1.0000
  C   C57       1.0  0.6838853572339829  0.3029722671208646  0.40908726592127215  1.0000
  C   C58       1.0  0.816416237508264  0.2852568349310616  0.42880717690711384  1.0000
  C   C59       1.0  0.6928102946434862  0.6917680226549905  0.4254104849085465  1.0000
  C   C60       1.0  0.7775892866691121  0.7338190112795147  0.3735156905252311  1.0000
  C   C61       1.0  0.3078956388977687  0.31069533975188796  0.5746615279861161  1.0000
  C   C62       1.0  0.2273453673157917  0.26935896506302015  0.6291872291072097  1.0000
  I   I1        1.0  0.9022447503229072  0.47094753140272855  0.3374850283353085  1.0000
  I   I2        1.0  0.103061477841635  0.5269304767459887  0.6600149655390626  1.0000
  I   I3        1.0  0.11903833265076709  0.6274064584469982  0.3824056083641168  1.0000
  I   I4        1.0  0.8883740942519652  0.3690749569279389  0.6146390285980206  1.0000
  I   I5        1.0  0.534277082299397  0.3239419279773728  0.7083455095886466  1.0000
  I   I6        1.0  0.49619550115546207  0.669383827791016  0.2767889671071018  1.0000
  I   I7        1.0  0.3509011282368704  0.34957338924282777  0.32625628080064933  1.0000
  I   I8        1.0  0.5762056928973464  0.6565663649529938  0.7066393472575572  1.0000
  N   N1        1.0  0.5012742016688065  0.6970665750069712  0.504156501575608  1.0000
  N   N2        1.0  0.49869041924687  0.30424326967152376  0.494985499763061  1.0000
  O   O1        1.0  0.48296054493075496  0.5663028642734033  0.3977153653714751  1.0000
  O   O2        1.0  0.4972312056009827  0.4369622323944782  0.6016194371806236  1.0000
  O   O3        1.0  0.4916092908517483  0.5569706988115757  0.605582315053205  1.0000
  O   O4        1.0  0.5284047661086788  0.4484553813304048  0.3924739961539673  1.0000
  O   O5        1.0  0.6804941580092816  0.5563379191817077  0.5014622242104282  1.0000
  O   O6        1.0  0.3258665778837582  0.4418054771876427  0.48818806012561583  1.0000
  O   O7        1.0  0.3093192250556525  0.5612765845738323  0.5067313775974898  1.0000
  O   O8        1.0  0.6937217265284373  0.4349593260173917  0.5001323395801054  1.0000
