data_image0
_chemical_formula_structural       Cu4H32C24S8Cl16O40
_chemical_formula_sum              "Cu4 H32 C24 S8 Cl16 O40"
_cell_length_a       7.222613592
_cell_length_b       9.637841408
_cell_length_c       21.4781
_cell_angle_alpha    90.0
_cell_angle_beta     90.0
_cell_angle_gamma    90.0

_space_group_name_H-M_alt    "P 1"
_space_group_IT_number       1

loop_
  _space_group_symop_operation_xyz
  'x, y, z'

loop_
  _atom_site_type_symbol
  _atom_site_label
  _atom_site_symmetry_multiplicity
  _atom_site_fract_x
  _atom_site_fract_y
  _atom_site_fract_z
  _atom_site_occupancy
  Cu  Cu1       1.0  0.0  0.0  0.5  1.0000
  Cu  Cu2       1.0  0.5000018281470844  0.4999999269546009  0.5  1.0000
  Cu  Cu3       1.0  0.5000018281470844  0.4999999269546009  0.0  1.0000
  Cu  Cu4       1.0  0.0  0.0  0.0  1.0000
  H   H1        1.0  0.7340099165587477  0.1421884778953171  0.4542394345868601  1.0000
  H   H2        1.0  0.7659914142614428  0.6421904800033856  0.545759634232077  1.0000
  H   H3        1.0  0.23401501111344206  0.3578104114825464  0.0457610310036713  1.0000
  H   H4        1.0  0.265985432493288  0.8578093008604099  0.9542399001773916  1.0000
  H   H5        1.0  0.2659909706547126  0.8578113760138778  0.5457600998226084  1.0000
  H   H6        1.0  0.23401362657308775  0.357809373905816  0.4542408313584545  1.0000
  H   H7        1.0  0.7659872606403724  0.6421894424266483  0.9542380378152657  1.0000
  H   H8        1.0  0.7340154547201792  0.1421905530487848  0.0457605654131399  1.0000
  H   H9        1.0  0.9194192539048986  0.23196065439967836  0.45331290942867497  1.0000
  H   H10       1.0  0.5805765387538673  0.7319626565077398  0.5466866249807936  1.0000
  H   H11       1.0  0.4194257329999474  0.2680382349781851  0.04668848734291941  1.0000
  H   H12       1.0  0.0805719415260668  0.7680381619327861  0.953312909428675  1.0000
  H   H13       1.0  0.08058301784892313  0.7680391995095164  0.5466866249807936  1.0000
  H   H14       1.0  0.4194257329999474  0.2680371974014548  0.4533133750192064  1.0000
  H   H15       1.0  0.5805765387538673  0.7319616189310096  0.9533119782476122  1.0000
  H   H16       1.0  0.9194275611470388  0.2319627295531461  0.046687090571325  1.0000
  H   H17       1.0  0.7233046505196441  0.8806380641369457  0.440897472309004  1.0000
  H   H18       1.0  0.7766952957601918  0.3806402123358126  0.5591034588720589  1.0000
  H   H19       1.0  0.2233055914532684  0.6193627543035802  0.059102527690996  1.0000
  H   H20       1.0  0.2766948521534616  0.1193607521955187  0.9408970067184725  1.0000
  H   H21       1.0  0.2766948521534616  0.119361789772249  0.5591029932815275  1.0000
  H   H22       1.0  0.2233055914532684  0.6193596415733822  0.440896541127941  1.0000
  H   H23       1.0  0.7766939112198303  0.3806381371823448  0.9408970067184725  1.0000
  H   H24       1.0  0.7233060350600057  0.8806401392904064  0.05910299328152751  1.0000
  H   H25       1.0  0.8981734821291527  0.7800543380761126  0.4402991884757057  1.0000
  H   H26       1.0  0.6018236950699674  0.2800564862749795  0.5597012771148258  1.0000
  H   H27       1.0  0.3981771921434928  0.719945442787683  0.0597003459337628  1.0000
  H   H28       1.0  0.1018204823825215  0.2199434406796144  0.9402987228851742  1.0000
  H   H29       1.0  0.1018274050843075  0.2199455158330821  0.5597003459337628  1.0000
  H   H30       1.0  0.3981785766838541  0.7199433676342153  0.4402987228851742  1.0000
  H   H31       1.0  0.601825079610322  0.2800544111215189  0.9402996540662372  1.0000
  H   H32       1.0  0.8981790202905843  0.7800574508063107  0.0597012771148258  1.0000
  C   C1        1.0  0.5591023178192458  0.9958339833267331  0.684096824206982  1.0000
  C   C2        1.0  0.9408962439202286  0.4958319812186716  0.3159045725646124  1.0000
  C   C3        1.0  0.059100489672161416  0.5041668351137929  0.8159045725646124  1.0000
  C   C4        1.0  0.4408985693942143  0.0041637954289939  0.1840963586164506  1.0000
  C   C5        1.0  0.4408944157731441  0.0041658705824617  0.3159055037456753  1.0000
  C   C6        1.0  0.059103258752877315  0.5041678726905232  0.6840954274353876  1.0000
  C   C7        1.0  0.9408962439202286  0.4958340563721393  0.1840954274353876  1.0000
  C   C8        1.0  0.5591023178192458  0.9958339833267331  0.8159050381551438  1.0000
  C   C9        1.0  0.6948634225093926  0.07042863347352579  0.7172231249505288  1.0000
  C   C10       1.0  0.8051379083107976  0.5704275228513893  0.2827778062305342  1.0000
  C   C11       1.0  0.19485882528159246  0.42957233105780546  0.7827768750494714  1.0000
  C   C12       1.0  0.305136080163706  0.9295691452822011  0.2172212625884029  1.0000
  C   C13       1.0  0.3051388492444219  0.9295722580124064  0.2827759438684083  1.0000
  C   C14       1.0  0.1948615943623082  0.42957233105780546  0.7172226593599973  1.0000
  C   C15       1.0  0.8051365237704361  0.5704285604281267  0.2172231249505288  1.0000
  C   C16       1.0  0.6948620379690384  0.0704275958967955  0.7827773406400027  1.0000
  C   C17       1.0  0.40845463521233694  0.9390723105785312  0.7170271113366624  1.0000
  C   C18       1.0  0.09154303931368452  0.43907134604719994  0.2829728886633376  1.0000
  C   C19       1.0  0.9084550788190668  0.5609274702852645  0.7829724230728061  1.0000
  C   C20       1.0  0.5915462520011303  0.0609275433306635  0.217026645746131  1.0000
  C   C21       1.0  0.5915407138396986  0.0609254681772029  0.2829728886633376  1.0000
  C   C22       1.0  0.9084536942787054  0.5609295454387322  0.717025714565068  1.0000
  C   C23       1.0  0.09154303931368452  0.4390723836239303  0.217026645746131  1.0000
  C   C24       1.0  0.4084560197526913  0.9390733481552616  0.782973354253869  1.0000
  S   S1        1.0  0.5852424397564278  0.9800182011876473  0.6003124112468043  1.0000
  S   S2        1.0  0.9147616601444784  0.4800193118097837  0.3996880543437271  1.0000
  S   S3        1.0  0.08523922706898193  0.5199815796761413  0.8996871231626642  1.0000
  S   S4        1.0  0.4147626010781026  0.0199795775680798  0.10031241124680432  1.0000
  S   S5        1.0  0.4147584474570323  0.0199795775680798  0.3996880543437271  1.0000
  S   S6        1.0  0.0852419961496977  0.5199815796761413  0.6003119456562729  1.0000
  S   S7        1.0  0.9147616601444784  0.4800213869632515  0.10031194565627288  1.0000
  S   S8        1.0  0.5852396706757121  0.9800192387643847  0.8996885199342586  1.0000
  Cl  Cl1       1.0  0.8561831421868507  0.1697714177618508  0.6795438143969932  1.0000
  Cl  Cl2       1.0  0.6438154195526309  0.6697723822931749  0.3204566511935383  1.0000
  Cl  Cl3       1.0  0.3561785449590502  0.3302264340392824  0.8204566511935383  1.0000
  Cl  Cl4       1.0  0.1438191295669711  0.8302253234171529  0.1795433488064617  1.0000
  Cl  Cl5       1.0  0.14381497594590095  0.8302253234171529  0.3204561856030068  1.0000
  Cl  Cl6       1.0  0.3561813140397589  0.3302274716160198  0.6795438143969932  1.0000
  Cl  Cl7       1.0  0.6438181886333398  0.6697734198699123  0.1795438143969932  1.0000
  Cl  Cl8       1.0  0.8561817576464892  0.1697745304920488  0.8204566511935383  1.0000
  Cl  Cl9       1.0  0.21422023763167183  0.877228586992743  0.6805201577420732  1.0000
  Cl  Cl10      1.0  0.2857802059750583  0.3772265848846814  0.3194807734389897  1.0000
  Cl  Cl11      1.0  0.7142165276173317  0.6227711938710527  0.8194793766673955  1.0000
  Cl  Cl12      1.0  0.785779265041427  0.12277126691645178  0.1805201577420732  1.0000
  Cl  Cl13      1.0  0.7857806495817885  0.12277230449318209  0.3194812390295212  1.0000
  Cl  Cl14      1.0  0.7142206812384018  0.6227732690245134  0.6805182953799473  1.0000
  Cl  Cl15      1.0  0.2857802059750583  0.3772286600381491  0.1805196921515417  1.0000
  Cl  Cl16      1.0  0.21421746855096302  0.877228586992743  0.8194812390295212  1.0000
  O   O1        1.0  0.849823948327874  0.1611916957577719  0.47804647524687743  1.0000
  O   O2        1.0  0.6501759979519621  0.6611947354425709  0.5219530591625912  1.0000
  O   O3        1.0  0.34983181196328433  0.3388061560433613  0.021954921524717  1.0000
  O   O4        1.0  0.15017001618380024  0.8388050454212248  0.9780460096563459  1.0000
  O   O5        1.0  0.1501769388855863  0.8388081581514227  0.5219530591625912  1.0000
  O   O6        1.0  0.34983042742292986  0.3388040808898936  0.4780469408374088  1.0000
  O   O7        1.0  0.6501718443308917  0.6611926602891032  0.978045078475283  1.0000
  O   O8        1.0  0.8498322555700144  0.1611958460647074  0.0219539903436541  1.0000
  O   O9        1.0  0.8608268905436987  0.8788046660499659  0.4418123577038955  1.0000
  O   O10       1.0  0.639173055736137  0.3788057766721025  0.5581885734771674  1.0000
  O   O11       1.0  0.36082921601767753  0.62119615239056  0.0581871767055731  1.0000
  O   O12       1.0  0.139172612129407  0.12119415028249139  0.9418114265228326  1.0000
  O   O13       1.0  0.139172612129407  0.1211962254359591  0.5581876422961045  1.0000
  O   O14       1.0  0.360827831477323  0.6211940772370923  0.44181142652283256  1.0000
  O   O15       1.0  0.639173055736137  0.3788037015186347  0.9418123577038955  1.0000
  O   O16       1.0  0.8608282750840532  0.8788057036267034  0.058188107886636004  1.0000
  O   O17       1.0  0.779939273816268  0.954751132588882  0.5887336403126895  1.0000
  O   O18       1.0  0.7200620570039222  0.45475120563428106  0.4112672908683734  1.0000
  O   O19       1.0  0.2799360611288293  0.5452507234283814  0.9112649629157161  1.0000
  O   O20       1.0  0.2200602288568305  0.0452487213203199  0.088733174722158  1.0000
  O   O21       1.0  0.2200602288568305  0.0452487213203199  0.411265894096779  1.0000
  O   O22       1.0  0.2799415992902539  0.5452486482749137  0.588733174722158  1.0000
  O   O23       1.0  0.7200606724635676  0.4547543183644791  0.0887336403126895  1.0000
  O   O24       1.0  0.7799365047355595  0.9547532077423425  0.9112668252778421  1.0000
  O   O25       1.0  0.5116471970884859  0.1106129427607172  0.5740093397460697  1.0000
  O   O26       1.0  0.98835274919135  0.6106139072920485  0.4259906602539303  1.0000
  O   O27       1.0  0.0116467534817559  0.3893869841938766  0.9259911258444617  1.0000
  O   O28       1.0  0.4883550746653286  0.8893848359950098  0.0740088741555383  1.0000
  O   O29       1.0  0.48834815196354964  0.8893869111484775  0.42599159143499327  1.0000
  O   O30       1.0  0.011648138022110304  0.3893869841938766  0.5740088741555383  1.0000
  O   O31       1.0  0.9883541337317043  0.6106159824455162  0.0740093397460697  1.0000
  O   O32       1.0  0.5116458125481317  0.11061398033745462  0.9259911258444617  1.0000
  O   O33       1.0  0.4702203650714126  0.8604675724500125  0.581257187553831  1.0000
  O   O34       1.0  0.029782847616026207  0.3604676454954188  0.4187442092177633  1.0000
  O   O35       1.0  0.9702138859763638  0.6395311708370457  0.918742812446169  1.0000
  O   O36       1.0  0.5297846757631177  0.1395322814591822  0.0812567219632996  1.0000
  O   O37       1.0  0.5297805221420475  0.1395302063057144  0.41874327803670036  1.0000
  O   O38       1.0  0.9702221932185042  0.6395342835672437  0.5812562563727681  1.0000
  O   O39       1.0  0.029782847616026207  0.3604707582256168  0.0812562563727681  1.0000
  O   O40       1.0  0.47021759599070384  0.8604696476034803  0.918743743627232  1.0000
