data_image0
_chemical_formula_structural       U2H18PtC26N10O10
_chemical_formula_sum              "U2 H18 Pt1 C26 N10 O10"
_cell_length_a       9.70491387592162
_cell_length_b       9.704936169406778
_cell_length_c       9.77250879614399
_cell_angle_alpha    99.83060039800199
_cell_angle_beta     99.83087940066127
_cell_angle_gamma    104.11120395634246

_space_group_name_H-M_alt    "P 1"
_space_group_IT_number       1

loop_
  _space_group_symop_operation_xyz
  'x, y, z'

loop_
  _atom_site_type_symbol
  _atom_site_label
  _atom_site_symmetry_multiplicity
  _atom_site_fract_x
  _atom_site_fract_y
  _atom_site_fract_z
  _atom_site_occupancy
  U   U1        1.0  0.12497020889974657  0.8750302558551509  0.49999944159171145  1.0000
  U   U2        1.0  0.8750296824022996  0.12496796693824312  0.5000005928125901  1.0000
  H   H1        1.0  0.7163330496338317  0.20588729444155968  0.7799618083912847  1.0000
  H   H2        1.0  0.7941140512839624  0.2836689689207077  0.2200361500070116  1.0000
  H   H3        1.0  0.2836688078525  0.7941142076522496  0.2200370824750877  1.0000
  H   H4        1.0  0.20588300081995925  0.7163303323367317  0.7799646045610445  1.0000
  H   H5        1.0  0.49857375764695894  0.9977541655247392  0.6472898998861183  1.0000
  H   H6        1.0  0.0022472241332067992  0.501426210559174  0.35271062750920384  1.0000
  H   H7        1.0  0.5014263070879608  0.0022484174918772997  0.3527098917203801  1.0000
  H   H8        1.0  0.9977508705551157  0.49857308929291105  0.6472913295937985  1.0000
  H   H9        1.0  0.27555331645703524  0.0650805628300688  0.9683920780390878  1.0000
  H   H10       1.0  0.9349218837783653  0.7244497540034373  0.03161071316574035  1.0000
  H   H11       1.0  0.7244485294423696  0.9349209276713779  0.03160987870302287  1.0000
  H   H12       1.0  0.06507935411240598  0.2755495570890787  0.9683907637077951  1.0000
  H   H13       1.0  0.4854967549270129  0.2707213523275129  0.11688895762966213  1.0000
  H   H14       1.0  0.7292813102665718  0.5145077780143552  0.8831100387609965  1.0000
  H   H15       1.0  0.5145064530103484  0.7292812419295274  0.8831103537473696  1.0000
  H   H16       1.0  0.27071993534882216  0.4854915408064003  0.1168893941953826  1.0000
  H   H17       1.0  0.16680679909591595  0.16680590902934261  0.6529188646724718  1.0000
  H   H18       1.0  0.833194750523788  0.8331944994958745  0.34708080821819454  1.0000
  Pt  Pt1       1.0  0.499998227841111  0.49999856672042853  0.49999860441187144  1.0000
  C   C1        1.0  0.3693072161395108  0.6306904699234152  0.4999994961348122  1.0000
  C   C2        1.0  0.6306902821271053  0.36930666211209473  0.49999891522388407  1.0000
  C   C3        1.0  0.6190624518288744  0.25642094071015015  0.9595151294305282  1.0000
  C   C4        1.0  0.7435809261433732  0.3809397013612569  0.04048364278385461  1.0000
  C   C5        1.0  0.38093940179515334  0.743580557519536  0.04048478339442599  1.0000
  C   C6        1.0  0.2564179148496565  0.6190585151092449  0.9595172330026499  1.0000
  C   C7        1.0  0.6208063195700646  0.1789292001921581  0.8253654842406918  1.0000
  C   C8        1.0  0.8210720805115983  0.3791942992146034  0.17463207243581993  1.0000
  C   C9        1.0  0.37919449146956213  0.8210722994428821  0.17463322604931628  1.0000
  C   C10       1.0  0.17892497159232332  0.620805002042829  0.8253686821322362  1.0000
  C   C11       1.0  0.5027501941439069  0.0638347530882868  0.7503750512968851  1.0000
  C   C12       1.0  0.9361669879937652  0.49725145701437884  0.24962480248292007  1.0000
  C   C13       1.0  0.49725166334243204  0.9361667490055222  0.24962383956948742  1.0000
  C   C14       1.0  0.06383110283225343  0.5027478389735833  0.750378176578657  1.0000
  C   C15       1.0  0.3770740304689467  0.1010505595780273  0.9349563312171866  1.0000
  C   C16       1.0  0.8989513594962303  0.6229284732272616  0.06504436798891083  1.0000
  C   C17       1.0  0.6229278192927695  0.8989509347875426  0.06504460356634924  1.0000
  C   C18       1.0  0.10104808950543291  0.3770719226521778  0.934956987666169  1.0000
  C   C19       1.0  0.640649576749496  0.6406483851051449  0.6728059723754569  1.0000
  C   C20       1.0  0.3593441857552834  0.3593465717374825  0.3271883515098111  1.0000
  C   C21       1.0  0.4948724175483933  0.2140830907124638  0.01426406129605344  1.0000
  C   C22       1.0  0.7859204015395492  0.5051308406457196  0.9857350024510153  1.0000
  C   C23       1.0  0.5051294360756273  0.7859184075172293  0.9857358515289077  1.0000
  C   C24       1.0  0.21408114421785027  0.49486956401538157  0.014265692398232915  1.0000
  C   C25       1.0  0.6084378092254782  0.6084380047081054  0.3740136024412593  1.0000
  C   C26       1.0  0.39155998918315044  0.3915602131677502  0.6259860708102992  1.0000
  N   N1        1.0  0.3828469524840444  0.0279027417122322  0.8053548473644483  1.0000
  N   N2        1.0  0.9720987311336273  0.6171542083699534  0.19464673926145787  1.0000
  N   N3        1.0  0.6171545932733551  0.9720976629488617  0.19464584748480013  1.0000
  N   N4        1.0  0.027901452585815913  0.382845092535547  0.8053566009528623  1.0000
  N   N5        1.0  0.6730278369280924  0.6730271220738044  0.30356203380100066  1.0000
  N   N6        1.0  0.3269716197981936  0.32697328153387417  0.6964372779369299  1.0000
  N   N7        1.0  0.7197403624158412  0.7197395115388404  0.7751063776963321  1.0000
  N   N8        1.0  0.2802580401391168  0.28026088188183  0.22489479738237614  1.0000
  N   N9        1.0  0.2932497773310629  0.7067508714986488  0.5000008635938613  1.0000
  N   N10       1.0  0.7067483250818826  0.2932484360816757  0.4999990495919846  1.0000
  O   O1        1.0  0.2686279244219989  0.9174990460353455  0.7345706037479047  1.0000
  O   O2        1.0  0.08250188689502376  0.7313717608760937  0.26543049312227396  1.0000
  O   O3        1.0  0.731372574888688  0.0825013561669863  0.265429910524972  1.0000
  O   O4        1.0  0.9174979966824067  0.2686264541890608  0.7345715851991841  1.0000
  O   O5        1.0  0.08011877288080882  0.08011754036910897  0.6248986948029156  1.0000
  O   O6        1.0  0.9198827806012062  0.9198828720202311  0.3750999561291762  1.0000
  O   O7        1.0  0.9991113878025217  0.7302012854489489  0.5500812214465894  1.0000
  O   O8        1.0  0.2697993277410049  0.0008873898358245992  0.4499165493918015  1.0000
  O   O9        1.0  0.0008880689237643335  0.26979911815873703  0.449918090291341  1.0000
  O   O10       1.0  0.7302033988968686  0.9991097506294081  0.5500837868073205  1.0000
