data_image0
_chemical_formula_structural       Zn4H40C48N16Cl8
_chemical_formula_sum              "Zn4 H40 C48 N16 Cl8"
_cell_length_a       7.924099246
_cell_length_b       8.174936526
_cell_length_c       21.4716
_cell_angle_alpha    90.0
_cell_angle_beta     90.0
_cell_angle_gamma    90.0

_space_group_name_H-M_alt    "P 1"
_space_group_IT_number       1

loop_
  _space_group_symop_operation_xyz
  'x, y, z'

loop_
  _atom_site_type_symbol
  _atom_site_label
  _atom_site_symmetry_multiplicity
  _atom_site_fract_x
  _atom_site_fract_y
  _atom_site_fract_z
  _atom_site_occupancy
  Zn  Zn1       1.0  0.5063717497008255  0.7093755384590708  0.6203296447400319  1.0000
  Zn  Zn2       1.0  0.4936283454519455  0.2093765492314503  0.3796703552599681  1.0000
  Zn  Zn3       1.0  0.0063729640975296  0.7093767617101605  0.8796703552599682  1.0000
  Zn  Zn4       1.0  0.993628393028331  0.2093765492314503  0.1203296447400319  1.0000
  H   H1        1.0  0.4279439081624048  0.3880360403913912  0.5667919484342079  1.0000
  H   H2        1.0  0.5720574489634558  0.8880374761211911  0.4332080515657922  1.0000
  H   H3        1.0  0.9279426937657009  0.3880372636424809  0.9332080515657921  1.0000
  H   H4        1.0  0.07205613941398073  0.8880374761211911  0.0667919484342079  1.0000
  H   H5        1.0  0.3029858568735052  0.124429100674341  0.6014554108683114  1.0000
  H   H6        1.0  0.6970155002523557  0.6244293131530583  0.3985445891316886  1.0000
  H   H7        1.0  0.8029846424768012  0.12443032392543069  0.8985445891316887  1.0000
  H   H8        1.0  0.19701419070288045  0.6244293131530583  0.1014554108683114  1.0000
  H   H9        1.0  0.2545046367280222  0.0791920521879277  0.7167341977309576  1.0000
  H   H10       1.0  0.7454941964516664  0.5791910414155552  0.2832658022690424  1.0000
  H   H11       1.0  0.7545059462774901  0.0791920521879277  0.7832658022690426  1.0000
  H   H12       1.0  0.2454941488752809  0.579192264666645  0.21673419773095762  1.0000
  H   H13       1.0  0.4604169996787562  0.5613731660673196  0.7483559678831571  1.0000
  H   H14       1.0  0.5395843574471044  0.06137295358860939  0.2516435663853684  1.0000
  H   H15       1.0  0.9604170472551417  0.5613731660673196  0.7516440321168433  1.0000
  H   H16       1.0  0.039583047897629314  0.06137295358860939  0.2483564336146387  1.0000
  H   H17       1.0  0.251768679071894  0.1886705780643751  0.823156634810637  1.0000
  H   H18       1.0  0.7482301541077874  0.6886707905430924  0.17684336518936314  1.0000
  H   H19       1.0  0.7517699886213691  0.1886705780643751  0.6768438309208449  1.0000
  H   H20       1.0  0.24823010653140196  0.6886695672920027  0.3231566348106369  1.0000
  H   H21       1.0  0.5565023686731365  0.5000381332624428  0.9378309022150192  1.0000
  H   H22       1.0  0.44349898845272423  3.79207837256e-05  0.0621686320535062  1.0000
  H   H23       1.0  0.0564997971505719  0.5000393565135326  0.562169097784981  1.0000
  H   H24       1.0  0.9434990360291096  3.79207837256e-05  0.43783136794649385  1.0000
  H   H25       1.0  0.3164725632715815  0.2882468863832273  0.187503027254607  1.0000
  H   H26       1.0  0.6835300558273689  0.7882458756108477  0.8124965070139184  1.0000
  H   H27       1.0  0.8164713488748776  0.2882444398810478  0.3124965070139183  1.0000
  H   H28       1.0  0.18352874627789365  0.7882458756108477  0.6875034929860817  1.0000
  H   H29       1.0  0.596311309753631  0.411118788422506  0.1620577879617713  1.0000
  H   H30       1.0  0.4036887853991402  0.9111165543990436  0.8379417463067471  1.0000
  H   H31       1.0  0.0963112621772453  0.41111756517141623  0.33794174630674695  1.0000
  H   H32       1.0  0.9036875710024364  0.9111177776501336  0.6620587194247279  1.0000
  H   H33       1.0  0.6611022700964284  0.4819572589302794  0.0509049162614801  1.0000
  H   H34       1.0  0.3388978250563426  0.9819574714089967  0.9490941522755636  1.0000
  H   H35       1.0  0.16110222252004294  0.4819572589302794  0.44909415227556343  1.0000
  H   H36       1.0  0.8388978726327283  0.9819574714089967  0.5509058477244366  1.0000
  H   H37       1.0  0.1730934908081068  0.284892731899852  0.0013962629706228  1.0000
  H   H38       1.0  0.8269066043446642  0.7848953908807417  0.9986032712979026  1.0000
  H   H39       1.0  0.6730935383844923  0.2848951784020244  0.4986032712979025  1.0000
  H   H40       1.0  0.3269065567682788  0.7848941676296519  0.5013967287020975  1.0000
  C   C1        1.0  0.40522586862108073  0.3636297346830304  0.6160356005141665  1.0000
  C   C2        1.0  0.5947742265316905  0.8636299471617477  0.38396439948583355  1.0000
  C   C3        1.0  0.9052259161974661  0.3636297346830304  0.8839648652173082  1.0000
  C   C4        1.0  0.09477417895530493  0.8636299471617477  0.11603560051416652  1.0000
  C   C5        1.0  0.3356331006760841  0.21680290658687076  0.6358957879245111  1.0000
  C   C6        1.0  0.664366994476687  0.7168031190655881  0.3641042120754889  1.0000
  C   C7        1.0  0.8356318862793799  0.2168041298379606  0.8641046778069637  1.0000
  C   C8        1.0  0.16436694690030157  0.7168031190655881  0.13589578792451112  1.0000
  C   C9        1.0  0.3096503367545012  0.1924394146665946  0.6993172376534602  1.0000
  C   C10       1.0  0.6903484964251803  0.6924396271453048  0.3006827623465398  1.0000
  C   C11       1.0  0.8096516463039765  0.1924394146665946  0.8006832280780218  1.0000
  C   C12       1.0  0.1903484488487948  0.6924396271453048  0.19931723765346024  1.0000
  C   C13       1.0  0.3577832523275291  0.3147058074172975  0.7416578177685906  1.0000
  C   C14       1.0  0.6422168428252419  0.814704796644925  0.2583421822314095  1.0000
  C   C15       1.0  0.8577832999039146  0.3147058074172975  0.7583417164999346  1.0000
  C   C16       1.0  0.1422155332757669  0.8147060198960145  0.2416578177685906  1.0000
  C   C17       1.0  0.4253051224341036  0.4604476117983722  0.7177192198066251  1.0000
  C   C18       1.0  0.5746937107455778  0.9604478242770895  0.2822807801933749  1.0000
  C   C19       1.0  0.9253064319835789  0.4604476117983722  0.782280780193375  1.0000
  C   C20       1.0  0.07469366316919233  0.9604478242770895  0.21771968553810692  1.0000
  C   C21       1.0  0.3356848415727144  0.2886909265281829  0.8082471730099314  1.0000
  C   C22       1.0  0.6643152535800568  0.7886911390068931  0.1917528269900686  1.0000
  C   C23       1.0  0.8356848891490998  0.2886909265281829  0.6917528269900686  1.0000
  C   C24       1.0  0.1643152060036712  0.7886911390068931  0.3082471730099314  1.0000
  C   C25       1.0  0.4584230821987347  0.4114050291771036  0.9509477635574443  1.0000
  C   C26       1.0  0.5415757509809469  0.9114052416558209  0.049052236442555915  1.0000
  C   C27       1.0  0.9584231297751205  0.4114050291771036  0.5490527021740378  1.0000
  C   C28       1.0  0.041575703404561216  0.9114052416558209  0.4509477635574442  1.0000
  C   C29       1.0  0.3507250368428814  0.3167963435267396  0.1395038096834895  1.0000
  C   C30       1.0  0.6492750583098899  0.8167965560054569  0.8604961903165106  1.0000
  C   C31       1.0  0.8507238224461775  0.3167951202756498  0.3604961903165105  1.0000
  C   C32       1.0  0.14927501073350416  0.8167953327543671  0.6395038096834895  1.0000
  C   C33       1.0  0.5051589935626595  0.3874354241071671  0.1251690605264599  1.0000
  C   C34       1.0  0.49484110159011163  0.8874356365858844  0.8748304737420585  1.0000
  C   C35       1.0  0.0051589459862740016  0.3874354241071671  0.3748304737420582  1.0000
  C   C36       1.0  0.994841149166497  0.8874356365858844  0.6251695262579418  1.0000
  C   C37       1.0  0.5419783203962183  0.4239250040630864  0.0631802008234104  1.0000
  C   C38       1.0  0.4580230367296423  0.9239252165417966  0.9368197991765898  1.0000
  C   C39       1.0  0.0419770108467432  0.4239250040630864  0.4368197991765897  1.0000
  C   C40       1.0  0.9580218223329384  0.9239252165417966  0.5631806665548923  1.0000
  C   C41       1.0  0.4251789251252377  0.382106942367713  0.0167807708787393  1.0000
  C   C42       1.0  0.574822432000623  0.8821071548464301  0.9832192291212608  1.0000
  C   C43       1.0  0.9251777107285337  0.382106942367713  0.48321969485273547  1.0000
  C   C44       1.0  0.07482238442423753  0.8821071548464301  0.5167807708787393  1.0000
  C   C45       1.0  0.2709443601534645  0.313425063528129  0.035370442817487906  1.0000
  C   C46       1.0  0.7290569969723963  0.8134252760068463  0.9646295571825122  1.0000
  C   C47       1.0  0.7709431457567606  0.313425063528129  0.4646295571825121  1.0000
  C   C48       1.0  0.22905568742292107  0.8134252760068463  0.535370442817488  1.0000
  N   N1        1.0  0.4467940001871114  0.483865530627611  0.6564545725516525  1.0000
  N   N2        1.0  0.5532060949656599  0.9838657431063212  0.3435454274483476  1.0000
  N   N3        1.0  0.9467940477634971  0.483865530627611  0.8435454274483476  1.0000
  N   N4        1.0  0.0532047854161846  0.9838657431063212  0.1564545725516524  1.0000
  N   N5        1.0  0.4137921419466296  0.3782439154317174  0.8488170420462353  1.0000
  N   N6        1.0  0.5862079532061415  0.878242904659345  0.1511824922222829  1.0000
  N   N7        1.0  0.9137909275499254  0.3782426921806277  0.6511829579537647  1.0000
  N   N8        1.0  0.08620916760284562  0.8782441279104347  0.3488175077777171  1.0000
  N   N9        1.0  0.37279947010900844  0.3332123731280915  0.9092117029005777  1.0000
  N   N10       1.0  0.6271993630706731  0.8332125856068089  0.0907878313679475  1.0000
  N   N11       1.0  0.8727995176853938  0.3332123731280915  0.5907878313679475  1.0000
  N   N12       1.0  0.12720057746737726  0.8332125856068089  0.4092121686320525  1.0000
  N   N13       1.0  0.23404426704223624  0.2841979252818447  0.09523137539819973  1.0000
  N   N14       1.0  0.7659570900836243  0.784198137760562  0.9047681588703185  1.0000
  N   N15       1.0  0.7340430526455324  0.2841979252818447  0.4047681588703185  1.0000
  N   N16       1.0  0.2659557805341493  0.7841969145094723  0.5952318411296816  1.0000
  Cl  Cl1       1.0  0.589569849514227  0.8667993907308258  0.6995799102069711  1.0000
  Cl  Cl2       1.0  0.4104289836654544  0.3667991782521156  0.3004200897930289  1.0000
  Cl  Cl3       1.0  0.0895698019378415  0.8668006139819155  0.8004200897930291  1.0000
  Cl  Cl4       1.0  0.9104290312418402  0.3668004015032054  0.1995803759384458  1.0000
  Cl  Cl5       1.0  0.6391956792510882  0.6800676656409763  0.5299665604798919  1.0000
  Cl  Cl6       1.0  0.3608044159016829  0.1800674531622661  0.4700329737886335  1.0000
  Cl  Cl7       1.0  0.1391956316747027  0.6800676656409763  0.9700329737886335  1.0000
  Cl  Cl8       1.0  0.8608044634780683  0.1800674531622661  0.0299670262113665  1.0000
