data_image0
_chemical_formula_structural       Ag8H40C40I8N8
_chemical_formula_sum              "Ag8 H40 C40 I8 N8"
_cell_length_a       9.103497423615078
_cell_length_b       9.291787206756927
_cell_length_c       16.74110840113422
_cell_angle_alpha    90.00046777414731
_cell_angle_beta     89.99989154259164
_cell_angle_gamma    106.37884856068952

_space_group_name_H-M_alt    "P 1"
_space_group_IT_number       1

loop_
  _space_group_symop_operation_xyz
  'x, y, z'

loop_
  _atom_site_type_symbol
  _atom_site_label
  _atom_site_symmetry_multiplicity
  _atom_site_fract_x
  _atom_site_fract_y
  _atom_site_fract_z
  _atom_site_occupancy
  Ag  Ag1       1.0  0.3547601728566931  0.9300704880743356  0.9559775010622862  1.0000
  Ag  Ag2       1.0  0.14523046891277858  0.5699284292998001  0.4559788178290917  1.0000
  Ag  Ag3       1.0  0.6452331646244289  0.0699498185536243  0.04402021759786121  1.0000
  Ag  Ag4       1.0  0.8547691323475277  0.4300526115239408  0.5440200954011589  1.0000
  Ag  Ag5       1.0  0.8542957745399137  0.9344634603003715  0.9573260338686329  1.0000
  Ag  Ag6       1.0  0.6457057664708827  0.5655416931526747  0.45732374587782954  1.0000
  Ag  Ag7       1.0  0.14568515577384034  0.0655366568499076  0.04267825540328831  1.0000
  Ag  Ag8       1.0  0.35429978053150524  0.4344561734905099  0.5426751673882964  1.0000
  H   H1        1.0  0.0536822029404433  0.0497139136682705  0.8007451565934576  1.0000
  H   H2        1.0  0.44632545576091326  0.4502961400889232  0.3007449396789284  1.0000
  H   H3        1.0  0.9463159784799446  0.9502850768771369  0.19925853533511176  1.0000
  H   H4        1.0  0.5536784771655974  0.5497151889929982  0.6992569602791934  1.0000
  H   H5        1.0  0.5900466989894539  0.8412373674518748  0.8251005376304833  1.0000
  H   H6        1.0  0.9099654147236792  0.6587647307871978  0.3250978154742796  1.0000
  H   H7        1.0  0.40995303289867024  0.1587593789638362  0.1748977783039862  1.0000
  H   H8        1.0  0.0900395512789061  0.34123874516234304  0.6748999031410748  1.0000
  H   H9        1.0  0.7740272859977323  0.9563160317919353  0.5882699160836327  1.0000
  H   H10       1.0  0.7259787259630031  0.5436848541386398  0.08826804309395443  1.0000
  H   H11       1.0  0.22598523982459545  0.0436908075775619  0.4117301918637254  1.0000
  H   H12       1.0  0.2740247531783879  0.456309647596683  0.9117326621614839  1.0000
  H   H13       1.0  0.5490313962136496  0.8424289099589543  0.6764114815376845  1.0000
  H   H14       1.0  0.9509720255838373  0.6575755071905434  0.17640930966447146  1.0000
  H   H15       1.0  0.45097324663203153  0.15757344424469014  0.32358563974322874  1.0000
  H   H16       1.0  0.04902635007051969  0.3424279705941942  0.8235902009502711  1.0000
  H   H17       1.0  0.41464206656193164  0.1715471422788966  0.8153117938018825  1.0000
  H   H18       1.0  0.08535713615827939  0.32844517718955063  0.3153113794271364  1.0000
  H   H19       1.0  0.5853537891513838  0.8284552143411475  0.18468353548744432  1.0000
  H   H20       1.0  0.9146407857107518  0.6715414732442325  0.6846863391529043  1.0000
  H   H21       1.0  0.031427409199857  0.06153858848025351  0.6516349965005193  1.0000
  H   H22       1.0  0.46857543347882563  0.4384681678043592  0.1516341050503627  1.0000
  H   H23       1.0  0.9685819503705988  0.9384648862981494  0.3483686954327468  1.0000
  H   H24       1.0  0.5314273357420093  0.5615353087787157  0.8483671975581901  1.0000
  H   H25       1.0  0.2190088194694795  0.7120162937797262  0.80922513401098  1.0000
  H   H26       1.0  0.28098657021672574  0.7879782361290638  0.30923389171930193  1.0000
  H   H27       1.0  0.7809925282015797  0.28798606133060634  0.19077138993959153  1.0000
  H   H28       1.0  0.7190071523249699  0.2120129028590796  0.6907733841854695  1.0000
  H   H29       1.0  0.39424449446043747  0.1917098727102484  0.6662165853374449  1.0000
  H   H30       1.0  0.10576113571131168  0.3082914865391615  0.16621605712560955  1.0000
  H   H31       1.0  0.6057518133309259  0.8082902401230214  0.33377874394646784  1.0000
  H   H32       1.0  0.8942429897424944  0.6917052586574429  0.8337816614746176  1.0000
  H   H33       1.0  0.19171071925806157  0.7129045102278154  0.6598987170098525  1.0000
  H   H34       1.0  0.3082863810029508  0.7870979355558418  0.15990684564329882  1.0000
  H   H35       1.0  0.8082907573345538  0.2870944793585722  0.3400984042648859  1.0000
  H   H36       1.0  0.6917085052440157  0.21290105592242273  0.8400998329470114  1.0000
  H   H37       1.0  0.27973316682478366  0.957953697348643  0.5872320072061755  1.0000
  H   H38       1.0  0.2202660818252582  0.5420476868927864  0.0872355084205338  1.0000
  H   H39       1.0  0.7202624946535678  0.0420441720102644  0.4127645167369068  1.0000
  H   H40       1.0  0.7797363642390707  0.4579546679531036  0.9127663915176074  1.0000
  C   C1        1.0  0.9436885813933314  0.0054559550418105006  0.7708152829253552  1.0000
  C   C2        1.0  0.5563208454316353  0.494558758844903  0.27081327635497143  1.0000
  C   C3        1.0  0.05631573829821683  0.9945452774769732  0.22918960366931176  1.0000
  C   C4        1.0  0.4436799212414187  0.5054492056110362  0.7291874289329601  1.0000
  C   C5        1.0  0.684742570853551  0.8888976749921583  0.7842514526858936  1.0000
  C   C6        1.0  0.815261892231014  0.6111116818179738  0.28425219019450765  1.0000
  C   C7        1.0  0.3152578073475922  0.1111013148979083  0.21574566858940616  1.0000
  C   C8        1.0  0.18474249277395668  0.38889740348589197  0.7157509044222367  1.0000
  C   C9        1.0  0.7877105806739096  0.9530279993509013  0.6528719562145967  1.0000
  C   C10       1.0  0.712290047665192  0.5469816840570233  0.15287011230719125  1.0000
  C   C11       1.0  0.21229438533006834  0.0469754766291643  0.34712994372485895  1.0000
  C   C12       1.0  0.2877069064411799  0.45302067229421533  0.847129995637687  1.0000
  C   C13       1.0  0.6623718390821834  0.8900823033603729  0.7019211952470885  1.0000
  C   C14       1.0  0.8376350891132204  0.6099269725774265  0.20191891795570885  1.0000
  C   C15       1.0  0.3376360989385033  0.10992004994529482  0.2980777180281963  1.0000
  C   C16       1.0  0.1623683264204345  0.3900787474756484  0.7980805926616626  1.0000
  C   C17       1.0  0.36623787424703375  0.07257662947017711  0.7784579963277096  1.0000
  C   C18       1.0  0.13376039977462284  0.4274196395303846  0.2784585876909064  1.0000
  C   C19       1.0  0.6337590798579456  0.9274257268505366  0.22153793029307425  1.0000
  C   C20       1.0  0.8662342922342035  0.5725748646169821  0.7215397282409345  1.0000
  C   C21       1.0  0.9310269771415778  0.0116154597492155  0.6880854169477859  1.0000
  C   C22       1.0  0.5689787762585256  0.4883969254924665  0.18808396641001934  1.0000
  C   C23       1.0  0.06897986248922897  0.9883868938950188  0.31191827498417274  1.0000
  C   C24       1.0  0.43102354088384937  0.511608794868657  0.8119161415399178  1.0000
  C   C25       1.0  0.2569258543696478  0.8158747614992736  0.775102166177746  1.0000
  C   C26       1.0  0.2430695125912337  0.6841192702046044  0.2751074956125238  1.0000
  C   C27       1.0  0.7430729733623664  0.18412647248997163  0.22489614976755234  1.0000
  C   C28       1.0  0.7569232404789404  0.3158685035283924  0.7248955989608634  1.0000
  C   C29       1.0  0.3537523706260544  0.0834578729394906  0.6958977834646947  1.0000
  C   C30       1.0  0.14624584841504176  0.4165371907275884  0.1958995065482157  1.0000
  C   C31       1.0  0.6462436140082132  0.9165411181435131  0.3040963511527579  1.0000
  C   C32       1.0  0.8537507172208195  0.5834561910883098  0.8041011987081392  1.0000
  C   C33       1.0  0.24063968358409232  0.8169376687956884  0.6923752769181988  1.0000
  C   C34       1.0  0.2593561456776996  0.6830607641617306  0.19238297427919093  1.0000
  C   C35       1.0  0.7593573994424361  0.1830613220010733  0.3076212470267521  1.0000
  C   C36       1.0  0.7406377710983493  0.3169348620744685  0.8076213149757765  1.0000
  C   C37       1.0  0.2900834373054053  0.9533607764074788  0.6519893523335727  1.0000
  C   C38       1.0  0.20991475607831234  0.5466415535658059  0.15199288526435595  1.0000
  C   C39       1.0  0.7099142920341421  0.04664045786365281  0.34800597695220864  1.0000
  C   C40       1.0  0.7900850411246195  0.4533630456655117  0.8480078200162853  1.0000
  I   I1        1.0  0.5487818331570582  0.7550177316991623  0.0030610014121280004  1.0000
  I   I2        1.0  0.9512221195140925  0.7449863981595541  0.503067691453879  1.0000
  I   I3        1.0  0.45121680204705666  0.24499808616231897  0.9969397038950234  1.0000
  I   I4        1.0  0.0487829737055634  0.2549946411893557  0.49693719509373596  1.0000
  I   I5        1.0  0.04774019069572698  0.7532350963911728  0.9980132937508801  1.0000
  I   I6        1.0  0.45225971827706246  0.7467621884652332  0.49801392212926043  1.0000
  I   I7        1.0  0.9522585081157261  0.24676950314382406  0.0019874115303153  1.0000
  I   I8        1.0  0.5477422103938068  0.2532345573387432  0.5019837964720822  1.0000
  N   N1        1.0  0.3195321560121585  0.9412234866647253  0.8177047407209843  1.0000
  N   N2        1.0  0.18046214092804996  0.5587711673130186  0.31770895689930984  1.0000
  N   N3        1.0  0.6804619549964671  0.05877662678027921  0.18229118589605525  1.0000
  N   N4        1.0  0.819529513750055  0.44121660671057583  0.6822923456785903  1.0000
  N   N5        1.0  0.8227391337895682  0.9452856214107825  0.8184875974857067  1.0000
  N   N6        1.0  0.6772711672079694  0.5547253554407306  0.318486422179582  1.0000
  N   N7        1.0  0.1772631180390007  0.05471224615654081  0.18151310777813734  1.0000
  N   N8        1.0  0.3227339930305675  0.44528260779175355  0.6815130884420882  1.0000
