data_image0
_chemical_formula_structural       Hg2H10C8N6Cl4
_chemical_formula_sum              "Hg2 H10 C8 N6 Cl4"
_cell_length_a       3.8482941576651286
_cell_length_b       7.006263379134088
_cell_length_c       13.895478865348235
_cell_angle_alpha    89.99794871626189
_cell_angle_beta     90.00099491791
_cell_angle_gamma    99.07453870596632

_space_group_name_H-M_alt    "P 1"
_space_group_IT_number       1

loop_
  _space_group_symop_operation_xyz
  'x, y, z'

loop_
  _atom_site_type_symbol
  _atom_site_label
  _atom_site_symmetry_multiplicity
  _atom_site_fract_x
  _atom_site_fract_y
  _atom_site_fract_z
  _atom_site_occupancy
  Hg  Hg1       1.0  0.9999962496435089  4.374161782995947e-06  0.5000010781786771  1.0000
  Hg  Hg2       1.0  8.991629712828188e-06  0.999998324227555  2.269337031199998e-06  1.0000
  H   H1        1.0  0.7116117412692162  0.13018091244099853  0.3129937304309821  1.0000
  H   H2        1.0  0.288414036975567  0.8698099669578029  0.8129880441676749  1.0000
  H   H3        1.0  0.2884255176801744  0.8698185771454804  0.686999582886749  1.0000
  H   H4        1.0  0.7116053971104678  0.13018068424025842  0.18700670850469694  1.0000
  H   H5        1.0  0.20317681457887463  0.41273176318333077  0.25001038135978604  1.0000
  H   H6        1.0  0.7967959688442294  0.5872800053946748  0.7499994838311043  1.0000
  H   H7        1.0  0.12194777141440481  0.5905030489762667  0.4051798712419414  1.0000
  H   H8        1.0  0.8780585271298946  0.40946135194065664  0.9051712243416079  1.0000
  H   H9        1.0  0.8780919877873076  0.40951664394262377  0.5948235171147263  1.0000
  H   H10       1.0  0.12190112610173291  0.590498392722033  0.09483216437089943  1.0000
  C   C1        1.0  0.9144412255423405  0.9076549151162965  0.2500061279015426  1.0000
  C   C2        1.0  0.08554318239480102  0.0923411249717034  0.7500001391708653  1.0000
  C   C3        1.0  0.12344966087409402  0.5547651228509382  0.25000743145569976  1.0000
  C   C4        1.0  0.8765655494204907  0.4452499831024427  0.750000274833802  1.0000
  C   C5        1.0  0.07486963237026603  0.6518801388136313  0.33512762513549893  1.0000
  C   C6        1.0  0.9251637987137826  0.34810503651463887  0.835110270972834  1.0000
  C   C7        1.0  0.925124364330003  0.348133298700077  0.6648736041900424  1.0000
  C   C8        1.0  0.07484369915992059  0.6518898101983126  0.16488807992386975  1.0000
  N   N1        1.0  0.7941157052492969  0.0767831963761125  0.2500041559446445  1.0000
  N   N2        1.0  0.2058869450285883  0.9232130397796894  0.7499877180003696  1.0000
  N   N3        1.0  0.9745722388381638  0.8262793021485636  0.33606667574014903  1.0000
  N   N4        1.0  0.025394149803297218  0.17371806295800246  0.8360545664827657  1.0000
  N   N5        1.0  0.02541988105167549  0.1737369979120942  0.6639266373103684  1.0000
  N   N6        1.0  0.9745579436897457  0.8262632189262291  0.16394234508506142  1.0000
  Cl  Cl1       1.0  0.5058445779731429  0.7484785191164534  0.5570834463256562  1.0000
  Cl  Cl2       1.0  0.4941519050677599  0.2515174305540597  0.05707429746560421  1.0000
  Cl  Cl3       1.0  0.49416959103968594  0.251522163845074  0.44291778316776503  1.0000
  Cl  Cl4       1.0  0.5058406856723039  0.7484801387822699  0.9429226140519379  1.0000
