data_image0
_chemical_formula_structural       Cd4H36C40N20O8
_chemical_formula_sum              "Cd4 H36 C40 N20 O8"
_cell_length_a       9.962072298199656
_cell_length_b       10.749881535069347
_cell_length_c       10.895324837238544
_cell_angle_alpha    89.99966878844396
_cell_angle_beta     90.00068382485172
_cell_angle_gamma    90.00024094150689

_space_group_name_H-M_alt    "P 1"
_space_group_IT_number       1

loop_
  _space_group_symop_operation_xyz
  'x, y, z'

loop_
  _atom_site_type_symbol
  _atom_site_label
  _atom_site_symmetry_multiplicity
  _atom_site_fract_x
  _atom_site_fract_y
  _atom_site_fract_z
  _atom_site_occupancy
  Cd  Cd1       1.0  0.9491309054629938  0.23799677829657642  0.08132929609969611  1.0000
  Cd  Cd2       1.0  0.5508688280553145  0.7620077650978204  0.58133457619018  1.0000
  Cd  Cd3       1.0  0.050868330531990615  0.7379911947673891  0.41866948338391563  1.0000
  Cd  Cd4       1.0  0.44912699524808636  0.2620057247132124  0.9186718823214975  1.0000
  H   H1        1.0  0.9214136753920814  0.07579349958542989  0.8924022598417739  1.0000
  H   H2        1.0  0.5785820811859493  0.9242045762783488  0.3923972624973616  1.0000
  H   H3        1.0  0.07858029247996969  0.5757954209919092  0.6076025108790404  1.0000
  H   H4        1.0  0.42141901021008016  0.42420517530160134  0.10759953348565433  1.0000
  H   H5        1.0  0.8216873833074627  0.1868476915705344  0.8452343774127657  1.0000
  H   H6        1.0  0.6783097662908021  0.8131497294401482  0.3452375305346892  1.0000
  H   H7        1.0  0.178310103855722  0.6868506534135435  0.654767004286022  1.0000
  H   H8        1.0  0.3216918210544932  0.3131478070043555  0.15476540797487107  1.0000
  H   H9        1.0  0.031662125085830405  0.15968529998689723  0.7201205126344521  1.0000
  H   H10       1.0  0.46833161721438193  0.8403127788048081  0.22012392710893647  1.0000
  H   H11       1.0  0.9683352378402079  0.6596868649319915  0.779879188868435  1.0000
  H   H12       1.0  0.5316700943283266  0.3403118679664487  0.27987426681983874  1.0000
  H   H13       1.0  0.9914598440851066  0.40803462127070833  0.8527810283906309  1.0000
  H   H14       1.0  0.5085394114441543  0.5919618254465033  0.3527808381046783  1.0000
  H   H15       1.0  0.0085376508054367  0.9080360405285219  0.6472163339840906  1.0000
  H   H16       1.0  0.4914631719425913  0.09195967322695958  0.14722153062077586  1.0000
  H   H17       1.0  0.0903883685074334  0.3834348566226636  0.7199008332043564  1.0000
  H   H18       1.0  0.40961139375789196  0.6165650839578517  0.2199012149837785  1.0000
  H   H19       1.0  0.9096090138601415  0.8834324722628892  0.7800948343154915  1.0000
  H   H20       1.0  0.5903923059721876  0.11656811981918479  0.28010193075321155  1.0000
  H   H21       1.0  0.7510881355795007  0.43549961889223  0.8379264763150971  1.0000
  H   H22       1.0  0.7489149416182953  0.5645062170006837  0.337924481610898  1.0000
  H   H23       1.0  0.24891952303415374  0.9354972295849108  0.6620789893674941  1.0000
  H   H24       1.0  0.2510824972029937  0.06450304860650388  0.1620835511671004  1.0000
  H   H25       1.0  0.7726327304931929  0.33757058147188695  0.3918024977623205  1.0000
  H   H26       1.0  0.727359003069914  0.6624274978729188  0.891802016586276  1.0000
  H   H27       1.0  0.22735190381308004  0.8375684234057984  0.1082003008945946  1.0000
  H   H28       1.0  0.27265041812827207  0.16243030889769727  0.6082040940593603  1.0000
  H   H29       1.0  0.5621060425092637  0.42349643487666094  0.48356706645518  1.0000
  H   H30       1.0  0.9378919058858344  0.5765057598855349  0.983566624871344  1.0000
  H   H31       1.0  0.43788701517162565  0.9234835334843151  0.016431569224977204  1.0000
  H   H32       1.0  0.06211712234026831  0.07651573466083049  0.5164335527081719  1.0000
  H   H33       1.0  0.9749588919734152  0.3100902886130541  0.5223633508213227  1.0000
  H   H34       1.0  0.52503505405803  0.6899080873920198  0.022360944688919904  1.0000
  H   H35       1.0  0.025028116903818898  0.810094493579676  0.9776318185494476  1.0000
  H   H36       1.0  0.4749740001126597  0.18990952356179489  0.4776399456898092  1.0000
  C   C1        1.0  0.15922302924607834  0.21038054841918097  0.8710234035712222  1.0000
  C   C2        1.0  0.3407766946612866  0.7896185097748687  0.3710202068732613  1.0000
  C   C3        1.0  0.8407745655293084  0.7103787802938227  0.6289778434630194  1.0000
  C   C4        1.0  0.6592257888508471  0.2896161824677534  0.12897919501220662  1.0000
  C   C5        1.0  0.023483781420225103  0.215722864865775  0.8044335349304962  1.0000
  C   C6        1.0  0.4765140709821765  0.7842747216360026  0.3044364417056472  1.0000
  C   C7        1.0  0.9765148415870258  0.7157230932492239  0.6955658458798271  1.0000
  C   C8        1.0  0.5234873842899788  0.2842724109644905  0.19556390858154069  1.0000
  C   C9        1.0  0.9993109451563599  0.35256078412627545  0.7680485567316072  1.0000
  C   C10       1.0  0.5006892138494692  0.6474398783109194  0.2680488809650825  1.0000
  C   C11       1.0  0.0006872998391003001  0.8525607480373195  0.7319491231284305  1.0000
  C   C12       1.0  0.49931362325485656  0.1474400524308876  0.2319522524290605  1.0000
  C   C13       1.0  0.7571072834343369  0.4152271346914845  0.7400634914585497  1.0000
  C   C14       1.0  0.7428925108981446  0.5847783423670095  0.24006223274678726  1.0000
  C   C15       1.0  0.24289225196489642  0.9152157785038709  0.7599384189253942  1.0000
  C   C16       1.0  0.25710903585065387  0.08478299805270238  0.25994109488949146  1.0000
  C   C17       1.0  0.6445700211266185  0.4362729473720818  0.6657621402149729  1.0000
  C   C18       1.0  0.8554288049678647  0.5637245913397279  0.16576131429832947  1.0000
  C   C19       1.0  0.3554316181445357  0.9362653134393568  0.8342396497245235  1.0000
  C   C20       1.0  0.14457164170345752  0.06373582000899349  0.3342421338038549  1.0000
  C   C21       1.0  0.8769032111356126  0.3713619153953118  0.6890992928693791  1.0000
  C   C22       1.0  0.6230949152811077  0.6286485104531891  0.18909739141579962  1.0000
  C   C23       1.0  0.12309311223613409  0.8713572403849807  0.8109010328690476  1.0000
  C   C24       1.0  0.3769078358998997  0.1286449595629904  0.3109075208310657  1.0000
  C   C25       1.0  0.7687898410842706  0.36091380256199557  0.4892653140871773  1.0000
  C   C26       1.0  0.7312041663325459  0.6390864984347926  0.9892650085176274  1.0000
  C   C27       1.0  0.23120192661041017  0.860903856263512  0.010737351037640503  1.0000
  C   C28       1.0  0.2688031405115581  0.13909451488599694  0.5107403178573551  1.0000
  C   C29       1.0  0.6509724262379849  0.40864139382242115  0.5402313480875521  1.0000
  C   C30       1.0  0.8490227564309195  0.5913522266394153  0.040229376216416306  1.0000
  C   C31       1.0  0.34901904861258976  0.9086395138441431  0.9597715177403148  1.0000
  C   C32       1.0  0.15098584703977744  0.09135995639075388  0.45977391382726307  1.0000
  C   C33       1.0  0.8816503363505956  0.34415362036725117  0.5631426197484403  1.0000
  C   C34       1.0  0.6183471525429595  0.6558556804414407  0.0631432641646228  1.0000
  C   C35       1.0  0.11834084352885552  0.8441435403287796  0.936856026040829  1.0000
  C   C36       1.0  0.38166174591921026  0.15585699393787414  0.43686149239515276  1.0000
  C   C37       1.0  0.5216743646289929  0.49007129108504444  0.7175174584686063  1.0000
  C   C38       1.0  0.9783281473526699  0.5099315268812673  0.21752103730577946  1.0000
  C   C39       1.0  0.47832952830076186  0.9900644345228  0.7824849414176498  1.0000
  C   C40       1.0  0.021671049509933503  0.009937001116441  0.2824863899634664  1.0000
  N   N1        1.0  0.9146120377213407  0.1703778097955464  0.8837615487758657  1.0000
  N   N2        1.0  0.5853866177389548  0.8296203165005877  0.38376542752683923  1.0000
  N   N3        1.0  0.08538637791281188  0.6703797070712056  0.6162380915385344  1.0000
  N   N4        1.0  0.41461404110759753  0.32961897831744835  0.11623466324014232  1.0000
  N   N5        1.0  0.45094461870323954  0.4452768944734585  0.8126965559423812  1.0000
  N   N6        1.0  0.0490593642203763  0.5547234345230194  0.3126988573350006  1.0000
  N   N7        1.0  0.5490610770008503  0.9452755183449425  0.6873070181214658  1.0000
  N   N8        1.0  0.9509390336648593  0.05472654578314011  0.18730647794259886  1.0000
  N   N9        1.0  0.4597795654917931  0.5925273100566101  0.6744130180713983  1.0000
  N   N10       1.0  0.04022161165352861  0.40747568685095803  0.17441514775529046  1.0000
  N   N11       1.0  0.5402205017210591  0.09252337463831851  0.825588903457252  1.0000
  N   N12       1.0  0.9597794033076923  0.907478812301278  0.325591840033063  1.0000
  N   N13       1.0  0.3493492274249519  0.6095968452454129  0.7452739518532925  1.0000
  N   N14       1.0  0.15065186928903532  0.39040387742729615  0.24527463288394105  1.0000
  N   N15       1.0  0.6506469026302925  0.1096011924955604  0.7547260362913804  1.0000
  N   N16       1.0  0.8493510751654085  0.89040233845364  0.2547269456811918  1.0000
  N   N17       1.0  0.3434983694190025  0.5212495735585776  0.8275764457582897  1.0000
  N   N18       1.0  0.1565037997844598  0.47874880806653397  0.32757852079570443  1.0000
  N   N19       1.0  0.6565003680158484  0.0212553542398766  0.6724231301835603  1.0000
  N   N20       1.0  0.8434985448924337  0.9787477270350562  0.1724225521663527  1.0000
  O   O1        1.0  0.1626748607541586  0.20431503314109276  0.9870833112449663  1.0000
  O   O2        1.0  0.33732336410510305  0.795684277627984  0.4870791242679007  1.0000
  O   O3        1.0  0.8373217024718044  0.7043120688494184  0.5129179705000341  1.0000
  O   O4        1.0  0.6626781433109272  0.2956742691533165  0.012918407270071002  1.0000
  O   O5        1.0  0.2619582565784313  0.21943220944900324  0.8025578758716424  1.0000
  O   O6        1.0  0.23804157893835762  0.780568178765897  0.3025508544884802  1.0000
  O   O7        1.0  0.7380403834167168  0.7194324350604547  0.6974451550096321  1.0000
  O   O8        1.0  0.7619598593774127  0.2805714303511663  0.1974467635206879  1.0000
