data_image0
_chemical_formula_structural       Zn4Sn4H64C24Se14N12
_chemical_formula_sum              "Zn4 Sn4 H64 C24 Se14 N12"
_cell_length_a       10.329046750093477
_cell_length_b       11.047097556004093
_cell_length_c       13.751247766243955
_cell_angle_alpha    89.99993357631759
_cell_angle_beta     110.12962619373255
_cell_angle_gamma    90.00009101464991

_space_group_name_H-M_alt    "P 1"
_space_group_IT_number       1

loop_
  _space_group_symop_operation_xyz
  'x, y, z'

loop_
  _atom_site_type_symbol
  _atom_site_label
  _atom_site_symmetry_multiplicity
  _atom_site_fract_x
  _atom_site_fract_y
  _atom_site_fract_z
  _atom_site_occupancy
  Zn  Zn1       1.0  0.9641142963004226  0.7395037785235701  0.9411624143247082  1.0000
  Zn  Zn2       1.0  0.0358883305379507  0.23951176417504869  0.058836279360747305  1.0000
  Zn  Zn3       1.0  0.0744932926205948  0.5359042875946186  0.45976345693921417  1.0000
  Zn  Zn4       1.0  0.9255059435171445  0.03590293841846659  0.5402367299888411  1.0000
  Sn  Sn1       1.0  0.054225134545888  0.7338221528246436  0.6943262011367537  1.0000
  Sn  Sn2       1.0  0.945776447710017  0.23382841374240831  0.3056773177388763  1.0000
  Sn  Sn3       1.0  0.0466194963657571  0.05095308765122299  0.8347320675746984  1.0000
  Sn  Sn4       1.0  0.9533807942031273  0.5509543523169284  0.16526692401411214  1.0000
  H   H1        1.0  0.8490207172460984  0.614568954130263  0.4707927314956634  1.0000
  H   H2        1.0  0.15097863215495266  0.1145700951228079  0.5292081386255489  1.0000
  H   H3        1.0  0.8085215494383603  0.5022698055034808  0.38534771444437854  1.0000
  H   H4        1.0  0.19147660533605657  0.0022708831904977994  0.6146536781746194  1.0000
  H   H5        1.0  0.7137087420630835  0.40442124342398245  0.6157345445364654  1.0000
  H   H6        1.0  0.2862879340276693  0.9044193941895173  0.3842653629078896  1.0000
  H   H7        1.0  0.7128583027658023  0.5573519378251888  0.5771663985482859  1.0000
  H   H8        1.0  0.28713890145353815  0.05735071819381688  0.4228339693021113  1.0000
  H   H9        1.0  0.5252531924416459  0.6170707450454385  0.4487355402764734  1.0000
  H   H10       1.0  0.4747461628207716  0.11707052309248671  0.5512631474100189  1.0000
  H   H11       1.0  0.43187827137785467  0.5094278890191289  0.4949456819645377  1.0000
  H   H12       1.0  0.5681209263898311  0.0094287771717774  0.505054519711507  1.0000
  H   H13       1.0  0.29437115479323234  0.5639861385755082  0.3155117452014693  1.0000
  H   H14       1.0  0.7056281227906993  0.06398787666532968  0.6844876990689599  1.0000
  H   H15       1.0  0.4361175482895233  0.529079368174841  0.2724697341972798  1.0000
  H   H16       1.0  0.563880649066661  0.029079929119880898  0.727528008418517  1.0000
  H   H17       1.0  0.2710034461259525  0.3742657581516368  0.2351686423548145  1.0000
  H   H18       1.0  0.7289952500107758  0.8742667309550711  0.7648303620032235  1.0000
  H   H19       1.0  0.2802134951852935  0.3591286678530494  0.3592340386387817  1.0000
  H   H20       1.0  0.7197851782675074  0.8591289007769729  0.6407657011653711  1.0000
  H   H21       1.0  0.41455991112372453  0.20049436210046415  0.327849465171866  1.0000
  H   H22       1.0  0.585438530933196  0.7004952560794776  0.6721518170266451  1.0000
  H   H23       1.0  0.5088866954881084  0.3052441533253542  0.2787377877058502  1.0000
  H   H24       1.0  0.4911108687437035  0.8052457420337332  0.7212617150421323  1.0000
  H   H25       1.0  0.6463187014993607  0.25575058184138294  0.4590038270643645  1.0000
  H   H26       1.0  0.35368085325844584  0.7557513219258066  0.5409962373982253  1.0000
  H   H27       1.0  0.5059051681525729  0.293399250100002  0.5017663895062796  1.0000
  H   H28       1.0  0.49409547229648615  0.7933993545237071  0.4982339210564248  1.0000
  H   H29       1.0  0.1916580125668617  0.673454804826008  0.08016035580133259  1.0000
  H   H30       1.0  0.8083424540476898  0.17345273460450264  0.9198400215767533  1.0000
  H   H31       1.0  0.23032924419998574  0.7568163416391938  0.994645965611447  1.0000
  H   H32       1.0  0.7696703121012832  0.25681553336077906  0.005354098257896665  1.0000
  H   H33       1.0  0.1138647808757582  0.8675971001398036  0.141381169576043  1.0000
  H   H34       1.0  0.886133904849302  0.36759613861096324  0.8586185655111294  1.0000
  H   H35       1.0  0.1936243559343609  0.9410436562531497  0.0637779702244643  1.0000
  H   H36       1.0  0.8063754673640132  0.4410433699183827  0.93622199102132  1.0000
  H   H37       1.0  0.3380812989366361  0.9355806561568228  0.24904868093643268  1.0000
  H   H38       1.0  0.6619205787009648  0.43558042323316215  0.7509518174965777  1.0000
  H   H39       1.0  0.3271838068267314  0.7751104427915648  0.250651255710963  1.0000
  H   H40       1.0  0.6728157759882265  0.2751102283108509  0.749348797967528  1.0000
  H   H41       1.0  0.5495634506995158  0.7260261837908716  0.30286548295512716  1.0000
  H   H42       1.0  0.45043502985018335  0.2260257154228498  0.6971343309936627  1.0000
  H   H43       1.0  0.5953010974936745  0.8812479669791171  0.3269995118780287  1.0000
  H   H44       1.0  0.4046965776335155  0.3812483709314805  0.672999221518701  1.0000
  H   H45       1.0  0.7923026715817229  0.7664659387895654  0.31118216920238234  1.0000
  H   H46       1.0  0.2076989602155663  0.26646512307159037  0.6888191504495893  1.0000
  H   H47       1.0  0.6871648279447982  0.7065669583793621  0.18823842814889957  1.0000
  H   H48       1.0  0.3128356866600441  0.2065670261686917  0.811761930783547  1.0000
  H   H49       1.0  0.815305303471824  0.86570298982744  0.1610952342010421  1.0000
  H   H50       1.0  0.18469338025424517  0.3657028287632257  0.8389037749271893  1.0000
  H   H51       1.0  0.7702677549441646  0.9617670448445349  0.2419598449017997  1.0000
  H   H52       1.0  0.2297310687498353  0.46176525667509327  0.7580383837007858  1.0000
  H   H53       1.0  0.5982225721262466  0.8608654483530529  0.03779117594539373  1.0000
  H   H54       1.0  0.40177610608002107  0.360865430784358  0.9622063818498816  1.0000
  H   H55       1.0  0.6452581211328408  0.015666081211854498  0.06887651450075795  1.0000
  H   H56       1.0  0.3547400560366398  0.5156644496576985  0.931121962601317  1.0000
  H   H57       1.0  0.5058577500903568  0.026940350532719006  0.18271473673103603  1.0000
  H   H58       1.0  0.4941404441651329  0.5269399947784237  0.8172830070765543  1.0000
  H   H59       1.0  0.40208731157946426  0.973463189371074  0.05869864463281256  1.0000
  H   H60       1.0  0.5979104986842501  0.4734634923185084  0.9412985833680096  1.0000
  H   H61       1.0  0.9395965859043756  0.4592358123470602  0.6103004972408925  1.0000
  H   H62       1.0  0.060401198520097  0.9592345260860852  0.3897018277824955  1.0000
  H   H63       1.0  0.8654702166574068  0.35151613139052523  0.5121700725448405  1.0000
  H   H64       1.0  0.1345294739077971  0.8515148133082492  0.48783284662765414  1.0000
  C   C1        1.0  0.71798429735923  0.4633725235478535  0.5520274276892535  1.0000
  C   C2        1.0  0.2820134945523662  0.963372386513569  0.4479734410018139  1.0000
  C   C3        1.0  0.48716210606374943  0.5234126390628902  0.4389750750110579  1.0000
  C   C4        1.0  0.5128371142081817  0.0234133646351182  0.5610229378333784  1.0000
  C   C5        1.0  0.3869053413374175  0.5077433695561808  0.3296718939044326  1.0000
  C   C6        1.0  0.6130917909860328  0.007743180653605498  0.6703285015800091  1.0000
  C   C7        1.0  0.45747870363440046  0.2923610521370322  0.3358773503028445  1.0000
  C   C8        1.0  0.5425198730533012  0.7923609889462213  0.6641224266941421  1.0000
  C   C9        1.0  0.5571593224904134  0.3160939779988751  0.44478841327254065  1.0000
  C   C10       1.0  0.44283928859227467  0.8160930191366234  0.5552113505043295  1.0000
  C   C11       1.0  0.1983004234253087  0.8591877363809672  0.1102890554028164  1.0000
  C   C12       1.0  0.8016992812404098  0.35918660500314553  0.889710951440861  1.0000
  C   C13       1.0  0.3325343104143315  0.852724533594213  0.20182268545101317  1.0000
  C   C14       1.0  0.6674664160133119  0.35272424075566267  0.7981775920647891  1.0000
  C   C15       1.0  0.5738891964892757  0.8083129994285158  0.26759816920662866  1.0000
  C   C16       1.0  0.4261104351900542  0.3083115389601048  0.7324011389629704  1.0000
  C   C17       1.0  0.702296611501481  0.7835609103993733  0.24151974713855404  1.0000
  C   C18       1.0  0.2977009213015834  0.28355741178661725  0.758479767689451  1.0000
  C   C19       1.0  0.6153570364959647  0.9311490374344016  0.09739723155163196  1.0000
  C   C20       1.0  0.38464277246259115  0.431149080483898  0.9026027352058321  1.0000
  C   C21       1.0  0.4891001410980209  0.9489907120581192  0.12845480720649496  1.0000
  C   C22       1.0  0.5108996944644346  0.4489918920347478  0.8715444225981627  1.0000
  C   C23       1.0  0.8552706609904988  0.4447197731942793  0.5363941797580978  1.0000
  C   C24       1.0  0.1447291661451473  0.9447203155872966  0.4636072334673429  1.0000
  Se  Se1       1.0  0.9259874493426493  0.17822438638388147  0.6762748982435764  1.0000
  Se  Se2       1.0  0.07400786779931678  0.6782250258714554  0.3237248681304834  1.0000
  Se  Se3       1.0  0.2047424785149161  0.18283299120770374  0.9768891153555685  1.0000
  Se  Se4       1.0  0.79525594018191  0.6828333216420645  0.023109995639842385  1.0000
  Se  Se5       1.0  0.2191559809660646  0.6074832515931019  0.6335408301679308  1.0000
  Se  Se6       1.0  0.7808454234033846  0.10748284416058597  0.36645766998956464  1.0000
  Se  Se7       1.0  0.879899153422592  0.9496050792418342  0.9092467069627332  1.0000
  Se  Se8       1.0  0.12010377865670559  0.44961314352526915  0.090751142672417  1.0000
  Se  Se9       1.0  0.22104711191834528  0.8995010106034014  0.8021643922180958  1.0000
  Se  Se10      1.0  0.7789536860284939  0.3994999384050999  0.19783222417204627  1.0000
  Se  Se11      1.0  0.8525032361712304  0.8231503870810927  0.5448763815708517  1.0000
  Se  Se12      1.0  0.147497443669387  0.32315253500150476  0.4551275474876277  1.0000
  Se  Se13      1.0  0.9632891344090736  0.5999052180395806  0.8043145725450032  1.0000
  Se  Se14      1.0  0.0367411238741155  0.09992387009484817  0.1956979529701783  1.0000
  N   N1        1.0  0.8738403026889828  0.5270174784541269  0.45772995395144284  1.0000
  N   N2        1.0  0.12615994946213496  0.0270176586445601  0.5422726860400929  1.0000
  N   N3        1.0  0.6029317375353571  0.44159303120976295  0.4561180753281562  1.0000
  N   N4        1.0  0.397068086558697  0.9415920209309049  0.5438818856118033  1.0000
  N   N5        1.0  0.3406067351681088  0.3792851718819819  0.3124770085574369  1.0000
  N   N6        1.0  0.6593929986265863  0.8792870583819262  0.687522987090162  1.0000
  N   N7        1.0  0.1696819470942543  0.7538370170835621  0.0399652483933295  1.0000
  N   N8        1.0  0.8303176041439999  0.2538367318410053  0.9600355441493208  1.0000
  N   N9        1.0  0.45697574395515517  0.8387870475005528  0.1749802802976816  1.0000
  N   N10       1.0  0.5430239318902466  0.33878653171868917  0.825019010896149  1.0000
  N   N11       1.0  0.7364385106011255  0.8902758824227914  0.1878738830938573  1.0000
  N   N12       1.0  0.2635602094835434  0.39027587674222275  0.8121243853322184  1.0000
