data_image0
_chemical_formula_structural       CoH8C6N8O4
_chemical_formula_sum              "Co1 H8 C6 N8 O4"
_cell_length_a       5.421521639573088
_cell_length_b       7.774871382232308
_cell_length_c       7.768098492041192
_cell_angle_alpha    120.09548101606318
_cell_angle_beta     101.26070574334365
_cell_angle_gamma    96.87707751384465

_space_group_name_H-M_alt    "P 1"
_space_group_IT_number       1

loop_
  _space_group_symop_operation_xyz
  'x, y, z'

loop_
  _atom_site_type_symbol
  _atom_site_label
  _atom_site_symmetry_multiplicity
  _atom_site_fract_x
  _atom_site_fract_y
  _atom_site_fract_z
  _atom_site_occupancy
  Co  Co1       1.0  4.3815303172105504e-06  6.115557695947802e-07  0.9999989509372038  1.0000
  H   H1        1.0  0.574779412739403  0.2976526925684339  0.7244394709366586  1.0000
  H   H2        1.0  0.4252055808613733  0.7023397015661387  0.27555646424436714  1.0000
  H   H3        1.0  0.7903308282613465  0.19404995443493783  0.4019301672554503  1.0000
  H   H4        1.0  0.209683355570057  0.8059603615049367  0.5980736304439344  1.0000
  H   H5        1.0  0.16633496127144548  0.3157818442751078  0.8972057906749665  1.0000
  H   H6        1.0  0.8336771578921899  0.6842209007982589  0.10279919094606521  1.0000
  H   H7        1.0  0.1592799778692751  0.5260269295570694  0.8838322304377895  1.0000
  H   H8        1.0  0.8407242322576066  0.47398146591645923  0.11617172775775211  1.0000
  C   C1        1.0  0.4876000036558707  0.8929305739051894  0.9840599178873286  1.0000
  C   C2        1.0  0.5124088282492352  0.10707339900690022  0.015938728508764693  1.0000
  C   C3        1.0  0.39965259180280555  0.2526281343859437  0.5998427004153937  1.0000
  C   C4        1.0  0.6003657892326331  0.7473858242982131  0.4001827995649732  1.0000
  C   C5        1.0  0.9962940446055059  0.19853799307545467  0.43239613276607236  1.0000
  C   C6        1.0  0.0036712663020991945  0.8014655795563996  0.5675996958278801  1.0000
  N   N1        1.0  0.12924740106101507  0.12833554408010875  0.2954279157582531  1.0000
  N   N2        1.0  0.8707522938598514  0.8716618841310573  0.7045636299027076  1.0000
  N   N3        1.0  0.3838453017236604  0.16155016776884418  0.40032088042240577  1.0000
  N   N4        1.0  0.6161465846411005  0.8384394532078687  0.5996721664255772  1.0000
  N   N5        1.0  0.16087018155736388  0.27765132865955877  0.6256074181383793  1.0000
  N   N6        1.0  0.8391375486666348  0.7223498910556286  0.3744051861049156  1.0000
  N   N7        1.0  0.08467193266581317  0.3688662798104402  0.8077885661624574  1.0000
  N   N8        1.0  0.9153296677993622  0.6311388780074408  0.1922095749683235  1.0000
  O   O1        1.0  0.2666577119314225  0.7924536312414855  0.9541155508746394  1.0000
  O   O2        1.0  0.7333322421235096  0.2075359285837165  0.04587846610528593  1.0000
  O   O3        1.0  0.30377686885193356  0.16833503945367306  0.009602549543807001  1.0000
  O   O4        1.0  0.6962028256187479  0.8316586007382083  0.9903919102399567  1.0000
