data_image0
_chemical_formula_structural       Zn16H44C112S8Br8Cl4O52
_chemical_formula_sum              "Zn16 H44 C112 S8 Br8 Cl4 O52"
_cell_length_a       18.545700410036513
_cell_length_b       19.718045326147475
_cell_length_c       32.753545551913454
_cell_angle_alpha    85.97450998117192
_cell_angle_beta     73.62934507917895
_cell_angle_gamma    62.07729351178116

_space_group_name_H-M_alt    "P 1"
_space_group_IT_number       1

loop_
  _space_group_symop_operation_xyz
  'x, y, z'

loop_
  _atom_site_type_symbol
  _atom_site_label
  _atom_site_symmetry_multiplicity
  _atom_site_fract_x
  _atom_site_fract_y
  _atom_site_fract_z
  _atom_site_occupancy
  Zn  Zn1       1.0  0.8729956291303295  0.554655938580204  0.518574498779479  1.0000
  Zn  Zn2       1.0  0.038686036377164584  0.48390328958113565  0.4386434515453387  1.0000
  Zn  Zn3       1.0  0.043849767697715  0.3984294367706127  0.5236178430966729  1.0000
  Zn  Zn4       1.0  0.0447412191938242  0.5623408965287736  0.5178632720121639  1.0000
  Zn  Zn5       1.0  0.625917352700597  0.19088187669697732  0.7324908990218616  1.0000
  Zn  Zn6       1.0  0.46424228565944503  0.34992565542690107  0.7253540349885412  1.0000
  Zn  Zn7       1.0  0.4560560453246651  0.26618634443388334  0.8126160007804584  1.0000
  Zn  Zn8       1.0  0.45451584431923214  0.1924348435943344  0.7286886138318278  1.0000
  Zn  Zn9       1.0  0.4620743626461064  0.7642873072918588  0.31278834986896686  1.0000
  Zn  Zn10      1.0  0.4536848381707728  0.6911382195378053  0.2316438555472615  1.0000
  Zn  Zn11      1.0  0.625734338936283  0.6935723010188255  0.2292646713046408  1.0000
  Zn  Zn12      1.0  0.4566027651525106  0.8513893829740837  0.22623109543243905  1.0000
  Zn  Zn13      1.0  0.03731570277570045  0.899018822834762  0.024089118369211293  1.0000
  Zn  Zn14      1.0  0.049414620082117715  0.05757966968671718  0.01893848538221479  1.0000
  Zn  Zn15      1.0  0.8760182180079213  0.05847084728465289  0.019705988479166974  1.0000
  Zn  Zn16      1.0  0.037660338091740186  0.9852572815860157  0.93735545834231  1.0000
  H   H1        1.0  0.8054910640196342  0.9640133346517031  0.6550765316718239  1.0000
  H   H2        1.0  0.31190400277264985  0.9748872041513722  0.4021226675557585  1.0000
  H   H3        1.0  0.811553196142988  0.24258669255657847  0.6540376440629813  1.0000
  H   H4        1.0  0.5455051558039868  0.48483488565748445  0.6200828989330702  1.0000
  H   H5        1.0  0.5511336716719059  0.5250738069728556  0.6654248902312075  1.0000
  H   H6        1.0  0.652030606490868  0.5685189092713898  0.6170858089015141  1.0000
  H   H7        1.0  0.6463482730039798  0.5283382218553001  0.5717791828300134  1.0000
  H   H8        1.0  0.29391285326600064  0.6031064201553207  0.29601147306001246  1.0000
  H   H9        1.0  0.3497312165831233  0.6730187569390155  0.4352630839102574  1.0000
  H   H10       1.0  0.25941044201799457  0.7614016866365034  0.4324921812955225  1.0000
  H   H11       1.0  0.16220455068967962  0.7113434651117743  0.4777224690204205  1.0000
  H   H12       1.0  0.25233990225648745  0.6230221981576207  0.4805620868459569  1.0000
  H   H13       1.0  0.8089495476086698  0.6022062418597683  0.2951734540932449  1.0000
  H   H14       1.0  0.5483898234211895  0.7616409604424632  0.4307282156770284  1.0000
  H   H15       1.0  0.542682605167535  0.6736308709854338  0.43331606047812693  1.0000
  H   H16       1.0  0.6432192570081128  0.6232356083535464  0.47937185475134186  1.0000
  H   H17       1.0  0.6490561995700191  0.711186317733734  0.4767271285256809  1.0000
  H   H18       1.0  0.3083309654968574  0.4567397180696062  0.646371682412173  1.0000
  H   H19       1.0  0.3284044871925643  0.1802013422966765  0.6296113873275784  1.0000
  H   H20       1.0  0.23773500046968368  0.2208881320938829  0.6750317699851961  1.0000
  H   H21       1.0  0.14213305175437807  0.27423122609636147  0.6263508280819676  1.0000
  H   H22       1.0  0.23296434497582647  0.2335746706964699  0.5810901896547589  1.0000
  H   H23       1.0  0.1884347485773291  0.6591649087457938  0.962842772810546  1.0000
  H   H24       1.0  0.6902745682943204  0.14731494936193457  0.955553647630161  1.0000
  H   H25       1.0  0.9544008884208138  0.07814365523967841  0.8164724594132193  1.0000
  H   H26       1.0  0.9495556118157678  0.9897094672280672  0.8190556016975774  1.0000
  H   H27       1.0  0.8477598082618201  0.039924300109539984  0.7736854278047145  1.0000
  H   H28       1.0  0.8525516664923317  0.1283297617362891  0.7711894302958979  1.0000
  H   H29       1.0  0.1921188455508229  0.052301853788520695  0.8449947373835441  1.0000
  H   H30       1.0  0.17153001670386914  0.2156140765151378  0.9752701486857515  1.0000
  H   H31       1.0  0.26252381619276827  0.1274726778805544  0.9774918810440237  1.0000
  H   H32       1.0  0.3575666617359304  0.1741269889418149  0.9264517540196944  1.0000
  H   H33       1.0  0.2665228945668901  0.2621674061413869  0.9243302947277169  1.0000
  H   H34       1.0  0.928160853502085  0.2835751552929864  0.09459421646895551  1.0000
  H   H35       1.0  0.19253080511098367  0.794490272708785  0.10306262751808501  1.0000
  H   H36       1.0  0.26153632370331076  0.0314238765922212  0.07471682353322248  1.0000
  H   H37       1.0  0.17054143513023937  0.0717608292452425  0.12001587070147217  1.0000
  H   H38       1.0  0.265640021629558  0.0189094597037212  0.1687120845283445  1.0000
  H   H39       1.0  0.3566835717694659  0.9786936871827764  0.12351832167440338  1.0000
  H   H40       1.0  0.6904822280156679  0.0064974737080874005  0.0962773022991641  1.0000
  H   H41       1.0  0.9500715119613972  0.7231245218540464  0.08526459775069382  1.0000
  H   H42       1.0  0.9547909861035961  0.7635015379987561  0.13085757369639586  1.0000
  H   H43       1.0  0.8529636606988827  0.7207264566274176  0.17860364431442124  1.0000
  H   H44       1.0  0.8485019163259152  0.6799465746416471  0.1331143591165898  1.0000
  C   C1        1.0  0.8627152369861549  0.5673467623278226  0.43048798701080665  1.0000
  C   C2        1.0  0.12484249221498091  0.31499932304524947  0.4388198558410038  1.0000
  C   C3        1.0  0.8656434282736282  0.4275681910958084  0.568413020902895  1.0000
  C   C4        1.0  0.13893815035407195  0.43508264765714694  0.5680769938152748  1.0000
  C   C5        1.0  0.8720826312921588  0.6843809155176855  0.5605141615856226  1.0000
  C   C6        1.0  0.1376796649742573  0.5688976704533742  0.43070727995041824  1.0000
  C   C7        1.0  0.6397405509317765  0.3174341076305822  0.6813881175625909  1.0000
  C   C8        1.0  0.37658013171999744  0.43510518392893255  0.8104091393980537  1.0000
  C   C9        1.0  0.6338895421475782  0.18190539058053895  0.8207144605715511  1.0000
  C   C10       1.0  0.3611064059785606  0.18072061168166437  0.8170427110863228  1.0000
  C   C11       1.0  0.6258438232110634  0.06534298655205359  0.6884042185962398  1.0000
  C   C12       1.0  0.363046295250797  0.3191159847956442  0.6805103405927467  1.0000
  C   C13       1.0  0.36282576066623307  0.6815116176883791  0.3201618696055206  1.0000
  C   C14       1.0  0.6236003376759739  0.5656982851075084  0.18861318589944892  1.0000
  C   C15       1.0  0.6374147111689722  0.6816923748714884  0.3187717493773902  1.0000
  C   C16       1.0  0.6343906506279213  0.8210657367087251  0.18035717719639874  1.0000
  C   C17       1.0  0.37532100316931144  0.9333436772153689  0.31219673538436865  1.0000
  C   C18       1.0  0.36134449161878013  0.8170606849002271  0.18115450416538442  1.0000
  C   C19       1.0  0.1381463460425254  0.9314893180861996  0.06855665754355297  1.0000
  C   C20       1.0  0.8805178615430835  0.184259963270982  0.06144003672385168  1.0000
  C   C21       1.0  0.8621103950470046  0.9311391878346524  0.06913942329380512  1.0000
  C   C22       1.0  0.8619754104715368  0.06932030599390518  0.9312682649547664  1.0000
  C   C23       1.0  0.12192792429868154  0.8152768847139528  0.9391317346747599  1.0000
  C   C24       1.0  0.1383936969454709  0.06857407935805779  0.930967308427135  1.0000
  C   C25       1.0  0.7338896534779167  0.8037085641896056  0.6010963835179696  1.0000
  C   C26       1.0  0.7616968701214903  0.9463580045406129  0.6491515147094729  1.0000
  C   C27       1.0  0.8216830788330611  0.7587529704915709  0.5857936934876093  1.0000
  C   C28       1.0  0.674244930639212  0.9903155227976581  0.663740203512141  1.0000
  C   C29       1.0  0.7836604273161643  0.8781996917811267  0.6261892960310078  1.0000
  C   C30       1.0  0.7121631194785251  0.8719299523837305  0.6240629618422273  1.0000
  C   C31       1.0  0.20236828930329412  0.2263189887508615  0.36921102532287603  1.0000
  C   C32       1.0  0.29891448118586783  0.021347389375485193  0.380842054543919  1.0000
  C   C33       1.0  0.1741654533998229  0.2410076347441219  0.41339626326195134  1.0000
  C   C34       1.0  0.3261659476283469  0.008267815472763099  0.33688681032946016  1.0000
  C   C35       1.0  0.2537112774830845  0.10101251378031857  0.3928158563496068  1.0000
  C   C36       1.0  0.24778010128232356  0.14642789338144976  0.3575248744460993  1.0000
  C   C37       1.0  0.6969881011145986  0.3453810106456102  0.65294025330909  1.0000
  C   C38       1.0  0.8118095024144838  0.39645655498522797  0.5974317769391317  1.0000
  C   C39       1.0  0.6672509834753698  0.4172684239476467  0.6362451709041251  1.0000
  C   C40       1.0  0.8414591049804583  0.3234127481403775  0.6149264346457953  1.0000
  C   C41       1.0  0.7231255073750803  0.4411260237177998  0.6095621760609687  1.0000
  C   C42       1.0  0.7857995271456701  0.29908649634213447  0.6415527343498437  1.0000
  C   C43       1.0  0.5887075517225357  0.49126231166861317  0.6346925525345097  1.0000
  C   C44       1.0  0.6518080049161199  0.5184910480574486  0.6044457312750424  1.0000
  C   C45       1.0  0.3060286572734797  0.6529845313925691  0.34838507651659956  1.0000
  C   C46       1.0  0.1943758340009865  0.5962381738208862  0.4010207711764763  1.0000
  C   C47       1.0  0.2799452691494936  0.6641567335210395  0.39272406242584157  1.0000
  C   C48       1.0  0.22132769621949688  0.5851586076168117  0.3557155855733923  1.0000
  C   C49       1.0  0.2261163632597274  0.636601998801126  0.41767648740707836  1.0000
  C   C50       1.0  0.2751750390207235  0.6126964227022711  0.33056647153809127  1.0000
  C   C51       1.0  0.2858118436752264  0.6984997826598374  0.43084843882581936  1.0000
  C   C52       1.0  0.22489107181425547  0.6672147440803897  0.45921508552677176  1.0000
  C   C53       1.0  0.6943928195119327  0.6528110152342563  0.3471222658756759  1.0000
  C   C54       1.0  0.8088814634696037  0.5951358987530924  0.4005105339804586  1.0000
  C   C55       1.0  0.664530023837905  0.6639318600513278  0.39146606422292507  1.0000
  C   C56       1.0  0.8387654937873635  0.5841745566355384  0.3551974535009633  1.0000
  C   C57       1.0  0.7202568869965019  0.6358965229093627  0.41679193387626867  1.0000
  C   C58       1.0  0.783145540602611  0.6121079459385539  0.32969317535134474  1.0000
  C   C59       1.0  0.5859228838159821  0.6987191070535417  0.42923751998175425  1.0000
  C   C60       1.0  0.6488757491581085  0.6671329993666288  0.45806408591180753  1.0000
  C   C61       1.0  0.30558687943880614  0.3486099053815934  0.652425856370506  1.0000
  C   C62       1.0  0.195634699415848  0.4091628185092162  0.5967204660545702  1.0000
  C   C63       1.0  0.27158535780227316  0.30671006385368565  0.6396618500163028  1.0000
  C   C64       1.0  0.23046978532322981  0.45151024672264833  0.6101110299010557  1.0000
  C   C65       1.0  0.2187847984099137  0.3364327592769313  0.6128443556692672  1.0000
  C   C66       1.0  0.2832847589038111  0.422092392986272  0.6369850651160931  1.0000
  C   C67       1.0  0.2673712290134702  0.23159442778720762  0.6428711748218133  1.0000
  C   C68       1.0  0.20757982238084333  0.264998593348416  0.6124817408526724  1.0000
  C   C69       1.0  0.2983523681677909  0.5839901479344434  0.8203367935682164  1.0000
  C   C70       1.0  0.2009867460345022  0.6682714208839187  0.9289913375867296  1.0000
  C   C71       1.0  0.3273231729532711  0.5102776528061312  0.8348126519288781  1.0000
  C   C72       1.0  0.17233651379341114  0.7408787729380037  0.913814338326382  1.0000
  C   C73       1.0  0.24702421812073536  0.6107655659828524  0.8949218951806868  1.0000
  C   C74       1.0  0.2523912927928933  0.6412563211201743  0.854621522898334  1.0000
  C   C75       1.0  0.804390796980755  0.09764357327119198  0.9031992255792146  1.0000
  C   C76       1.0  0.6882868425463115  0.15450027492095586  0.8505167327188727  1.0000
  C   C77       1.0  0.8334172549613966  0.0867202953543185  0.8588486048007695  1.0000
  C   C78       1.0  0.6593326509834868  0.16495151826307358  0.8958364986962193  1.0000
  C   C79       1.0  0.7769569282550748  0.11444122347781158  0.8338731192050799  1.0000
  C   C80       1.0  0.7155779099532183  0.13761805032826402  0.9210050288077055  1.0000
  C   C81       1.0  0.9115464115688569  0.0526048401444825  0.8207725102228025  1.0000
  C   C82       1.0  0.8478172720192703  0.08399369432900977  0.7923744025446239  1.0000
  C   C83       1.0  0.1950274524884108  0.09687597186965038  0.9022260702525241  1.0000
  C   C84       1.0  0.3040752012813144  0.15107583491788287  0.8442082994513526  1.0000
  C   C85       1.0  0.2285302461181971  0.13737305363492425  0.9168950924057241  1.0000
  C   C86       1.0  0.2694306468921256  0.1097874182016199  0.8295553192314029  1.0000
  C   C87       1.0  0.2808768728711115  0.16316356760346912  0.8886558343227049  1.0000
  C   C88       1.0  0.2170547123840549  0.0837327509513273  0.8576965140595332  1.0000
  C   C89       1.0  0.232628508342458  0.17022024692120397  0.9561075173650052  1.0000
  C   C90       1.0  0.292087942514982  0.199425682765721  0.9242066879007281  1.0000
  C   C91       1.0  0.6438272791786802  0.4466381976155488  0.1486662025415839  1.0000
  C   C92       1.0  0.8606382635914117  0.3021654420731679  0.1006901671095264  1.0000
  C   C93       1.0  0.6726177273739751  0.49121719734636565  0.16356056022065246  1.0000
  C   C94       1.0  0.8302796985064945  0.2589974224026079  0.08634337845317214  1.0000
  C   C95       1.0  0.792686434873147  0.3708832037018722  0.12348568177171867  1.0000
  C   C96       1.0  0.7123639990758901  0.3780712889365745  0.12583257656821445  1.0000
  C   C97       1.0  0.19496326689787938  0.9027085597311028  0.09691721346077027  1.0000
  C   C98       1.0  0.3044906154332951  0.8429672753863497  0.15269728099991645  1.0000
  C   C99       1.0  0.22824140546164537  0.9451395728255036  0.10983305321198594  1.0000
  C   C100      1.0  0.2702341299200697  0.8000924878245358  0.13928404842450698  1.0000
  C   C101      1.0  0.28079034878201986  0.9158142412548997  0.13674426763857642  1.0000
  C   C102      1.0  0.21744260586268643  0.8292949863372385  0.11239973411376515  1.0000
  C   C103      1.0  0.23178048611062252  0.020558194623681907  0.10680050645435556  1.0000
  C   C104      1.0  0.291367653268075  0.9875201798015927  0.1372965296444804  1.0000
  C   C105      1.0  0.804662137203877  0.903120136777744  0.09732961896654047  1.0000
  C   C106      1.0  0.6888009322922812  0.8522041978408907  0.1519362935120085  1.0000
  C   C107      1.0  0.8338293876166819  0.8311343166445653  0.11393235580793963  1.0000
  C   C108      1.0  0.6597168092670814  0.9254933962991245  0.13471180124000168  1.0000
  C   C109      1.0  0.777452785551354  0.8073925162701201  0.1402305747142236  1.0000
  C   C110      1.0  0.715863654428162  0.9497605199456842  0.10853338142545968  1.0000
  C   C111      1.0  0.9120011122157052  0.7571112167372008  0.1159091246571364  1.0000
  C   C112      1.0  0.8483475974862386  0.7301215080783551  0.14578922159243748  1.0000
  S   S1        1.0  0.8772084890673427  0.800130668875809  0.5996999107252207  1.0000
  S   S2        1.0  0.6181433559068311  0.9495893517308645  0.6499458358779859  1.0000
  S   S3        1.0  0.2034363306095628  0.15707955935803136  0.44031409035329  1.0000
  S   S4        1.0  0.2974772424606442  0.09178645142426228  0.3097797343648592  1.0000
  S   S5        1.0  0.2983647255798588  0.5115502481728313  0.8903091855831418  1.0000
  S   S6        1.0  0.20097142137426974  0.7401422408040617  0.8584178944435548  1.0000
  S   S7        1.0  0.7832922294583968  0.4490305350497863  0.14938605105038497  1.0000
  S   S8        1.0  0.7198670351242028  0.3009742059013121  0.1002306131506359  1.0000
  Br  Br1       1.0  0.9589655306062639  0.25050644568348457  0.6046196992725823  1.0000
  Br  Br2       1.0  0.18677693622823455  0.5338946970283516  0.3240407048871673  1.0000
  Br  Br3       1.0  0.9560844160492863  0.531236467937994  0.323878818253  1.0000
  Br  Br4       1.0  0.2104875789928684  0.5520078880465747  0.5930389354956062  1.0000
  Br  Br5       1.0  0.5420591796615922  0.21632983022927726  0.9275580622540858  1.0000
  Br  Br6       1.0  0.28856924064218964  0.0861200324831017  0.7707047175948032  1.0000
  Br  Br7       1.0  0.2903222627048549  0.6997210939650954  0.15636065043204175  1.0000
  Br  Br8       1.0  0.5424576948051866  0.9988095036384762  0.14477022011865864  1.0000
  Cl  Cl1       1.0  0.6581059982564456  0.7830801161675537  0.5942102097166567  1.0000
  Cl  Cl2       1.0  0.1872676543249484  0.2926387121281379  0.33186434888804667  1.0000
  Cl  Cl3       1.0  0.31312022486101654  0.6071619888071139  0.7684789919268409  1.0000
  Cl  Cl4       1.0  0.5406110046638161  0.46793312873987963  0.15546465647486937  1.0000
  O   O1        1.0  0.9982054547138547  0.500677500447523  0.5010462727619254  1.0000
  O   O2        1.0  0.8227905470031517  0.5817946959119027  0.47032281705451595  1.0000
  O   O3        1.0  0.10103354147253901  0.37538446083597415  0.41843192998693707  1.0000
  O   O4        1.0  0.9458698504853446  0.3862265884264743  0.558099754086413  1.0000
  O   O5        1.0  0.9428940150124846  0.5319291270716348  0.414614933325943  1.0000
  O   O6        1.0  0.824934576645752  0.4947058483287563  0.5562208001253807  1.0000
  O   O7        1.0  0.11004130127705031  0.31200583631289186  0.4794096619906441  1.0000
  O   O8        1.0  0.11826162061380073  0.38565089577024025  0.5590034601726613  1.0000
  O   O9        1.0  0.9529144566754368  0.6582658387679531  0.5505764166327649  1.0000
  O   O10       1.0  0.11571385669753206  0.5023322291163693  0.5550996048234322  1.0000
  O   O11       1.0  0.8321491414005635  0.6529531184023157  0.550853827648865  1.0000
  O   O12       1.0  0.11776812940724588  0.5250179581184111  0.41514626432118  1.0000
  O   O13       1.0  0.11404020883350087  0.5918507670372791  0.4701396622456  1.0000
  O   O14       1.0  0.5010044956796307  0.2495935058170887  0.749996806327644  1.0000
  O   O15       1.0  0.6744570344654263  0.25081902245490545  0.6950482142877377  1.0000
  O   O16       1.0  0.4000093964847763  0.4349752877817109  0.7699018282029754  1.0000
  O   O17       1.0  0.5537946682035013  0.22031629521834614  0.8362358547534895  1.0000
  O   O18       1.0  0.5601051040220284  0.3634589660289577  0.6895591586598753  1.0000
  O   O19       1.0  0.6741818465701003  0.16386456321089327  0.7810387516423771  1.0000
  O   O20       1.0  0.3913937288669447  0.3761667349022773  0.8324749469314481  1.0000
  O   O21       1.0  0.38012530837523434  0.2209190881210148  0.8369448785055479  1.0000
  O   O22       1.0  0.5448814931310152  0.09584286144587399  0.696505692321409  1.0000
  O   O23       1.0  0.38667690466881066  0.16392970401818013  0.7770759577408624  1.0000
  O   O24       1.0  0.6680706091049445  0.0931389264140208  0.6993460009325928  1.0000
  O   O25       1.0  0.38877488559994333  0.3637759998950898  0.6903518858281714  1.0000
  O   O26       1.0  0.381757442817431  0.25110520387908514  0.692218147875785  1.0000
  O   O27       1.0  0.5007724772396642  0.7503925508749913  0.2502481140763421  1.0000
  O   O28       1.0  0.38724785647720245  0.7185165893514807  0.33866176460819014  1.0000
  O   O29       1.0  0.5429167083286759  0.5940001088576919  0.20000822260885082  1.0000
  O   O30       1.0  0.6724252746918397  0.6679826631885248  0.27863715393802824  1.0000
  O   O31       1.0  0.38206982549385055  0.6667171994861009  0.28008885796329247  1.0000
  O   O32       1.0  0.5577982915676571  0.7179816256097382  0.3376211605201575  1.0000
  O   O33       1.0  0.6669477926407908  0.5953934142134613  0.19679897677913508  1.0000
  O   O34       1.0  0.6744490836092895  0.7530029357379603  0.1916734540925588  1.0000
  O   O35       1.0  0.39220179194330024  0.9352526634349091  0.2715984080384927  1.0000
  O   O36       1.0  0.5542424905643699  0.8632009412552577  0.19110320920894713  1.0000
  O   O37       1.0  0.3964913445848739  0.8736300937342775  0.333424095234612  1.0000
  O   O38       1.0  0.386916344234521  0.7487856929898484  0.19274968229883885  1.0000
  O   O39       1.0  0.3802259547744173  0.8669629303532316  0.19147661316527828  1.0000
  O   O40       1.0  0.0007450071980557647  0.9999923390147528  0.9999689033824449  1.0000
  O   O41       1.0  0.11197216147948555  0.8868146405136912  0.05919865050407938  1.0000
  O   O42       1.0  0.9613715621006876  0.15533700969415068  0.05154419569644375  1.0000
  O   O43       1.0  0.8273491489583193  0.9990213342437855  0.05695503966543206  1.0000
  O   O44       1.0  0.12056696439766805  0.998902628126991  0.05614018128255075  1.0000
  O   O45       1.0  0.9417032983301684  0.8842994854787631  0.05957399812633212  1.0000
  O   O46       1.0  0.8378969960405694  0.15512867874247857  0.051969662471975736  1.0000
  O   O47       1.0  0.8272181365276482  0.0849106069409089  0.9713487374400882  1.0000
  O   O48       1.0  0.10223938009035305  0.8752929055424017  0.9179096621245078  1.0000
  O   O49       1.0  0.9415636755101174  0.0316352183690398  0.9125302579574281  1.0000
  O   O50       1.0  0.10245411492992655  0.8132773739298216  0.9796509360279231  1.0000
  O   O51       1.0  0.1205943665450775  0.084088279185309  0.9708957291235549  1.0000
  O   O52       1.0  0.1125576499977328  0.031693980289851695  0.9134268797346434  1.0000
