data_image0
_chemical_formula_structural       Sr2H34C32N4O20
_chemical_formula_sum              "Sr2 H34 C32 N4 O20"
_cell_length_a       8.5834617236444
_cell_length_b       10.301921430557368
_cell_length_c       11.463203892101792
_cell_angle_alpha    87.35260706764623
_cell_angle_beta     88.87115179872463
_cell_angle_gamma    75.6699234540083

_space_group_name_H-M_alt    "P 1"
_space_group_IT_number       1

loop_
  _space_group_symop_operation_xyz
  'x, y, z'

loop_
  _atom_site_type_symbol
  _atom_site_label
  _atom_site_symmetry_multiplicity
  _atom_site_fract_x
  _atom_site_fract_y
  _atom_site_fract_z
  _atom_site_occupancy
  Sr  Sr1       1.0  0.30289946052759115  0.47594388719105046  0.9635932630923277  1.0000
  Sr  Sr2       1.0  0.6971060701280436  0.5240631801247063  0.036405580476873894  1.0000
  H   H1        1.0  0.4838446864685082  0.9582457432267263  0.7908358425348325  1.0000
  H   H2        1.0  0.5161504838233952  0.04176587187335912  0.209162292657652  1.0000
  H   H3        1.0  0.3793723162603939  0.6840677702305271  0.1601293965672923  1.0000
  H   H4        1.0  0.6206363920045561  0.3159302138521696  0.8398705454859581  1.0000
  H   H5        1.0  0.48553792327789586  0.5600453560847785  0.23091422302493914  1.0000
  H   H6        1.0  0.5144685285582823  0.4399459222743688  0.7690790501683651  1.0000
  H   H7        1.0  0.10561367347179373  0.40114607950155107  0.1685586959456344  1.0000
  H   H8        1.0  0.8943836608330143  0.5988596000935474  0.8314299849871672  1.0000
  H   H9        1.0  0.12876425937081135  0.7403214505555628  0.05750262773211289  1.0000
  H   H10       1.0  0.8712331850501015  0.2596850954281039  0.9424956176588211  1.0000
  H   H11       1.0  0.020895678618892105  0.6402234620475583  0.1059512376947751  1.0000
  H   H12       1.0  0.9791070505129299  0.35978076737798403  0.8940504143603718  1.0000
  H   H13       1.0  0.1780444130296672  0.18980792549415076  0.0603946081223086  1.0000
  H   H14       1.0  0.8219535069142342  0.8101907199160718  0.9396012881486585  1.0000
  H   H15       1.0  0.7638168890753292  0.2443354350577351  0.33629519477224074  1.0000
  H   H16       1.0  0.23618642569558543  0.7556617601829317  0.6637136726210642  1.0000
  H   H17       1.0  0.9572955500878776  0.22042763623353787  0.171062381507987  1.0000
  H   H18       1.0  0.042697096319273  0.7795751438438714  0.8289431320633157  1.0000
  H   H19       1.0  0.12273812484120586  0.7974103099853239  0.2600412162089327  1.0000
  H   H20       1.0  0.8772646640214818  0.20259389505967113  0.7399621801181269  1.0000
  H   H21       1.0  0.9291708340896179  0.8200212883911536  0.4226256556914905  1.0000
  H   H22       1.0  0.07083736829137167  0.17997963618495316  0.577378559929322  1.0000
  H   H23       1.0  0.6681872749857405  0.8669751583743736  0.4935996866748695  1.0000
  H   H24       1.0  0.33181113032232906  0.1330196435830615  0.5063849879782794  1.0000
  H   H25       1.0  0.6028969374649832  0.9821995608410392  0.607693636151275  1.0000
  H   H26       1.0  0.3970872815268862  0.01778609707727701  0.3922970515323101  1.0000
  H   H27       1.0  0.8115958560979238  0.8979221139518078  0.5951041992386834  1.0000
  H   H28       1.0  0.18839171134131052  0.1020652472821126  0.40489330249191363  1.0000
  H   H29       1.0  0.2666695171701363  0.5536260912650377  0.5099638353482092  1.0000
  H   H30       1.0  0.7333504460887353  0.44636921833668464  0.49004108269811303  1.0000
  H   H31       1.0  0.8654951934358833  0.443182972780754  0.6828113546502762  1.0000
  H   H32       1.0  0.13451752783322488  0.5568127980231098  0.3171894126479273  1.0000
  H   H33       1.0  0.288075452529398  0.3042454329666314  0.1855593269226929  1.0000
  H   H34       1.0  0.7119211276222972  0.6957641997937359  0.8144327264042985  1.0000
  C   C1        1.0  0.831801141797648  0.034190356379149  0.3894094300398478  1.0000
  C   C2        1.0  0.16820059326648354  0.9658079791932154  0.6105942104889124  1.0000
  C   C3        1.0  0.8441431049606862  0.14705808363252265  0.31927066899637413  1.0000
  C   C4        1.0  0.15585579920972498  0.8529423985102225  0.6807321112988234  1.0000
  C   C5        1.0  0.9529167581013667  0.1328624491187753  0.2269427564752462  1.0000
  C   C6        1.0  0.04708432175162611  0.8671388878983634  0.773060796941273  1.0000
  C   C7        1.0  0.05307560460232  0.006236597455028904  0.20221369385744478  1.0000
  C   C8        1.0  0.946914707449416  0.9937663038490286  0.797792761827047  1.0000
  C   C9        1.0  0.04278117604030027  0.8953083420827358  0.27520881398810093  1.0000
  C   C10       1.0  0.9572214331342296  0.10469096383358326  0.7247921461067577  1.0000
  C   C11       1.0  0.933726910203518  0.9080498071562318  0.3677893968502559  1.0000
  C   C12       1.0  0.06627812292274632  0.0919493409626142  0.6322132375392968  1.0000
  C   C13       1.0  0.1615232151967873  0.9882492306717484  0.10214213412734809  1.0000
  C   C14       1.0  0.8384680400418603  0.011753701446039603  0.8978573094808624  1.0000
  C   C15       1.0  0.32084635459617056  0.8972640758692735  0.9615377747186001  1.0000
  C   C16       1.0  0.6791510300938698  0.10274249449494022  0.0384587264004139  1.0000
  C   C17       1.0  0.3045470495540528  0.03578109493886933  0.9497349198190578  1.0000
  C   C18       1.0  0.695447097300267  0.9642296107686336  0.050261535127539496  1.0000
  C   C19       1.0  0.3742930903287842  0.12221443027763003  0.8696994444107203  1.0000
  C   C20       1.0  0.6257001520541648  0.8777903450058706  0.130301615417352  1.0000
  C   C21       1.0  0.42501375416610904  0.7888650282416594  0.8942890490853371  1.0000
  C   C22       1.0  0.5749804225536438  0.21114566527556633  0.10570827799720917  1.0000
  C   C23       1.0  0.700466126768319  0.9426737427936093  0.5466437867038181  1.0000
  C   C24       1.0  0.2995242123292954  0.05731646852080272  0.4533500344048775  1.0000
  C   C25       1.0  0.15010406617499678  0.5299855792979857  0.5045401899850219  1.0000
  C   C26       1.0  0.8499038869457891  0.47000641340934396  0.4954687176295067  1.0000
  C   C27       1.0  0.07477241568953016  0.49796038855631525  0.6077307184400524  1.0000
  C   C28       1.0  0.9252276098693742  0.502030106717875  0.3922758757617117  1.0000
  C   C29       1.0  0.9240546611053091  0.46814587564590243  0.6025482938957509  1.0000
  C   C30       1.0  0.07594524548736808  0.531849640659708  0.39745201517862944  1.0000
  C   C31       1.0  0.1544217805064463  0.4972711036103803  0.7227779585415064  1.0000
  C   C32       1.0  0.845580977995283  0.5027281413545667  0.2772273622331483  1.0000
  N   N1        1.0  0.2040130339675628  0.08971174279464118  0.0392695820176456  1.0000
  N   N2        1.0  0.7959811716265718  0.9102889939916707  0.9607342103679599  1.0000
  N   N3        1.0  0.23166918163188643  0.8697333316247152  0.0561156429671783  1.0000
  N   N4        1.0  0.7683283827463188  0.13027813786817433  0.9438832943840366  1.0000
  O   O1        1.0  0.7180785655484174  0.05633703798838502  0.47490019374737363  1.0000
  O   O2        1.0  0.2819186291167524  0.9436556038561933  0.525105540220828  1.0000
  O   O3        1.0  0.5072097242116484  0.8209581058833211  0.8077305911821782  1.0000
  O   O4        1.0  0.4927875914018713  0.17904940401110994  0.192270241579223  1.0000
  O   O5        1.0  0.467536755863236  0.0658946787215058  0.7844548671501599  1.0000
  O   O6        1.0  0.5324567950152784  0.9341140317798993  0.21554604153966037  1.0000
  O   O7        1.0  0.3462175869090061  0.24470074727271657  0.884573329645761  1.0000
  O   O8        1.0  0.6537800959398866  0.7553007289184351  0.11543468941638219  1.0000
  O   O9        1.0  0.43435625810386813  0.6685432016004358  0.9283911763036058  1.0000
  O   O10       1.0  0.5656493411327618  0.3314579539147859  0.0716061322067532  1.0000
  O   O11       1.0  0.07102169809152767  0.48594966949635704  0.8163580955245919  1.0000
  O   O12       1.0  0.9289823414625856  0.5140485570396366  0.1836437307550298  1.0000
  O   O13       1.0  0.2966045240197842  0.5105453719591184  0.7264121428697407  1.0000
  O   O14       1.0  0.703409686864255  0.4894443228135474  0.2735940314686829  1.0000
  O   O15       1.0  0.40074154345081336  0.586509873600214  0.17172513637695633  1.0000
  O   O16       1.0  0.599266896025192  0.4134882201949637  0.8282669564526658  1.0000
  O   O17       1.0  0.19997355866402697  0.3406049714093627  0.1302364058582555  1.0000
  O   O18       1.0  0.8000232398913809  0.6594036608694085  0.8697556765061449  1.0000
  O   O19       1.0  0.07858496920313478  0.6663156978708502  0.037317046934575195  1.0000
  O   O20       1.0  0.9214119781839402  0.3336879011862309  0.9626821926931584  1.0000
