data_image0
_chemical_formula_structural       Sm2H14C16N2O16
_chemical_formula_sum              "Sm2 H14 C16 N2 O16"
_cell_length_a       5.930349475466048
_cell_length_b       10.471406904190632
_cell_length_c       11.6039456964038
_cell_angle_alpha    112.62753107090387
_cell_angle_beta     103.61872379185506
_cell_angle_gamma    106.73032714340636

_space_group_name_H-M_alt    "P 1"
_space_group_IT_number       1

loop_
  _space_group_symop_operation_xyz
  'x, y, z'

loop_
  _atom_site_type_symbol
  _atom_site_label
  _atom_site_symmetry_multiplicity
  _atom_site_fract_x
  _atom_site_fract_y
  _atom_site_fract_z
  _atom_site_occupancy
  Sm  Sm1       1.0  0.14270915400556555  0.6798363113626067  0.4556394115149161  1.0000
  Sm  Sm2       1.0  0.8573025552163784  0.32018232345227193  0.5443612421936309  1.0000
  H   H1        1.0  0.35036577621002624  0.8329814947264683  0.9250353952117937  1.0000
  H   H2        1.0  0.6496566466445515  0.16702348418574786  0.07496836338966521  1.0000
  H   H3        1.0  0.8996165797685619  0.5822912555788234  0.018865621851254736  1.0000
  H   H4        1.0  0.10039829649964814  0.41770960203439234  0.9811429475414641  1.0000
  H   H5        1.0  0.5298052288543929  0.8537890258903571  0.1537287001773748  1.0000
  H   H6        1.0  0.4701816782720343  0.14620070723127304  0.8462707584897802  1.0000
  H   H7        1.0  0.7914491924663664  0.7130888549868858  0.23570011284877526  1.0000
  H   H8        1.0  0.20854136160318157  0.28689649876248075  0.7642846068159488  1.0000
  H   H9        1.0  0.7107810293865597  0.7563033171443294  0.3644779799864963  1.0000
  H   H10       1.0  0.2892143471038651  0.2436978678398631  0.6355129506224487  1.0000
  H   H11       1.0  0.8390032966814472  0.8110734553385511  0.6208010881196133  1.0000
  H   H12       1.0  0.16102332428325644  0.1889448860418526  0.3792322460740963  1.0000
  H   H13       1.0  0.8213613796540641  0.6578481327960687  0.6173015060902003  1.0000
  H   H14       1.0  0.17865550489756996  0.3421534717536828  0.3827023333751854  1.0000
  C   C1        1.0  0.47364170966891084  0.7768642640936534  0.942532729292026  1.0000
  C   C2        1.0  0.5263583189753476  0.2231269944338408  0.05746866685586845  1.0000
  C   C3        1.0  0.5328679011548233  0.6911467517007496  0.8373773160765483  1.0000
  C   C4        1.0  0.46712915979985337  0.30884239958223964  0.16262569812966635  1.0000
  C   C5        1.0  0.691020671666209  0.6198956360190878  0.8638176296318252  1.0000
  C   C6        1.0  0.30896874405498653  0.38009230478106554  0.13618588549458374  1.0000
  C   C7        1.0  0.7792998426374707  0.6374029102828586  0.9943254290581436  1.0000
  C   C8        1.0  0.22069777605913285  0.36258722974994123  0.005676220501570099  1.0000
  C   C9        1.0  0.41574664889461843  0.6788728889918616  0.7017086182417888  1.0000
  C   C10       1.0  0.5842676330031368  0.32113295012714366  0.298294486661483  1.0000
  C   C11       1.0  0.7619097801196375  0.5239708380495998  0.7579524382380286  1.0000
  C   C12       1.0  0.23807778339582344  0.4760169730056705  0.24204996565369202  1.0000
  C   C13       1.0  0.4279135209002903  0.03715395108157792  0.5398643091405264  1.0000
  C   C14       1.0  0.5720725284179694  0.9628716513664131  0.460121756559211  1.0000
  C   C15       1.0  0.5711689601355161  0.7877956570656509  0.06897840179549783  1.0000
  C   C16       1.0  0.4288148323618799  0.2121893036288185  0.9310166671235366  1.0000
  N   N1        1.0  0.7208093580823912  0.7186876200484135  0.09424204746567716  1.0000
  N   N2        1.0  0.27918545359031555  0.2813005613631391  0.9057630107585556  1.0000
  O   O1        1.0  0.5177139937606512  0.7850363795005749  0.6784026119211009  1.0000
  O   O2        1.0  0.4823287713164959  0.2149755282925838  0.321614172894087  1.0000
  O   O3        1.0  0.19934789414379858  0.5670373178822673  0.6172950353489527  1.0000
  O   O4        1.0  0.8006595208842312  0.4329855703802323  0.3827055631689974  1.0000
  O   O5        1.0  0.6801986608527741  0.5092179660583582  0.6382225479995116  1.0000
  O   O6        1.0  0.3197857905592158  0.49077866681518134  0.36178218391195566  1.0000
  O   O7        1.0  0.897896078818057  0.4579194012839237  0.7861603070730043  1.0000
  O   O8        1.0  0.10207663707345203  0.5420588106856243  0.21383492357389147  1.0000
  O   O9        1.0  0.8157167297078801  0.7084126192046583  0.3241414549341003  1.0000
  O   O10       1.0  0.18426356481051442  0.2915642123766915  0.6758481622892776  1.0000
  O   O11       1.0  0.9274544908726838  0.7445256438800102  0.6091104785850592  1.0000
  O   O12       1.0  0.07256798027422208  0.2554849110310329  0.39089497795176004  1.0000
  O   O13       1.0  0.2686028846480042  0.956835643823112  0.5664053517785349  1.0000
  O   O14       1.0  0.7313860794795064  0.04318695843895171  0.43356976615930887  1.0000
  O   O15       1.0  0.485573764661595  0.1771218828256522  0.5725372299082211  1.0000
  O   O16       1.0  0.5144265099945429  0.8228956762733901  0.42745317517984216  1.0000
