data_image0
_chemical_formula_structural       Zn2H22C30N2O8
_chemical_formula_sum              "Zn2 H22 C30 N2 O8"
_cell_length_a       9.007202194733296
_cell_length_b       13.976273289708924
_cell_length_c       15.355029649134222
_cell_angle_alpha    89.56625347953992
_cell_angle_beta     90.85875936742474
_cell_angle_gamma    79.57006651244319

_space_group_name_H-M_alt    "P 1"
_space_group_IT_number       1

loop_
  _space_group_symop_operation_xyz
  'x, y, z'

loop_
  _atom_site_type_symbol
  _atom_site_label
  _atom_site_symmetry_multiplicity
  _atom_site_fract_x
  _atom_site_fract_y
  _atom_site_fract_z
  _atom_site_occupancy
  Zn  Zn1       1.0  0.5146171154935786  0.39936516443393094  0.4989429318761936  1.0000
  Zn  Zn2       1.0  0.48997126353388876  0.6010651345584676  0.5013013733613932  1.0000
  H   H1        1.0  0.9758568035313933  0.6165186099759196  0.4954822947584533  1.0000
  H   H2        1.0  0.6109664835860047  0.0530184615385991  0.6264416750107316  1.0000
  H   H3        1.0  0.28081617846520857  0.7812495005015945  0.4382567000132554  1.0000
  H   H4        1.0  0.6168658066726495  0.23165317911360714  0.6200309123687051  1.0000
  H   H5        1.0  0.6972599643577055  0.7269048567905044  0.5629163022694357  1.0000
  H   H6        1.0  0.4058813688821419  0.2623908602063096  0.3782395116685394  1.0000
  H   H7        1.0  0.7126520786843143  0.9042477085555233  0.5654710126843909  1.0000
  H   H8        1.0  0.38973216172821895  0.08505514917359136  0.3731398067339598  1.0000
  H   H9        1.0  0.27520602896971263  0.6640036254170382  0.2753101150053681  1.0000
  H   H10       1.0  0.43543468090013715  0.7167388276464164  0.2585518061497467  1.0000
  H   H11       1.0  0.29149221326685654  0.7278801554205003  0.17576411918312831  1.0000
  H   H12       1.0  0.02767908861113  0.3924308609891796  0.5044843996149382  1.0000
  H   H13       1.0  0.4204321438789833  0.29457739837929603  0.7440839860261976  1.0000
  H   H14       1.0  0.2721783177579837  0.3265357870202407  0.8199643322095014  1.0000
  H   H15       1.0  0.27011928611431574  0.3899765124540053  0.7186271169161742  1.0000
  H   H16       1.0  0.6143237282547888  0.34887460478941523  0.0634057012948404  1.0000
  H   H17       1.0  0.623284922620883  0.6168191541260127  0.937360719460216  1.0000
  H   H18       1.0  0.6062575699764423  0.3528064467482109  0.22602604588443856  1.0000
  H   H19       1.0  0.61540603322603  0.6127484214316751  0.7747355091647634  1.0000
  H   H20       1.0  0.3879412241090208  0.6472590660426005  0.054701055733673315  1.0000
  H   H21       1.0  0.3767977620290851  0.3806674264102837  0.9443231132548818  1.0000
  H   H22       1.0  0.27686159223670614  0.9612155452562516  0.4340486719024242  1.0000
  C   C1        1.0  0.49835119418501256  0.49789247852487506  0.3291196965199107  1.0000
  C   C2        1.0  0.43999122968198623  0.11420556309413135  0.4297534315233733  1.0000
  C   C3        1.0  0.4951119545167231  0.9483948716786654  0.49995338345043905  1.0000
  C   C4        1.0  0.49980074428751203  0.053490337928281007  0.49972646393000997  1.0000
  C   C5        1.0  0.20602807553260766  0.5301616812204628  0.49772592127812504  1.0000
  C   C6        1.0  0.7974957492251706  0.47998302534207227  0.5029858357182846  1.0000
  C   C7        1.0  0.038639359418475294  0.5420893136972608  0.49846077901454333  1.0000
  C   C8        1.0  0.9651912129618551  0.46693860227021844  0.5025444045234196  1.0000
  C   C9        1.0  0.5627469568445848  0.4148717174342095  0.0968685643468348  1.0000
  C   C10       1.0  0.5678853084914907  0.5641990683293726  0.9035511490882301  1.0000
  C   C11       1.0  0.558833452563242  0.4171000184223742  0.1873015360435062  1.0000
  C   C12       1.0  0.5003137361716556  0.4935440409929298  0.6709940132751486  1.0000
  C   C13       1.0  0.5644043783267989  0.561561537136022  0.8130013701646919  1.0000
  C   C14       1.0  0.4954181672711116  0.5018084688509106  0.23158534774029965  1.0000
  C   C15       1.0  0.4966381977545567  0.49300095560159457  0.7685332690140498  1.0000
  C   C16       1.0  0.4325854039400739  0.5866888093646311  0.18368347638853072  1.0000
  C   C17       1.0  0.4273198387331049  0.42647794972157266  0.8157800699244435  1.0000
  C   C18       1.0  0.4389183693948129  0.5829129525153929  0.09267358418671992  1.0000
  C   C19       1.0  0.43277990583699494  0.43016924280777846  0.9068067887419817  1.0000
  C   C20       1.0  0.5026521851459976  0.4986156286342191  0.048153634142508416  1.0000
  C   C21       1.0  0.5023480044431495  0.4975307754072844  0.9518049688110539  1.0000
  C   C22       1.0  0.35421407628698637  0.6789940981152255  0.22536482222553644  1.0000
  C   C23       1.0  0.3731907798882402  0.9122404096888913  0.46293759008523244  1.0000
  C   C24       1.0  0.34280735176977123  0.35566075507797723  0.7724837445059053  1.0000
  C   C25       1.0  0.5654419811246355  0.0960566302676398  0.5694834031332976  1.0000
  C   C26       1.0  0.37383829753920844  0.8126581070081328  0.46509039386776163  1.0000
  C   C27       1.0  0.5691543418570788  0.1950012419257803  0.5668177378347395  1.0000
  C   C28       1.0  0.6066848267443562  0.7823112276312398  0.5362769352387389  1.0000
  C   C29       1.0  0.4487028863069185  0.21246765586960242  0.431573832395202  1.0000
  C   C30       1.0  0.6136223621919756  0.8807852252317827  0.5372838197880727  1.0000
  N   N1        1.0  0.4886183123823857  0.7489082224151031  0.5009569407167477  1.0000
  N   N2        1.0  0.5123508723073301  0.25202964390133786  0.4989330845980646  1.0000
  O   O1        1.0  0.49819326111730805  0.41529269173152966  0.3652152311164941  1.0000
  O   O2        1.0  0.48180616402251536  0.5764783350862287  0.6332966911262192  1.0000
  O   O3        1.0  0.5031137143923488  0.576626872489008  0.3694026673186245  1.0000
  O   O4        1.0  0.523426142264313  0.4114646191929694  0.6330165318515242  1.0000
  O   O5        1.0  0.28290189052622594  0.4445304638295368  0.5046384236593653  1.0000
  O   O6        1.0  0.7227731555487439  0.5659556754874089  0.5109449916894135  1.0000
  O   O7        1.0  0.25916734957464643  0.6087612468373035  0.49073041693478103  1.0000
  O   O8        1.0  0.742118537359218  0.4025630956881867  0.4950272253500786  1.0000
