data_image0
_chemical_formula_structural       Ag4P4H20C24O10
_chemical_formula_sum              "Ag4 P4 H20 C24 O10"
_cell_length_a       5.864497619555992
_cell_length_b       8.05695734012976
_cell_length_c       14.715713694916628
_cell_angle_alpha    76.98994387709381
_cell_angle_beta     90.24387141437138
_cell_angle_gamma    89.80087356506091

_space_group_name_H-M_alt    "P 1"
_space_group_IT_number       1

loop_
  _space_group_symop_operation_xyz
  'x, y, z'

loop_
  _atom_site_type_symbol
  _atom_site_label
  _atom_site_symmetry_multiplicity
  _atom_site_fract_x
  _atom_site_fract_y
  _atom_site_fract_z
  _atom_site_occupancy
  Ag  Ag1       1.0  0.4069051147435586  0.2854779880492799  0.9741332911980933  1.0000
  Ag  Ag2       1.0  0.5930783431274662  0.7145154052965665  0.025872791173917203  1.0000
  Ag  Ag3       1.0  0.14976473995048423  0.8254935610064182  0.09019327473085069  1.0000
  Ag  Ag4       1.0  0.8502249160153427  0.17452167367911642  0.9098006795691802  1.0000
  P   P1        1.0  0.6221794494229512  0.9515713444837747  0.17096879073975654  1.0000
  P   P2        1.0  0.37782256491736627  0.04842982138258382  0.8290335846308138  1.0000
  P   P3        1.0  0.8532359345865287  0.2947035191002456  0.1050829027379621  1.0000
  P   P4        1.0  0.1467610412923506  0.7052937909936362  0.8949206277102562  1.0000
  H   H1        1.0  0.830787456741568  0.7594179066536527  0.3424003385783577  1.0000
  H   H2        1.0  0.1692228154728923  0.240584694077434  0.6575943610739259  1.0000
  H   H3        1.0  0.7030391552525826  0.6982019781241606  0.5083214811551644  1.0000
  H   H4        1.0  0.2969814996122295  0.30179300402444653  0.49167544439458066  1.0000
  H   H5        1.0  0.3338546220179239  0.8132543818225103  0.5487607036729758  1.0000
  H   H6        1.0  0.6661661498479673  0.1867354828698852  0.4512381878072561  1.0000
  H   H7        1.0  0.0879362385280089  0.9870375602269521  0.42404159632950206  1.0000
  H   H8        1.0  0.9120643671622375  0.012945742398805698  0.575964262472482  1.0000
  H   H9        1.0  0.21619086507561755  0.0493845145954381  0.2590565671784262  1.0000
  H   H10       1.0  0.7837993579642769  0.9506064066128063  0.7409470657261041  1.0000
  H   H11       1.0  0.2927508156975592  0.4638674796033727  0.11348990053332389  1.0000
  H   H12       1.0  0.7072528318818739  0.5361387892248645  0.886511863623987  1.0000
  H   H13       1.0  0.47135862670535295  0.5900478259732509  0.23491851379235124  1.0000
  H   H14       1.0  0.5286364960519023  0.40995840412062995  0.765083285472393  1.0000
  H   H15       1.0  0.2688655298800455  0.5814938808481785  0.384502963133535  1.0000
  H   H16       1.0  0.731122755088137  0.41851359206195593  0.6154987131692096  1.0000
  H   H17       1.0  0.8920221253696353  0.43590020417864395  0.41340888159830064  1.0000
  H   H18       1.0  0.10796085979051641  0.5641123963088931  0.5865888072303421  1.0000
  H   H19       1.0  0.7135745812345035  0.310000604848945  0.2911892804233816  1.0000
  H   H20       1.0  0.2864169146281625  0.690008246323501  0.7088067838335946  1.0000
  C   C1        1.0  0.53228237942767  0.9088189998048083  0.2908332428791027  1.0000
  C   C2        1.0  0.46772119553156705  0.09118603970208031  0.7091659488487283  1.0000
  C   C3        1.0  0.6689737843414464  0.8094943685457426  0.3610149336284891  1.0000
  C   C4        1.0  0.3310435199899119  0.19050436391736272  0.6389849571671746  1.0000
  C   C5        1.0  0.5963193107264503  0.7740495312173084  0.45350021206068186  1.0000
  C   C6        1.0  0.4036910737825323  0.22594668937441048  0.5464959237006826  1.0000
  C   C7        1.0  0.387424263167361  0.8377863696489669  0.4761915828761119  1.0000
  C   C8        1.0  0.6125931893211883  0.16220343506727636  0.5238100461245168  1.0000
  C   C9        1.0  0.25080000869282054  0.9368722983410865  0.4064715738786404  1.0000
  C   C10       1.0  0.7492071875595628  0.06312253286773033  0.5935308547978408  1.0000
  C   C11       1.0  0.32259448877992003  0.972857530612544  0.3138267196656912  1.0000
  C   C12       1.0  0.6774160853503446  0.027134801844319212  0.6861739544556329  1.0000
  C   C13       1.0  0.9886745576655754  0.3837356907070912  0.19314680351283195  1.0000
  C   C14       1.0  0.011327437848521506  0.6162604244266702  0.8068534525720994  1.0000
  C   C15       1.0  0.20118574348183668  0.4633861588966966  0.1776105410756657  1.0000
  C   C16       1.0  0.7988162708584738  0.5366150069696619  0.822391834294905  1.0000
  C   C17       1.0  0.3023255720948868  0.5334588513468007  0.2467447012457384  1.0000
  C   C18       1.0  0.6976728926775949  0.4665474276026275  0.7532550413679644  1.0000
  C   C19       1.0  0.1904171054184332  0.5251697512790728  0.33126854591390753  1.0000
  C   C20       1.0  0.8095727439803397  0.4748365334183974  0.6687285083297994  1.0000
  C   C21       1.0  0.9791410898570945  0.44408913136825134  0.34720723843333456  1.0000
  C   C22       1.0  0.020847009301483907  0.5559171678235444  0.6527884610931454  1.0000
  C   C23       1.0  0.8782692040074167  0.3734533085398582  0.2786799101233086  1.0000
  C   C24       1.0  0.12172932397215422  0.6265516743646133  0.7213213452770475  1.0000
  O   O1        1.0  0.4173408484840735  0.013809903820394698  0.10878214126608302  1.0000
  O   O2        1.0  0.5826558848744199  0.9862014403559631  0.8912183659160393  1.0000
  O   O3        1.0  0.7576864152794371  0.8015993938542465  0.15150428119883233  1.0000
  O   O4        1.0  0.242303505844653  0.19840179562821458  0.8484933772366576  1.0000
  O   O5        1.0  0.8047299101521119  0.10289364001296523  0.16710206528989602  1.0000
  O   O6        1.0  0.1952789910647041  0.8971011989427216  0.8329003563651014  1.0000
  O   O7        1.0  0.014758615521493802  0.27922060591221515  0.02733470086383249  1.0000
  O   O8        1.0  0.9852297176392425  0.7207754583671575  0.9726649305236209  1.0000
  O   O9        1.0  0.6282241462604219  0.38481056375514566  0.0774094736671458  1.0000
  O   O10       1.0  0.3717697216053892  0.6151764625707727  0.9226000452930948  1.0000
