data_image0
_chemical_formula_structural       Co4H32C52N4O20
_chemical_formula_sum              "Co4 H32 C52 N4 O20"
_cell_length_a       12.366223909007587
_cell_length_b       12.374220504084661
_cell_length_c       13.600341177730098
_cell_angle_alpha    115.51210316672062
_cell_angle_beta     116.67847289691898
_cell_angle_gamma    91.84780143712759

_space_group_name_H-M_alt    "P 1"
_space_group_IT_number       1

loop_
  _space_group_symop_operation_xyz
  'x, y, z'

loop_
  _atom_site_type_symbol
  _atom_site_label
  _atom_site_symmetry_multiplicity
  _atom_site_fract_x
  _atom_site_fract_y
  _atom_site_fract_z
  _atom_site_occupancy
  Co  Co1       1.0  0.5546842621299248  0.3046998905215048  0.24983215503090855  1.0000
  Co  Co2       1.0  0.4453116796068101  0.6953107381294216  0.7501588074001048  1.0000
  Co  Co3       1.0  0.4999607861080122  0.9998696667313353  0.9999137422160798  1.0000
  Co  Co4       1.0  0.499952723014765  0.5000368292881205  0.5000803028505487  1.0000
  H   H1        1.0  0.8940971604266679  0.14182483209689417  0.15429536072456077  1.0000
  H   H2        1.0  0.11926121956744848  0.2615330357076359  0.26089563963830636  1.0000
  H   H3        1.0  0.12601313579108356  0.4587176387269379  0.6125647483194853  1.0000
  H   H4        1.0  0.8988721766697695  0.3440679060793315  0.5035400473824366  1.0000
  H   H5        1.0  0.2710380862980982  0.2050429285857831  0.010069276357960165  1.0000
  H   H6        1.0  0.04630147045025271  0.1511414323744233  0.9489225424261318  1.0000
  H   H7        1.0  0.13228234853105647  0.893794555788574  0.09371796096846198  1.0000
  H   H8        1.0  0.35266598461335263  0.9582727534199408  0.1447971838592466  1.0000
  H   H9        1.0  0.48802882940690034  0.7395639980159742  0.3459582353772034  1.0000
  H   H10       1.0  0.5010705692176388  0.8581466245028011  0.23935989700524377  1.0000
  H   H11       1.0  0.3462433782824378  0.5136847545663912  0.8875165012924882  1.0000
  H   H12       1.0  0.3405765101069206  0.39553557547922935  0.9964778771343885  1.0000
  H   H13       1.0  0.6952157519975087  0.2604800109886937  0.4896057481025195  1.0000
  H   H14       1.0  0.7023377761614427  0.09688527291386605  0.5506542778725744  1.0000
  H   H15       1.0  0.3002406529149297  0.038911796340322276  0.40665330982448467  1.0000
  H   H16       1.0  0.3137809924329389  0.2081567299381817  0.35569206432072775  1.0000
  H   H17       1.0  0.10591484418344523  0.8581663065078686  0.8457010173644831  1.0000
  H   H18       1.0  0.8807574495301012  0.7384853521897766  0.7391197907590623  1.0000
  H   H19       1.0  0.8739829374177505  0.5412980019627368  0.3874486363185808  1.0000
  H   H20       1.0  0.10113471729383136  0.6559198042069027  0.4964549211895528  1.0000
  H   H21       1.0  0.7289710216666163  0.7949364283320575  0.9899129445660573  1.0000
  H   H22       1.0  0.9536961192212631  0.8488695361128504  0.05106820527255711  1.0000
  H   H23       1.0  0.8677338131147112  0.10621130283065844  0.9063244121252152  1.0000
  H   H24       1.0  0.6473404039823831  0.04172626276903197  0.85520116228934  1.0000
  H   H25       1.0  0.5119601197453675  0.2604608605698785  0.654035282289662  1.0000
  H   H26       1.0  0.49894018865655454  0.14185656285789605  0.7606104428779544  1.0000
  H   H27       1.0  0.6537536936122877  0.4862849970685589  0.11246106161571129  1.0000
  H   H28       1.0  0.6594193086172382  0.6044755826750147  0.0035305580736348196  1.0000
  H   H29       1.0  0.3047795665759024  0.7395569691425761  0.5104201790198812  1.0000
  H   H30       1.0  0.29767734941462004  0.9031367139503744  0.44937158479829975  1.0000
  H   H31       1.0  0.6997265760275084  0.9610662231195947  0.593331865552244  1.0000
  H   H32       1.0  0.6862051071403812  0.7918490431081152  0.6443205508963955  1.0000
  C   C1        1.0  0.7444914028794258  0.17422191510544846  0.2534581146380645  1.0000
  C   C2        1.0  0.8834895510812402  0.2337152158657289  0.32234894492420807  1.0000
  C   C3        1.0  0.9467171320069809  0.2096765724781234  0.2549738111210046  1.0000
  C   C4        1.0  0.07169998412739174  0.27581094448795074  0.31452293679655696  1.0000
  C   C5        1.0  0.13653954388932726  0.36599382417491455  0.44393747215261203  1.0000
  C   C6        1.0  0.0746502875765458  0.3872468308837255  0.5125820738532595  1.0000
  C   C7        1.0  0.9490718234694028  0.3227711536118818  0.4520942596931262  1.0000
  C   C8        1.0  0.2682657599565701  0.4453604568431969  0.5087802135367453  1.0000
  C   C9        1.0  0.23206028642453452  0.13746744119212906  0.024820638192323906  1.0000
  C   C10       1.0  0.1089068522927333  0.1058263749966812  0.9936277799821339  1.0000
  C   C11       1.0  0.0654550249162256  0.017827867787495708  0.01732232824095801  1.0000
  C   C12       1.0  0.15637341325167836  0.9644640799445626  0.07393776090745503  1.0000
  C   C13       1.0  0.2792525368197972  0.998204612877352  0.1047315515949024  1.0000
  C   C14       1.0  0.4208095141382557  0.4909965380243762  0.24659965758299757  1.0000
  C   C15       1.0  0.4116632788644807  0.5610899205823046  0.1777973114719771  1.0000
  C   C16       1.0  0.4551804146412763  0.6915692566892134  0.24526559775124912  1.0000
  C   C17       1.0  0.46173625287772774  0.757039722613939  0.18573807402662362  1.0000
  C   C18       1.0  0.422386624859783  0.692666529137732  0.056283477302656586  1.0000
  C   C19       1.0  0.37489837149439625  0.5622501676353693  0.9875576125705122  1.0000
  C   C20       1.0  0.3709074841323527  0.49711494972947173  0.04802052770854457  1.0000
  C   C21       1.0  0.4367141280188561  0.7596346982123163  0.9914542987741795  1.0000
  C   C22       1.0  0.6128650119676776  0.20694430463318264  0.4750223066723222  1.0000
  C   C23       1.0  0.6123460985254638  0.11495752836007257  0.5061501507148662  1.0000
  C   C24       1.0  0.5005970021893873  0.04814208119870498  0.48268990910224113  1.0000
  C   C25       1.0  0.39071115627307057  0.08262701339366164  0.4263078043906957  1.0000
  C   C26       1.0  0.39376325195873096  0.17475144437011633  0.3956587759292843  1.0000
  C   C27       1.0  0.2555329859978385  0.8257255141411973  0.7464943078947498  1.0000
  C   C28       1.0  0.11653889911104191  0.7662736341660549  0.677642387391664  1.0000
  C   C29       1.0  0.05331770448087526  0.7903253411174944  0.7450333012423229  1.0000
  C   C30       1.0  0.9283290292869213  0.7242163058096339  0.6855019447019685  1.0000
  C   C31       1.0  0.8634803654816211  0.6340355345638501  0.5561006448461541  1.0000
  C   C32       1.0  0.9253567599507092  0.6127613495339617  0.4874328018554903  1.0000
  C   C33       1.0  0.05093536879732602  0.6772214422561476  0.5479010799558992  1.0000
  C   C34       1.0  0.731742042968861  0.5546950162102532  0.4912935306446682  1.0000
  C   C35       1.0  0.7679394899450146  0.8625064673929899  0.9751578150129204  1.0000
  C   C36       1.0  0.8910976153878991  0.8941713640681996  0.006369570553673016  1.0000
  C   C37       1.0  0.9345413598798586  0.9821758647952236  0.982685626473433  1.0000
  C   C38       1.0  0.8436281207978382  0.03553023556199261  0.926064963055225  1.0000
  C   C39       1.0  0.7207398694624557  0.0017783049773567063  0.8952499277711323  1.0000
  C   C40       1.0  0.5792044663856615  0.5090901420771345  0.7534566201323114  1.0000
  C   C41       1.0  0.5883470379585275  0.43895125925238426  0.8222166843515024  1.0000
  C   C42       1.0  0.5448148516541523  0.30846177885361936  0.7547250127400956  1.0000
  C   C43       1.0  0.5382550887807512  0.24296688499036634  0.8142260583824522  1.0000
  C   C44       1.0  0.5776116350247804  0.3073069811169304  0.9436694031538548  1.0000
  C   C45       1.0  0.6250967577583282  0.43773336192182205  0.012421018007621932  1.0000
  C   C46       1.0  0.629087999291812  0.502897145705134  0.9519829621703051  1.0000
  C   C47       1.0  0.5632729276394173  0.24028090889524376  0.008456048222619451  1.0000
  C   C48       1.0  0.3871256390129788  0.7930810834781284  0.5250071507943872  1.0000
  C   C49       1.0  0.387653129039137  0.8850615991200925  0.4938719638984778  1.0000
  C   C50       1.0  0.49939382207924154  0.9518588932251575  0.51730879641687  1.0000
  C   C51       1.0  0.6092696135502962  0.9173707808358317  0.5737021882303636  1.0000
  C   C52       1.0  0.6062321961009259  0.8252645219269679  0.604377134864613  1.0000
  N   N1        1.0  0.3163349665778555  0.0855695136203138  0.08218053412689127  1.0000
  N   N2        1.0  0.5036863502575814  0.23415504487829253  0.41802313092813387  1.0000
  N   N3        1.0  0.6836465711483226  0.9143863445791919  0.9177749577430557  1.0000
  N   N4        1.0  0.49629941080119977  0.7658669781466542  0.5820190204236652  1.0000
  O   O1        1.0  0.6885069849991936  0.2247277190463635  0.3141953880834976  1.0000
  O   O2        1.0  0.6914545471899274  0.08329216718486525  0.14081847902950528  1.0000
  O   O3        1.0  0.3171939353819084  0.5256727442432235  0.6254000708110395  1.0000
  O   O4        1.0  0.3194340338731577  0.426499923646375  0.44153421938040777  1.0000
  O   O5        1.0  0.43622022320069936  0.11860267555705661  0.1151647346624998  1.0000
  O   O6        1.0  0.4103858154582197  0.3742975357231444  0.18586812816111828  1.0000
  O   O7        1.0  0.44259725135898276  0.5506386053937007  0.3593166257040466  1.0000
  O   O8        1.0  0.40035707242327595  0.6919870919434387  0.8747917913239788  1.0000
  O   O9        1.0  0.48495491588165884  0.877930623963799  0.05861274425905817  1.0000
  O   O10       1.0  0.5037526406838637  0.3209467500128581  0.3849884438366046  1.0000
  O   O11       1.0  0.3115172117186589  0.7752146207299546  0.685767872425373  1.0000
  O   O12       1.0  0.3085771981258816  0.9166325333418966  0.8591371701307934  1.0000
  O   O13       1.0  0.682844310333337  0.47437272235021055  0.3746684788581333  1.0000
  O   O14       1.0  0.6805477092008375  0.5735859817555209  0.5585345651036349  1.0000
  O   O15       1.0  0.5637367515304136  0.8812871457194261  0.884732097752284  1.0000
  O   O16       1.0  0.5896110384548834  0.6257655429967172  0.8141671284154623  1.0000
  O   O17       1.0  0.5573959379947553  0.44945209240280076  0.6407348696145688  1.0000
  O   O18       1.0  0.5996270584113219  0.3079573433872583  0.1251272150301048  1.0000
  O   O19       1.0  0.5150798233879429  0.12196706441383748  0.9413047230788294  1.0000
  O   O20       1.0  0.4962147305518556  0.6791008973062701  0.6150951403232765  1.0000
