data_image0
_chemical_formula_structural       Zn4H50C53N4O23
_chemical_formula_sum              "Zn4 H50 C53 N4 O23"
_cell_length_a       10.754433936205254
_cell_length_b       19.169034385446288
_cell_length_c       19.222427177492126
_cell_angle_alpha    94.3834535922042
_cell_angle_beta     92.48683665930177
_cell_angle_gamma    97.21313959022898

_space_group_name_H-M_alt    "P 1"
_space_group_IT_number       1

loop_
  _space_group_symop_operation_xyz
  'x, y, z'

loop_
  _atom_site_type_symbol
  _atom_site_label
  _atom_site_symmetry_multiplicity
  _atom_site_fract_x
  _atom_site_fract_y
  _atom_site_fract_z
  _atom_site_occupancy
  Zn  Zn1       1.0  0.39899372162497565  0.4346989333816537  0.4318097871805405  1.0000
  Zn  Zn2       1.0  0.6156564174646845  0.5624668839428041  0.4501699866714759  1.0000
  Zn  Zn3       1.0  0.5937200543569077  0.44654394163300287  0.564288062359303  1.0000
  Zn  Zn4       1.0  0.3999918308200137  0.5571750180646192  0.5594237469626862  1.0000
  H   H1        1.0  0.3844740530863504  0.40648847308674624  0.21231509895378048  1.0000
  H   H2        1.0  0.8916384602840564  0.47180012474296285  0.39158242013011346  1.0000
  H   H3        1.0  0.5999644822036458  0.28610223867848117  0.35608026427877343  1.0000
  H   H4        1.0  0.76376473576466  0.28811567623247925  0.3455690916093985  1.0000
  H   H5        1.0  0.6618012661022233  0.20743518542116857  0.3285782457409852  1.0000
  H   H6        1.0  0.7229690135866563  0.2901843615755198  0.4729087907645848  1.0000
  H   H7        1.0  0.7822972064864898  0.2120060318166352  0.4448232299645767  1.0000
  H   H8        1.0  0.1600327421855354  0.35635483335162393  0.8392515660506843  1.0000
  H   H9        1.0  0.23811985982295172  0.3520221940597566  0.9217695359093838  1.0000
  H   H10       1.0  0.07911171854150471  0.36918423103723813  0.916956998597243  1.0000
  H   H11       1.0  0.2253949998269249  0.47961640033079095  0.9529346606826152  1.0000
  H   H12       1.0  0.3880544547463387  0.4143676840502268  0.0820675973106546  1.0000
  H   H13       1.0  0.14480338506521662  0.48673295101816205  0.8725805385362904  1.0000
  H   H14       1.0  0.1442994149107975  0.3880164819054316  0.661558303503277  1.0000
  H   H15       1.0  0.3097929067031941  0.3946756541177621  0.6641465843758212  1.0000
  H   H16       1.0  0.22698255890736618  0.35055300727340477  0.7285174658057227  1.0000
  H   H17       1.0  0.14930032732220871  0.4642041949257278  0.7724393545633603  1.0000
  H   H18       1.0  0.23338588598295468  0.5093611429348287  0.7094659223383033  1.0000
  H   H19       1.0  0.7896295016833506  0.45765579337422946  0.9794501989165739  1.0000
  H   H20       1.0  0.7037624733733381  0.6989230095832825  0.1952203402708079  1.0000
  H   H21       1.0  0.825821281212363  0.6447306797501612  0.1878203428696921  1.0000
  H   H22       1.0  0.8149370491226832  0.7121703005423543  0.13043168552125908  1.0000
  H   H23       1.0  0.652516243947069  0.5932020992142243  0.24392248790199741  1.0000
  H   H24       1.0  0.7348735170748028  0.5980503806666065  0.0653178725295973  1.0000
  H   H25       1.0  0.6144439961091877  0.649680602408431  0.07485479915231252  1.0000
  H   H26       1.0  0.7411024088987122  0.4311047612055179  0.731559740588736  1.0000
  H   H27       1.0  0.8783178329943765  0.4933737224162372  0.7491358840705544  1.0000
  H   H28       1.0  0.8068755163959339  0.4498151431671077  0.8184037667656482  1.0000
  H   H29       1.0  0.6910305432225454  0.5557425108059775  0.7301850298340469  1.0000
  H   H30       1.0  0.7574529839433239  0.5756712417097635  0.8156748008639596  1.0000
  H   H31       1.0  0.12660476912716231  0.7540801649603001  0.433199145659799  1.0000
  H   H32       1.0  0.1336912065763798  0.07961937908402925  0.4203843174248973  1.0000
  H   H33       1.0  0.2174585258682242  0.005544639089620802  0.42439883270692036  1.0000
  H   H34       1.0  0.029283071965117796  0.5462451233397162  0.5676967846642427  1.0000
  H   H35       1.0  0.07663787793989478  0.007589158804258003  0.4691583387843323  1.0000
  H   H36       1.0  0.2626730785482252  0.035008099424096904  0.55306297015035  1.0000
  H   H37       1.0  0.18006606592932428  0.10892065723658823  0.5503216538286891  1.0000
  H   H38       1.0  0.09228464457830651  0.24183132667416632  0.4968133089268036  1.0000
  H   H39       1.0  0.9048684327820098  0.7568173967714673  0.5431156758705811  1.0000
  H   H40       1.0  0.8502672125143818  0.07465721951502499  0.4547514598679641  1.0000
  H   H41       1.0  0.6765478541535258  0.986937974690193  0.6371743653573176  1.0000
  H   H42       1.0  0.7416560995092354  0.9112296042881883  0.662565739771459  1.0000
  H   H43       1.0  0.8420648602528972  0.9897032281458994  0.6490786601707228  1.0000
  H   H44       1.0  0.8449116507605298  0.903633903428052  0.5451625507067774  1.0000
  H   H45       1.0  0.3462563445306374  0.8961100762649896  0.46288898596262135  1.0000
  H   H46       1.0  0.7719573825140671  0.9774959072786304  0.5222706512447886  1.0000
  H   H47       1.0  0.08199862273574611  0.43428669388757163  0.33053848191573815  1.0000
  H   H48       1.0  0.06449432846669373  0.35593740914783484  0.3739693071113024  1.0000
  H   H49       1.0  0.9416747240232579  0.374457010303452  0.3159271664392164  1.0000
  H   H50       1.0  0.8849544334048716  0.39658688639693923  0.4381938970951396  1.0000
  C   C1        1.0  0.5132931467343341  0.6885688401464877  0.5079613741773912  1.0000
  C   C2        1.0  0.5195820372728405  0.7672738257016152  0.5068058638000323  1.0000
  C   C3        1.0  0.6333346358696234  0.8097058901948203  0.5274295625724221  1.0000
  C   C4        1.0  0.49156559660035276  0.31086456649035205  0.4868574107735526  1.0000
  C   C5        1.0  0.6453579129915638  0.8835556885090412  0.5256441562441623  1.0000
  C   C6        1.0  0.469144483811327  0.4979561133993829  0.767064690644993  1.0000
  C   C7        1.0  0.5807560891936846  0.5110797535728369  0.8100400338748983  1.0000
  C   C8        1.0  0.5709953369791521  0.503982865858454  0.8816834363285366  1.0000
  C   C9        1.0  0.45164788031156894  0.48736842896681776  0.9088597646895522  1.0000
  C   C10       1.0  0.3403245032376816  0.475544376286358  0.8653178137867882  1.0000
  C   C11       1.0  0.3493441229840926  0.48020114838677613  0.7929464218350475  1.0000
  C   C12       1.0  0.5867283115658067  0.19823824666745085  0.4658707013521024  1.0000
  C   C13       1.0  0.444175952002972  0.4534560896273734  0.1185551829426501  1.0000
  C   C14       1.0  0.4427682048147971  0.4489823050565392  0.1901097805351668  1.0000
  C   C15       1.0  0.5199955456458341  0.5090729340149666  0.09130109609496628  1.0000
  C   C16       1.0  0.5176773459365264  0.4966970650644386  0.3120103622193966  1.0000
  C   C17       1.0  0.5186503792101291  0.49993935744306134  0.2349318748609193  1.0000
  C   C18       1.0  0.5952365037841432  0.5547570099036675  0.20743447255150466  1.0000
  C   C19       1.0  0.5977856671003322  0.5608359911148426  0.1356681949778533  1.0000
  C   C20       1.0  0.4806456417063599  0.5010276159037731  0.6898081653394285  1.0000
  C   C21       1.0  0.8352979368880611  0.5167689405107866  0.5224243769794867  1.0000
  C   C22       1.0  0.16859346453379226  0.4831139029757026  0.48466075923190033  1.0000
  C   C23       1.0  0.5765894533294258  0.12473740840439972  0.4674113157320363  1.0000
  C   C24       1.0  0.029082019790273316  0.4793049569802435  0.4748159606892628  1.0000
  C   C25       1.0  0.9733776052545124  0.516471902655347  0.5239744254899179  1.0000
  C   C26       1.0  0.48229611171813497  0.23174679509380527  0.4847570433357333  1.0000
  C   C27       1.0  0.9510393277456756  0.43589796643872364  0.41484817651272715  1.0000
  C   C28       1.0  0.014327867376565025  0.3980641088968327  0.3558113505828331  1.0000
  C   C29       1.0  0.7007824850097322  0.24065192767744056  0.4395307241547712  1.0000
  C   C30       1.0  0.680140272211304  0.2565103070965975  0.36291943367893253  1.0000
  C   C31       1.0  0.2156719702005035  0.45903810559598696  0.8979246247420535  1.0000
  C   C32       1.0  0.1704042172290485  0.37953044455982626  0.8935689763252768  1.0000
  C   C33       1.0  0.2344897512607531  0.4654989519369014  0.7430013987433739  1.0000
  C   C34       1.0  0.4644865478727738  0.08642307620927171  0.4876066554479124  1.0000
  C   C35       1.0  0.2288965017515352  0.3959786885412911  0.6968132727537864  1.0000
  C   C36       1.0  0.6887571219936249  0.5116794367901891  0.9278959884011684  1.0000
  C   C37       1.0  0.6771290296346635  0.6205200565403218  0.10507661577343438  1.0000
  C   C38       1.0  0.759629283484017  0.6717114810950877  0.157779871139418  1.0000
  C   C39       1.0  0.7063970792071146  0.5330349405703603  0.7801333606095467  1.0000
  C   C40       1.0  0.7877789470011365  0.4731429212623583  0.7692272599365495  1.0000
  C   C41       1.0  0.29926621336580445  0.752626566620464  0.4540853077459914  1.0000
  C   C42       1.0  0.23775383923205598  0.0757913026840953  0.519897326132856  1.0000
  C   C43       1.0  0.16154102485511151  0.04014977304808551  0.45441466686971665  1.0000
  C   C44       1.0  0.2627137040508387  0.23469147959031744  0.5177032391813796  1.0000
  C   C45       1.0  0.3568395890868814  0.11967019298398181  0.5016702447133099  1.0000
  C   C46       1.0  0.7378281569316698  0.7726907916694972  0.5552938457001843  1.0000
  C   C47       1.0  0.6801865407666199  0.08691097160323841  0.43892757293155427  1.0000
  C   C48       1.0  0.7623795547222515  0.9310587057402561  0.5524961951477111  1.0000
  C   C49       1.0  0.7551504178751144  0.9560415117126343  0.6300477304239037  1.0000
  C   C50       1.0  0.3677763339200127  0.1932292846176581  0.4996864262679352  1.0000
  C   C51       1.0  0.4251453792681801  0.8710742565163585  0.4817821929621289  1.0000
  C   C52       1.0  0.4151190848024129  0.7981391920902897  0.4831688416979746  1.0000
  C   C53       1.0  0.5383280204755039  0.913400977540619  0.502694649782299  1.0000
  N   N1        1.0  0.45061690904389445  0.013585683670939406  0.49447752574782566  1.0000
  N   N2        1.0  0.5525213579451531  0.9873183586190072  0.5000187847030801  1.0000
  N   N3        1.0  0.4363639119372351  0.48289324459170785  0.9806552767251874  1.0000
  N   N4        1.0  0.526494800321835  0.5159891374476759  0.019261511707014716  1.0000
  O   O1        1.0  0.5018189660675318  0.49991083286905563  0.5014098103922606  1.0000
  O   O2        1.0  0.7906785333867816  0.5578589929715819  0.48170788419877647  1.0000
  O   O3        1.0  0.22319071034606708  0.5284556836232072  0.5319988862536178  1.0000
  O   O4        1.0  0.7754209829863113  0.4754989644934185  0.5618614747475732  1.0000
  O   O5        1.0  0.22203593162863208  0.4406315342061052  0.44539320841678887  1.0000
  O   O6        1.0  0.7650069759675802  0.5647792929643742  0.9383147585237522  1.0000
  O   O7        1.0  0.7109691802210634  0.44804344322849937  0.9506571182038001  1.0000
  O   O8        1.0  0.29510833386768814  0.6918785423139158  0.4289116600366398  1.0000
  O   O9        1.0  0.19545594011466244  0.7870406662432003  0.45664022376379876  1.0000
  O   O10       1.0  0.2736579024311112  0.28643805357479124  0.5597186794248046  1.0000
  O   O11       1.0  0.15240598703003633  0.21015763238069954  0.48125978522985957  1.0000
  O   O12       1.0  0.4342887450760813  0.452005407166084  0.3351521156970492  1.0000
  O   O13       1.0  0.7277426680810919  0.7350586474995142  0.6036505937274582  1.0000
  O   O14       1.0  0.8453195669358564  0.7840017915556673  0.5205669957278971  1.0000
  O   O15       1.0  0.6738936140220629  0.056242264345108615  0.3806230661424053  1.0000
  O   O16       1.0  0.7876561604349276  0.09720084625914181  0.4810342699396202  1.0000
  O   O17       1.0  0.4272846693700457  0.5471463081533302  0.6598536847209715  1.0000
  O   O18       1.0  0.5862200613988762  0.6608841305477001  0.46675949526506605  1.0000
  O   O19       1.0  0.5671575651043952  0.3450476924117112  0.5336835866225513  1.0000
  O   O20       1.0  0.4406690915626044  0.6588994241006179  0.5500618731607076  1.0000
  O   O21       1.0  0.42456987558225723  0.335531989046956  0.4409430860869534  1.0000
  O   O22       1.0  0.600357858006582  0.5389884944896227  0.3493356471701716  1.0000
  O   O23       1.0  0.543813445860401  0.45604788948105585  0.6604038752812116  1.0000
