data_image0
_chemical_formula_structural       Cd2H60C66N8O14
_chemical_formula_sum              "Cd2 H60 C66 N8 O14"
_cell_length_a       11.088643041308352
_cell_length_b       11.603026626421466
_cell_length_c       13.069314680391036
_cell_angle_alpha    70.94358809180349
_cell_angle_beta     87.21484135436219
_cell_angle_gamma    69.49002805059037

_space_group_name_H-M_alt    "P 1"
_space_group_IT_number       1

loop_
  _space_group_symop_operation_xyz
  'x, y, z'

loop_
  _atom_site_type_symbol
  _atom_site_label
  _atom_site_symmetry_multiplicity
  _atom_site_fract_x
  _atom_site_fract_y
  _atom_site_fract_z
  _atom_site_occupancy
  Cd  Cd1       1.0  0.4859890237387886  0.2082714051850091  0.14095354832466  1.0000
  Cd  Cd2       1.0  0.5140100721598057  0.7917292256760152  0.859046829625342  1.0000
  H   H1        1.0  0.7707788740225109  0.4218649806179187  0.870425853922569  1.0000
  H   H2        1.0  0.22922022187609054  0.5781356502431052  0.12957452402743286  1.0000
  H   H3        1.0  0.18868608436103776  0.0660114801552396  0.6852585421379445  1.0000
  H   H4        1.0  0.8113160600569956  0.9339881687733538  0.31474122319535514  1.0000
  H   H5        1.0  0.595135774862875  0.39242263101337477  0.06024614064367029  1.0000
  H   H6        1.0  0.4048636577830462  0.607577026808585  0.9397537387434339  1.0000
  H   H7        1.0  0.4619428087383424  0.4716787796622767  0.09984775762831086  1.0000
  H   H8        1.0  0.5380566239075718  0.5283208781596755  0.9001521217587937  1.0000
  H   H9        1.0  0.6183557230369557  0.13794538493527145  0.8201503175517004  1.0000
  H   H10       1.0  0.3816446135329983  0.8620542699222328  0.17984952381746663  1.0000
  H   H11       1.0  0.9253740006326294  0.264590817684102  0.4821315135780252  1.0000
  H   H12       1.0  0.07462475330602544  0.7354107902680413  0.5178678316797656  1.0000
  H   H13       1.0  0.8537143049584158  0.13250319101782543  0.4053631988731467  1.0000
  H   H14       1.0  0.14628568965159852  0.8674974409307911  0.5946356098038094  1.0000
  H   H15       1.0  0.6973683773691091  0.028253020955503402  0.4967740141522866  1.0000
  H   H16       1.0  0.3026310526704987  0.9717466388924765  0.5032250996072704  1.0000
  H   H17       1.0  0.6204870481130198  0.05214402798085161  0.6748865208404311  1.0000
  H   H18       1.0  0.37951294649699435  0.9478566039677574  0.325112287836525  1.0000
  H   H19       1.0  0.9476802056445308  0.3924357136620388  0.532100808654846  1.0000
  H   H20       1.0  0.05232047549169023  0.6075629620783333  0.4679008310340862  1.0000
  H   H21       1.0  0.8761819426132502  0.5036453900669644  0.6008764471369687  1.0000
  H   H22       1.0  0.12381783199261771  0.4963532906638761  0.3991244649423464  1.0000
  H   H23       1.0  0.4046745932785852  0.2462314294448832  0.8192703025706222  1.0000
  H   H24       1.0  0.5953254039377353  0.7537692004777059  0.1807292717338953  1.0000
  H   H25       1.0  0.9133047866274492  0.6114064208656277  0.6671307492325268  1.0000
  H   H26       1.0  0.08669554994250457  0.3885932339918768  0.3328690921366401  1.0000
  H   H27       1.0  0.9828048598009855  0.7563651493528811  0.7291700522293283  1.0000
  H   H28       1.0  0.01719513480902885  0.2436354825957353  0.2708287564476279  1.0000
  H   H29       1.0  0.20820638711558795  0.6852264531268588  0.8098221095439156  1.0000
  H   H30       1.0  0.7917927061766933  0.31477417976018524  0.190177502778532  1.0000
  H   H31       1.0  0.360172163547034  0.4618037165870703  0.8313859710971415  1.0000
  H   H32       1.0  0.6398287401996469  0.5381969083450502  0.16861433081698607  1.0000
  H   H33       1.0  0.5292736981533536  0.3470250846456652  0.31756783008415806  1.0000
  H   H34       1.0  0.47072629645665376  0.6529755473029512  0.6824309785928051  1.0000
  H   H35       1.0  0.26483807864430275  0.15565628968008133  0.3385158492153976  1.0000
  H   H36       1.0  0.7351597713703054  0.8443453212365101  0.6614835340603235  1.0000
  H   H37       1.0  0.2431814185443243  0.24416789851494525  0.514499264041639  1.0000
  H   H38       1.0  0.7568178999647371  0.7558346815378345  0.48549977613356526  1.0000
  H   H39       1.0  0.3161474162658208  0.4413201077791911  0.525468391904333  1.0000
  H   H40       1.0  0.683852580950507  0.558680522143405  0.47453118240018444  1.0000
  H   H41       1.0  0.4574355824515164  0.3066222269701485  0.5880557526171444  1.0000
  H   H42       1.0  0.5425644147648043  0.6933784029524478  0.41194382168736604  1.0000
  H   H43       1.0  0.4496444515612479  0.5344662259941658  0.38245652047370976  1.0000
  H   H44       1.0  0.5503555456550797  0.4655344039284302  0.6175430538308007  1.0000
  H   H45       1.0  0.5907438384082366  0.40178220035488027  0.450351250987964  1.0000
  H   H46       1.0  0.40925649555540367  0.5982174565286443  0.5496478247536487  1.0000
  H   H47       1.0  0.3561397036952769  0.06553638226137791  0.018453643730474287  1.0000
  H   H48       1.0  0.643860969622004  0.934462299557055  0.981545699075795  1.0000
  H   H49       1.0  0.9798340974116752  0.3402771215859844  0.0006748463951637789  1.0000
  H   H50       1.0  0.020166578511911677  0.6597215582064282  0.9993252620386598  1.0000
  H   H51       1.0  0.1547300250874669  0.4101670868951573  0.09028874310163099  1.0000
  H   H52       1.0  0.8452697469120878  0.5898315958617104  0.9097114033501297  1.0000
  H   H53       1.0  0.18749973669242337  0.0330670386416472  0.9332702491488546  1.0000
  H   H54       1.0  0.8125002605238973  0.9669335912809489  0.0667293251556557  1.0000
  H   H55       1.0  0.04925549362526737  0.17306061377891524  0.8728732801208848  1.0000
  H   H56       1.0  0.950743939020654  0.8269390440430443  0.1271265992662193  1.0000
  H   H57       1.0  0.9325429416691833  0.11675858060877435  0.039447459542238085  1.0000
  H   H58       1.0  0.06745682772405084  0.8832401041741138  0.9605519212819755  1.0000
  H   H59       1.0  0.07269638992743656  0.9824155094139259  0.10483287666363593  1.0000
  H   H60       1.0  0.9273042859961506  0.017583170378486605  0.8951672317701878  1.0000
  C   C1        1.0  0.6589162261743267  0.2852397653750317  0.9253602547452359  1.0000
  C   C2        1.0  0.34108445235558077  0.7147589123913607  0.07464061931614192  1.0000
  C   C3        1.0  0.8471783084557811  0.3224626556656106  0.6692479023613345  1.0000
  C   C4        1.0  0.15282293464452562  0.6775369942014183  0.33075266661745667  1.0000
  C   C5        1.0  0.7957997381033549  0.3377584565084676  0.7657111397975241  1.0000
  C   C6        1.0  0.2042000338961927  0.6622402262483931  0.23428900665423671  1.0000
  C   C7        1.0  0.7136059458998929  0.2692282614036899  0.822199687447899  1.0000
  C   C8        1.0  0.28639417066592165  0.7307694422360386  0.1778022573236271  1.0000
  C   C9        1.0  0.6814982698820201  0.1893348827922382  0.7780265944779998  1.0000
  C   C10       1.0  0.31850116015758084  0.8106647770557417  0.2219725192815573  1.0000
  C   C11       1.0  0.7270570032425776  0.17494988470635783  0.6787562056888562  1.0000
  C   C12       1.0  0.2729433359336963  0.8250497681251263  0.3212444013078651  1.0000
  C   C13       1.0  0.8127931005138507  0.24054484040669885  0.6240022751360568  1.0000
  C   C14       1.0  0.18720689409616392  0.7594557915419173  0.3759965335408992  1.0000
  C   C15       1.0  0.8575677041639124  0.22061748625568364  0.5249717064928134  1.0000
  C   C16       1.0  0.14243229565872872  0.7793831416408924  0.4750286334392512  1.0000
  C   C17       1.0  0.8173391786199247  0.14558789674089923  0.48139639602884177  1.0000
  C   C18       1.0  0.18266047924277004  0.8544137082467812  0.518602911211012  1.0000
  C   C19       1.0  0.7298951546191574  0.08493507955033412  0.5338496874633378  1.0000
  C   C20       1.0  0.27010393867312354  0.9150655533367104  0.4661499248591098  1.0000
  C   C21       1.0  0.6871106342786033  0.09839032478198112  0.6315247860908427  1.0000
  C   C22       1.0  0.3128896996850368  0.9016093321015437  0.3684742896507769  1.0000
  C   C23       1.0  0.9309848067284745  0.4003771418065084  0.6134147797386973  1.0000
  C   C24       1.0  0.06901462852376021  0.5996225139894237  0.3865858652759541  1.0000
  C   C25       1.0  0.359016347964669  0.05444668579943372  0.7760375339453063  1.0000
  C   C26       1.0  0.640985801665998  0.9455529590771194  0.22396376264309478  1.0000
  C   C27       1.0  0.06094731835326427  0.3626480355916969  0.6719924471310249  1.0000
  C   C28       1.0  0.9390524536462831  0.637350647165171  0.328007699320736  1.0000
  C   C29       1.0  0.14940803697703584  0.2367810190410539  0.6895469315680315  1.0000
  C   C30       1.0  0.850593206123278  0.763218630825975  0.31045363741075244  1.0000
  C   C31       1.0  0.27403924302002025  0.1935146960035966  0.7446288208069163  1.0000
  C   C32       1.0  0.7259610961562543  0.8064849568278875  0.255371786189805  1.0000
  C   C33       1.0  0.3102636758063183  0.2800141567844109  0.7765140553878069  1.0000
  C   C34       1.0  0.6897375646876824  0.7199854951086382  0.22348574796342285  1.0000
  C   C35       1.0  0.2253013611793121  0.4087027081833768  0.7588158607655302  1.0000
  C   C36       1.0  0.7746986360370155  0.5912979217392123  0.24118371353898027  1.0000
  C   C37       1.0  0.0973931838659822  0.4499917266116641  0.7085909101983816  1.0000
  C   C38       1.0  0.9026068107440323  0.5500089053369523  0.2914078984785816  1.0000
  C   C39       1.0  0.012356768976900263  0.5777850296578466  0.7001825620347262  1.0000
  C   C40       1.0  0.9876439069466868  0.4222136501345659  0.2998175463991046  1.0000
  C   C41       1.0  0.05132989063837805  0.6594293665475419  0.7362022455645274  1.0000
  C   C42       1.0  0.9486704433252697  0.34057029033598246  0.26379683017708533  1.0000
  C   C43       1.0  0.1780696118540347  0.6194750692034604  0.7825890202709898  1.0000
  C   C44       1.0  0.8219307247159192  0.38052458565404396  0.21741082109817708  1.0000
  C   C45       1.0  0.2627647368492062  0.4957578858492726  0.7939037023214438  1.0000
  C   C46       1.0  0.7372352603671142  0.5042427440733166  0.20609587198306653  1.0000
  C   C47       1.0  0.4547820172929418  0.3066916895019745  0.3467994503546237  1.0000
  C   C48       1.0  0.5452179799233858  0.6933089404206215  0.6532001239498866  1.0000
  C   C49       1.0  0.31757467242718457  0.2077404755954434  0.3608277794546382  1.0000
  C   C50       1.0  0.6824231775874307  0.7922611353211485  0.6391716038210828  1.0000
  C   C51       1.0  0.3053083450628903  0.2515083589737941  0.4480294833866907  1.0000
  C   C52       1.0  0.6946904088757647  0.748493248978349  0.5519698618711003  1.0000
  C   C53       1.0  0.41184106819156335  0.3807672663848721  0.5100585021121374  1.0000
  C   C54       1.0  0.588158926418444  0.6192333655637443  0.4899403065648186  1.0000
  C   C55       1.0  0.49388596242781785  0.46381444568745434  0.46241047642866556  1.0000
  C   C56       1.0  0.5061149387125494  0.5361861812706865  0.5375890598579076  1.0000
  C   C57       1.0  0.27935606092236037  0.15047340449461197  0.026376967111332295  1.0000
  C   C58       1.0  0.7206446150012338  0.8495252752978009  0.9736231413224913  1.0000
  C   C59       1.0  0.08345720347727335  0.29515813231004273  0.017903004850886344  1.0000
  C   C60       1.0  0.9165425685222742  0.7048405504468251  0.9820971416008746  1.0000
  C   C61       1.0  0.1714108383332728  0.32910013940526994  0.06085776607243074  1.0000
  C   C62       1.0  0.8285885943126484  0.6708995184166824  0.9391421133146735  1.0000
  C   C63       1.0  0.10351629377360885  0.10738427745565825  0.9504985074399599  1.0000
  C   C64       1.0  0.8964834756196252  0.8926144073272299  0.04950087338425386  1.0000
  C   C65       1.0  0.019527884926191084  0.04227198047148311  0.025263002917881694  1.0000
  C   C66       1.0  0.9804727883910824  0.9577267013469498  0.9747363398883947  1.0000
  N   N1        1.0  0.41094107670895136  0.24260597749849208  0.2985922759156097  1.0000
  N   N2        1.0  0.5890580165833299  0.7573946553885522  0.7014073364068381  1.0000
  N   N3        1.0  0.39251743404240347  0.3148136899394133  0.43742388297500406  1.0000
  N   N4        1.0  0.6074813198962515  0.6851879180127227  0.562575462282787  1.0000
  N   N5        1.0  0.2932461448878029  0.23829699432822354  0.06536469647650729  1.0000
  N   N6        1.0  0.7067541916821581  0.7617026605292809  0.9346351448926595  1.0000
  N   N7        1.0  0.15357654976950383  0.18174461447313925  0.9968161745526913  1.0000
  N   N8        1.0  0.8464228828764104  0.8182550433488136  0.003183704834412833  1.0000
  O   O1        1.0  0.6017948080888118  0.211134273320127  0.9801574881608417  1.0000
  O   O2        1.0  0.3982055310874626  0.7888653795113572  0.019843118835879532  1.0000
  O   O3        1.0  0.672619255543381  0.3789912202138766  0.9531236445555249  1.0000
  O   O4        1.0  0.32737927317849347  0.6210084405725314  0.046876272849516475  1.0000
  O   O5        1.0  0.8248338280351885  0.4199598176037966  0.8058927604743573  1.0000
  O   O6        1.0  0.17516617178745247  0.580040810292772  0.19410757945770737  1.0000
  O   O7        1.0  0.31882336830698665  0.9735663715779386  0.7521045077131702  1.0000
  O   O8        1.0  0.6811796852477199  0.026433270334166512  0.2478967508573007  1.0000
  O   O9        1.0  0.4665777488303178  0.016111037945471206  0.8296663869989229  1.0000
  O   O10       1.0  0.5334213574935446  0.983889584811465  0.17033705346128855  1.0000
  O   O11       1.0  0.11550002515906499  0.1539457116183698  0.6543061198355531  1.0000
  O   O12       1.0  0.8845015546885688  0.8460529652095875  0.3456939505803333  1.0000
  O   O13       1.0  0.5390995031440085  0.39105771638840287  0.12329933652102909  1.0000
  O   O14       1.0  0.46090083342594546  0.6089419384690943  0.876700504848138  1.0000
