data_image0
_chemical_formula_structural       Na4H8C28O12F20
_chemical_formula_sum              "Na4 H8 C28 O12 F20"
_cell_length_a       5.432887702033355
_cell_length_b       9.259369494140534
_cell_length_c       16.794370585776207
_cell_angle_alpha    95.08027480541237
_cell_angle_beta     90.00023768632873
_cell_angle_gamma    89.99969501798572

_space_group_name_H-M_alt    "P 1"
_space_group_IT_number       1

loop_
  _space_group_symop_operation_xyz
  'x, y, z'

loop_
  _atom_site_type_symbol
  _atom_site_label
  _atom_site_symmetry_multiplicity
  _atom_site_fract_x
  _atom_site_fract_y
  _atom_site_fract_z
  _atom_site_occupancy
  Na  Na1       1.0  0.6936560260397897  0.5940076251174987  0.44437847398705804  1.0000
  Na  Na2       1.0  0.1936618301668886  0.40600049588194764  0.5556200593030951  1.0000
  Na  Na3       1.0  0.7021946128793742  0.21809693154924054  0.4155525444984817  1.0000
  Na  Na4       1.0  0.20218783315382177  0.7819046422511846  0.5844474491644931  1.0000
  H   H1        1.0  0.405969738915296  0.8690103357339324  0.44215522549855274  1.0000
  H   H2        1.0  0.9059786502320294  0.13098530184276316  0.5578424330196299  1.0000
  H   H3        1.0  0.21492447907946396  0.748485098393175  0.4171670574395705  1.0000
  H   H4        1.0  0.7149379708938568  0.25151320171942615  0.5828315971283544  1.0000
  H   H5        1.0  0.3681764130020325  0.0584905771015301  0.5143810914102644  1.0000
  H   H6        1.0  0.8681602531057422  0.9415106203109926  0.4856132178895436  1.0000
  H   H7        1.0  0.2095090577169429  0.05680948139921329  0.4343503705399812  1.0000
  H   H8        1.0  0.7094991277304531  0.9431932340078291  0.565642549946773  1.0000
  C   C1        1.0  0.8985084353711627  0.8750471715663936  0.3439447432858458  1.0000
  C   C2        1.0  0.39851603035906175  0.124949557239141  0.6560541499156969  1.0000
  C   C3        1.0  0.83324803321549  0.8865198883842921  0.257124267084194  1.0000
  C   C4        1.0  0.33321050901290045  0.1134716884698221  0.7428653122224131  1.0000
  C   C5        1.0  0.6293799117409333  0.9636507410364884  0.23351986725483442  1.0000
  C   C6        1.0  0.12934334835153993  0.03633707180375011  0.7664661829972912  1.0000
  C   C7        1.0  0.5718612875589031  0.973529940949824  0.1535498315151713  1.0000
  C   C8        1.0  0.07180161525967318  0.026458030928687003  0.846435531150199  1.0000
  C   C9        1.0  0.72164356906395  0.9059155281942708  0.09399455184809109  1.0000
  C   C10       1.0  0.22156353369485515  0.0940784620940889  0.9059997218497883  1.0000
  C   C11       1.0  0.9291082914034021  0.8295190929318963  0.1154810733416411  1.0000
  C   C12       1.0  0.4290402059672759  0.1704840793471476  0.8845164223258308  1.0000
  C   C13       1.0  0.9801423334566336  0.8205275174412847  0.196136826595442  1.0000
  C   C14       1.0  0.4800826341921933  0.17947014307371492  0.8038563030663965  1.0000
  C   C15       1.0  0.7029078768676341  0.5966802155084919  0.6207904729840479  1.0000
  C   C16       1.0  0.20287897884008288  0.40332991507725785  0.3792206854568719  1.0000
  C   C17       1.0  0.7120433643480267  0.6024367338289309  0.7114619164736808  1.0000
  C   C18       1.0  0.2120449924534853  0.397565770087752  0.2885500517715727  1.0000
  C   C19       1.0  0.5313308715238775  0.6733351823197751  0.7596977848181794  1.0000
  C   C20       1.0  0.0313161841059042  0.3266710665669876  0.2403128720567764  1.0000
  C   C21       1.0  0.5302360598421599  0.6743596789093331  0.8425987772707373  1.0000
  C   C22       1.0  0.030213269524878697  0.3256401315119887  0.1574055880030372  1.0000
  C   C23       1.0  0.7144682621243916  0.600817144727479  0.880461603951133  1.0000
  C   C24       1.0  0.21444809800569686  0.39918431974447793  0.1195455508076719  1.0000
  C   C25       1.0  0.8994473705804893  0.5304103471683419  0.8345253518134683  1.0000
  C   C26       1.0  0.39943062142452845  0.46959276937150907  0.1654845936315468  1.0000
  C   C27       1.0  0.8962369073543571  0.5322657922689801  0.7516522260250653  1.0000
  C   C28       1.0  0.39620251972961995  0.4677438445764181  0.24835745781678747  1.0000
  O   O1        1.0  0.9395094318469361  0.7502575986673462  0.3653279747490998  1.0000
  O   O2        1.0  0.43952482761017825  0.2497519872854711  0.6346758275387784  1.0000
  O   O3        1.0  0.9096052944379097  0.9935924975523847  0.38904215682259746  1.0000
  O   O4        1.0  0.4096099483208775  0.0064172381398676995  0.6109550511263323  1.0000
  O   O5        1.0  0.9055016060488654  0.6005734156221649  0.5834580852700384  1.0000
  O   O6        1.0  0.4055172590424476  0.39942643212871337  0.4165517005892383  1.0000
  O   O7        1.0  0.49325131047157095  0.5882242291159584  0.5880970137733073  1.0000
  O   O8        1.0  0.9932617028233254  0.41178738271007387  0.411906987788683  1.0000
  O   O9        1.0  0.36980901845522146  0.7656901772714731  0.4481610431106731  1.0000
  O   O10       1.0  0.8698242370907322  0.23430877692941715  0.5518397022066353  1.0000
  O   O11       1.0  0.37812845819343716  0.06658962661713021  0.4556866816978129  1.0000
  O   O12       1.0  0.878122111166519  0.9334061488333204  0.5443049809084215  1.0000
  F   F1        1.0  0.47614020869447415  0.031056107833663305  0.28886614908299885  1.0000
  F   F2        1.0  0.9761239833572334  0.9689275514633592  0.711118503867439  1.0000
  F   F3        1.0  0.37150814027626217  0.048584555383555994  0.13362359108049296  1.0000
  F   F4        1.0  0.8714419516755925  0.9514016460231075  0.8663520798205226  1.0000
  F   F5        1.0  0.6672006686557168  0.9160296634542179  0.01679248341472569  1.0000
  F   F6        1.0  0.1670846170724118  0.0839656387381993  0.9831940226991733  1.0000
  F   F7        1.0  0.08086146444946961  0.7673929037257566  0.05896995981037631  1.0000
  F   F8        1.0  0.5807826677437973  0.2326186669612227  0.941038083290934  1.0000
  F   F9        1.0  0.18768757984852158  0.7498651203416884  0.2146549721590887  1.0000
  F   F10       1.0  0.6876237701082816  0.250162385517811  0.7853582551823308  1.0000
  F   F11       1.0  0.3466293255322839  0.7474743721904673  0.7268802886610571  1.0000
  F   F12       1.0  0.8466031918231066  0.2525267352395346  0.2731276736386262  1.0000
  F   F13       1.0  0.3525624467553286  0.7452521145328247  0.8864494562573526  1.0000
  F   F14       1.0  0.852534847455928  0.2547359920198886  0.1135554577458464  1.0000
  F   F15       1.0  0.7119782552517435  0.5964066051170461  0.9600345120610213  1.0000
  F   F16       1.0  0.211957328360171  0.4035774863284232  0.0399747111057778  1.0000
  F   F17       1.0  0.0757441359311883  0.4562460204553602  0.8701071105380009  1.0000
  F   F18       1.0  0.5757286099875073  0.5437417107177255  0.1298996825391185  1.0000
  F   F19       1.0  0.0750494973147724  0.4554305805734202  0.7108549645673178  1.0000
  F   F20       1.0  0.5750041136839884  0.5445821025141626  0.28915193543688394  1.0000
