data_image0
_chemical_formula_structural       Cu4H32C40S8Br4N8
_chemical_formula_sum              "Cu4 H32 C40 S8 Br4 N8"
_cell_length_a       7.940125003465243
_cell_length_b       10.223195229180673
_cell_length_c       14.872000481032542
_cell_angle_alpha    89.99977604266464
_cell_angle_beta     89.99998665160524
_cell_angle_gamma    111.05871722358332

_space_group_name_H-M_alt    "P 1"
_space_group_IT_number       1

loop_
  _space_group_symop_operation_xyz
  'x, y, z'

loop_
  _atom_site_type_symbol
  _atom_site_label
  _atom_site_symmetry_multiplicity
  _atom_site_fract_x
  _atom_site_fract_y
  _atom_site_fract_z
  _atom_site_occupancy
  Cu  Cu1       1.0  0.02678315528807219  0.6509610945578146  0.9595660517281888  1.0000
  Cu  Cu2       1.0  0.4732007128094582  0.8490330993547704  0.4595724820960073  1.0000
  Cu  Cu3       1.0  0.9732078541936462  0.349033259056121  0.04042977480007442  1.0000
  Cu  Cu4       1.0  0.5268080318149374  0.15098004756553254  0.5404367924950082  1.0000
  H   H1        1.0  0.9452747906831793  0.8145774494091784  0.6446229108916057  1.0000
  H   H2        1.0  0.5547252195097556  0.6854357618539951  0.14462112081940157  1.0000
  H   H3        1.0  0.05472125906432981  0.18541160116109273  0.3553789672838975  1.0000
  H   H4        1.0  0.4452767549637927  0.31457638898204016  0.8553821021331134  1.0000
  H   H5        1.0  0.6083942623221291  0.7328535983204322  0.6507452954147015  1.0000
  H   H6        1.0  0.8916151786370038  0.767179487316568  0.15074658417781006  1.0000
  H   H7        1.0  0.39160823163916103  0.267154339245579  0.3492518759030291  1.0000
  H   H8        1.0  0.10839029975261383  0.2328347389586655  0.8492552939625713  1.0000
  H   H9        1.0  0.4484268107838788  0.5932555970795691  0.7875240054043362  1.0000
  H   H10       1.0  0.05157076586913702  0.9067753856607866  0.28752900964241956  1.0000
  H   H11       1.0  0.551566619508911  0.4067597813631281  0.21247383830857564  1.0000
  H   H12       1.0  0.9484349722561378  0.0932367339629963  0.7124748857142935  1.0000
  H   H13       1.0  0.6364396678302314  0.5645933975588096  0.9149231627161074  1.0000
  H   H14       1.0  0.8635446670211523  0.9354160698564797  0.41492467077451084  1.0000
  H   H15       1.0  0.363538254579183  0.43541053476263897  0.08508073265425513  1.0000
  H   H16       1.0  0.13645934121906583  0.06458975063938513  0.5850792245909419  1.0000
  H   H17       1.0  0.4047082088465005  0.5553691761810386  0.41509400303723254  1.0000
  H   H18       1.0  0.0953034483803776  0.9446145559482844  0.9150981915560553  1.0000
  H   H19       1.0  0.5953208683373606  0.4446416976516618  0.5849119095325649  1.0000
  H   H20       1.0  0.9047136910781008  0.05537116302343039  0.08489629017262251  1.0000
  H   H21       1.0  0.20988538385201153  0.318826679449032  0.4712468421585641  1.0000
  H   H22       1.0  0.2901539568218965  0.18114758260800568  0.971247006222889  1.0000
  H   H23       1.0  0.7901356907150829  0.6811779473185525  0.5287449499260292  1.0000
  H   H24       1.0  0.7098508747931476  0.8188413951607033  0.028748147906959808  1.0000
  H   H25       1.0  0.013873410637401735  0.3042344591297024  0.6058857940803366  1.0000
  H   H26       1.0  0.48616340063920654  0.19573169303328092  0.10588524308845852  1.0000
  H   H27       1.0  0.9861196105610052  0.6957588255984039  0.3940972567637645  1.0000
  H   H28       1.0  0.5138255971356859  0.8042637294862092  0.8941173074835052  1.0000
  H   H29       1.0  0.04745874263059592  0.5243190343906577  0.6898768819078358  1.0000
  H   H30       1.0  0.4525647898006328  0.9756418718721993  0.18987288511075925  1.0000
  H   H31       1.0  0.952524523957976  0.47566696548259557  0.3101142378010239  1.0000
  H   H32       1.0  0.5474292261769166  0.024353509031669808  0.8101303378653031  1.0000
  C   C1        1.0  0.9635798447534686  0.7277949094919196  0.7747622109299642  1.0000
  C   C2        1.0  0.5364190285265948  0.7722079891190248  0.2747615326567684  1.0000
  C   C3        1.0  0.03641918942894051  0.2722004298007263  0.22524033964120357  1.0000
  C   C4        1.0  0.46358623426346685  0.22779782097129705  0.7252430351130742  1.0000
  C   C5        1.0  0.8707024528793923  0.7565182333773425  0.7023025267922877  1.0000
  C   C6        1.0  0.6292988395692946  0.7435030076421258  0.20230527202104306  1.0000
  C   C7        1.0  0.1292938124709623  0.24347923338442012  0.2976946445402576  1.0000
  C   C8        1.0  0.37070841285461864  0.2565069949509607  0.7976932441024476  1.0000
  C   C9        1.0  0.6831876828682514  0.7091006287276188  0.7059517474282873  1.0000
  C   C10       1.0  0.8168100717136043  0.7909237744905085  0.20595096776695956  1.0000
  C   C11       1.0  0.3168063110439905  0.29090001359991663  0.2940474411136337  1.0000
  C   C12       1.0  0.18319566641495302  0.2090883451398469  0.7940509103762639  1.0000
  C   C13       1.0  0.595056804878816  0.6346051233373802  0.7815180189473312  1.0000
  C   C14       1.0  0.9049359450858462  0.8654167222356577  0.28152105500005586  1.0000
  C   C15       1.0  0.4049339007169125  0.3654018597358758  0.21847982477726194  1.0000
  C   C16       1.0  0.09506605145958964  0.13459016718987027  0.7184821679596143  1.0000
  C   C17       1.0  0.6980965276645038  0.6169902677409811  0.8527539108617719  1.0000
  C   C18       1.0  0.8018995383106997  0.8830226660604552  0.3527609519267401  1.0000
  C   C19       1.0  0.3018939402685491  0.3830135605753996  0.14724124324914817  1.0000
  C   C20       1.0  0.19810397252241782  0.1169821063124559  0.6472436158446799  1.0000
  C   C21       1.0  0.3242052525142328  0.543794723072516  0.475961425899449  1.0000
  C   C22       1.0  0.17579448430258543  0.9561718735634274  0.9759622064164122  1.0000
  C   C23       1.0  0.6758073219906822  0.4562026084302958  0.5240404522632931  1.0000
  C   C24       1.0  0.8242106070513984  0.0438149975604034  0.024032947716278806  1.0000
  C   C25       1.0  0.21392101469744065  0.4129206668388364  0.5066219142588724  1.0000
  C   C26       1.0  0.2861087640598896  0.0870651338170774  0.006623040009337401  1.0000
  C   C27       1.0  0.7860948039922636  0.5870808467633852  0.4933739122574111  1.0000
  C   C28       1.0  0.7138928012973838  0.9129249232605403  0.9933788381642973  1.0000
  C   C29       1.0  0.10865840403862144  0.4049754888369393  0.5830716362163103  1.0000
  C   C30       1.0  0.3913546671641015  0.09498574831672363  0.08306599738073574  1.0000
  C   C31       1.0  0.8913336223390335  0.5950156996321072  0.41691679386671165  1.0000
  C   C32       1.0  0.6086370994570846  0.9050075467621358  0.9169331911713885  1.0000
  C   C33       1.0  0.12521778971217404  0.5272930891393487  0.6291217625533394  1.0000
  C   C34       1.0  0.37480686921526307  0.9726860936446046  0.12911846022604584  1.0000
  C   C35       1.0  0.8747714678169914  0.47270022676594453  0.37087137435850803  1.0000
  C   C36       1.0  0.6251874065034285  0.027307180618777207  0.8708834179438727  1.0000
  C   C37       1.0  0.24425143146198294  0.6548863034892919  0.5957097986728359  1.0000
  C   C38       1.0  0.25574201666535157  0.8450828343533557  0.09570955484794302  1.0000
  C   C39       1.0  0.7557461105090015  0.34510589145421733  0.4042887174757724  1.0000
  C   C40       1.0  0.7442560227028708  0.15491040869338243  0.9042943405351668  1.0000
  S   S1        1.0  0.20032148311023706  0.7677613459892572  0.7778001486987948  1.0000
  S   S2        1.0  0.2996712835852336  0.7322276504624912  0.2778069283577836  1.0000
  S   S3        1.0  0.7996670614056995  0.2322225055950256  0.2222003846754675  1.0000
  S   S4        1.0  0.7003297181449144  0.2677771427149409  0.7221983118183248  1.0000
  S   S5        1.0  0.28437226400077986  0.8203736458989185  0.6466926235008617  1.0000
  S   S6        1.0  0.2156142478817172  0.679594163463072  0.14670157879521645  1.0000
  S   S7        1.0  0.7156215143086229  0.17961858023712557  0.3533112718840173  1.0000
  S   S8        1.0  0.7843860408428754  0.32040116540868996  0.8533063510118313  1.0000
  Br  Br1       1.0  0.22499858861038308  0.5116090339892454  0.9412768213169971  1.0000
  Br  Br2       1.0  0.275007119689349  0.9883966732308028  0.44128358026753756  1.0000
  Br  Br3       1.0  0.7749981520620397  0.4883947422796881  0.05872774645638401  1.0000
  Br  Br4       1.0  0.7250071405480938  0.011617480203412406  0.5587236771081197  1.0000
  N   N1        1.0  0.8804848765416226  0.6631519074405929  0.8505772582450677  1.0000
  N   N2        1.0  0.619504210775247  0.8368516282846983  0.3505797510130365  1.0000
  N   N3        1.0  0.11949934069985357  0.33684671146452433  0.14942327510948425  1.0000
  N   N4        1.0  0.38050005720172214  0.16315208556191158  0.6494254891642443  1.0000
  N   N5        1.0  0.338891659472573  0.664379034156781  0.5186098604155804  1.0000
  N   N6        1.0  0.1611082684063876  0.8356010770866508  0.0186103318584827  1.0000
  N   N7        1.0  0.6611186435986057  0.33562147292056477  0.481391345338544  1.0000
  N   N8        1.0  0.8388998073715473  0.16439208273763484  0.981392218714838  1.0000
