data_image0
_chemical_formula_structural       Ba8H24C56N8O40
_chemical_formula_sum              "Ba8 H24 C56 N8 O40"
_cell_length_a       7.885354959001096
_cell_length_b       9.603157246000897
_cell_length_c       21.39862401700453
_cell_angle_alpha    90.00004646510975
_cell_angle_beta     89.9999420326165
_cell_angle_gamma    89.99998231220528

_space_group_name_H-M_alt    "P 1"
_space_group_IT_number       1

loop_
  _space_group_symop_operation_xyz
  'x, y, z'

loop_
  _atom_site_type_symbol
  _atom_site_label
  _atom_site_symmetry_multiplicity
  _atom_site_fract_x
  _atom_site_fract_y
  _atom_site_fract_z
  _atom_site_occupancy
  Ba  Ba1       1.0  0.10381445645694497  0.798762705762627  0.4577697460618637  1.0000
  Ba  Ba2       1.0  0.3961862614555542  0.20123776190457224  0.9577690223390788  1.0000
  Ba  Ba3       1.0  0.8961852868754434  0.2987631265769224  0.0422306402907182  1.0000
  Ba  Ba4       1.0  0.6038146782501032  0.7012375018537185  0.5422306736501594  1.0000
  Ba  Ba5       1.0  0.8961858850612144  0.20123732162483068  0.5422309960885983  1.0000
  Ba  Ba6       1.0  0.6038128118910037  0.7987612241575732  0.0422303178521304  1.0000
  Ba  Ba7       1.0  0.10381378646943057  0.701237942134469  0.9577696345404048  1.0000
  Ba  Ba8       1.0  0.3961881996167945  0.2987625255325669  0.45776913386030327  1.0000
  H   H1        1.0  0.2913606071498052  0.4684631886913237  0.6901607619639947  1.0000
  H   H2        1.0  0.2086395795049896  0.5315357517126102  0.19016181726024678  1.0000
  H   H3        1.0  0.7086402314994018  0.9684654708118643  0.8098385634877373  1.0000
  H   H4        1.0  0.7913589967114091  0.03153668488135249  0.3098380049905387  1.0000
  H   H5        1.0  0.7086397343706707  0.5315347560464686  0.3098385782267883  1.0000
  H   H6        1.0  0.7913582256671957  0.4684632343501249  0.8098379902509691  1.0000
  H   H7        1.0  0.29136011001985196  0.0315355978989373  0.1901612440233791  1.0000
  H   H8        1.0  0.20864007663411135  0.9684643838296128  0.6901618025208123  1.0000
  H   H9        1.0  0.1955347108615015  0.6180495037904237  0.7807442013106822  1.0000
  H   H10       1.0  0.3044639581802002  0.38194960109971987  0.2807442321725375  1.0000
  H   H11       1.0  0.8044649921293325  0.1180513104956162  0.7192554645506276  1.0000
  H   H12       1.0  0.69553702186721  0.8819496393878837  0.219256184307774  1.0000
  H   H13       1.0  0.8044643624852483  0.3819484409475322  0.21925513888033518  1.0000
  H   H14       1.0  0.6955351151648725  0.6180504262874749  0.7192560426583938  1.0000
  H   H15       1.0  0.195536617563647  0.8819497582150289  0.28074434296025425  1.0000
  H   H16       1.0  0.3044645878255138  0.11804934667478756  0.7807440905224965  1.0000
  H   H17       1.0  0.0019124737621681  0.8172798194992268  0.7595994558547403  1.0000
  H   H18       1.0  0.49808752168085846  0.18271820567007777  0.25959887527000797  1.0000
  H   H19       1.0  0.9980884220580035  0.31728265713240944  0.740401216801878  1.0000
  H   H20       1.0  0.501916070058151  0.6827172898234865  0.24040100173368728  1.0000
  H   H21       1.0  0.9980878677570216  0.1827181252394112  0.24040081897557997  1.0000
  H   H22       1.0  0.5019153561860462  0.8172818217162146  0.7404009322404476  1.0000
  H   H23       1.0  0.0019119194604044999  0.6827194529030153  0.2595990580291954  1.0000
  H   H24       1.0  0.4980855396341255  0.3172806549154217  0.7595997404161636  1.0000
  C   C1        1.0  0.20230961129609426  0.49514806270506984  0.5678407688485052  1.0000
  C   C2        1.0  0.29769091219274907  0.5048548208790251  0.0678413140603027  1.0000
  C   C3        1.0  0.7976912172632922  0.9951453378794426  0.9321580989470845  1.0000
  C   C4        1.0  0.7023114786346624  0.0048528746331371  0.4321589658459075  1.0000
  C   C5        1.0  0.797691998397525  0.5048530060051561  0.43215857134260455  1.0000
  C   C6        1.0  0.702308161152132  0.49514624783236627  0.9321589607708133  1.0000
  C   C7        1.0  0.20230785608326574  0.0048536481827028  0.0678412412441247  1.0000
  C   C8        1.0  0.2976913992319865  0.9951450701051812  0.5678413089839366  1.0000
  C   C9        1.0  0.13922675270531218  0.5763662024070159  0.6240920756916282  1.0000
  C   C10       1.0  0.3607736158840495  0.42363470067321174  0.1240925680398064  1.0000
  C   C11       1.0  0.8607742342229585  0.07636619673251487  0.8759075750725598  1.0000
  C   C12       1.0  0.639226080226365  0.9236339962846642  0.37590739621805364  1.0000
  C   C13       1.0  0.860776125160946  0.4236338249796958  0.37590819913859963  1.0000
  C   C14       1.0  0.6392254574616699  0.5763653267135567  0.8759072394713598  1.0000
  C   C15       1.0  0.139224839122555  0.9236348719784498  0.12409223243879809  1.0000
  C   C16       1.0  0.3607742612928817  0.0763670724261374  0.6240924112930628  1.0000
  C   C17       1.0  0.20052512016420107  0.5523345692418928  0.6839622646381684  1.0000
  C   C18       1.0  0.2994750835606581  0.4476654012297132  0.183962321155029  1.0000
  C   C19       1.0  0.7994758758519396  0.05233551162285011  0.8160373774225816  1.0000
  C   C20       1.0  0.7005246034604156  0.9476666553279995  0.3160385864459911  1.0000
  C   C21       1.0  0.7994752213547969  0.4476644168209418  0.3160380101923366  1.0000
  C   C22       1.0  0.7005239897846137  0.5523335848332851  0.8160379536757176  1.0000
  C   C23       1.0  0.20052446566795368  0.9476655570875325  0.18396196276876958  1.0000
  C   C24       1.0  0.2994744698846574  0.05233337205919501  0.6839616883849402  1.0000
  C   C25       1.0  0.1499261723634788  0.6366693846268774  0.7335355702482289  1.0000
  C   C26       1.0  0.35007516302452757  0.36333067586278395  0.23353557741317127  1.0000
  C   C27       1.0  0.8500747917597876  0.1366702242386708  0.7664641023562878  1.0000
  C   C28       1.0  0.6499258240646241  0.8633308113689253  0.26646436500412557  1.0000
  C   C29       1.0  0.8500754373292453  0.363329601435801  0.26646470458204863  1.0000
  C   C30       1.0  0.649925178494918  0.6366693515238282  0.7664642300977604  1.0000
  C   C31       1.0  0.1499255497601055  0.8633308444717116  0.23353523783505642  1.0000
  C   C32       1.0  0.35007451745482127  0.1366692160176868  0.733535442506806  1.0000
  C   C33       1.0  0.039644511659531596  0.7471611745847754  0.7220568353043786  1.0000
  C   C34       1.0  0.4603555871641944  0.2528378237369822  0.22205676145986789  1.0000
  C   C35       1.0  0.9603564106788696  0.24716304857356863  0.7779428773174574  1.0000
  C   C36       1.0  0.5396441735362884  0.752838007877891  0.27794314094015243  1.0000
  C   C37       1.0  0.9603558298607522  0.2528378114772067  0.2779425048865959  1.0000
  C   C38       1.0  0.539642218007792  0.7471622036499497  0.7779430460515329  1.0000
  C   C39       1.0  0.03964266266665109  0.7528380201373962  0.2220569301939008  1.0000
  C   C40       1.0  0.4603574361564355  0.24716097818478036  0.722057133890118  1.0000
  C   C41       1.0  0.8569711491106629  0.884449181837546  0.6429885402040583  1.0000
  C   C42       1.0  0.6430247340373183  0.1155485055824883  0.1429875999508354  1.0000
  C   C43       1.0  0.143025916786172  0.3844524466960593  0.8570126241000366  1.0000
  C   C44       1.0  0.35697000588715605  0.6155509619832813  0.35701178540831074  1.0000
  C   C45       1.0  0.1430279242346088  0.11554980422545212  0.3570117346266882  1.0000
  C   C46       1.0  0.35697053478825325  0.884449439155944  0.8570117402408923  1.0000
  C   C47       1.0  0.8569731565572241  0.6155496633403743  0.1429885853708086  1.0000
  C   C48       1.0  0.6430239947630553  0.3844521893767094  0.6429880221043688  1.0000
  C   C49       1.0  0.976709571825495  0.76781879157069  0.6621981431921284  1.0000
  C   C50       1.0  0.5232913311183152  0.23218205470377745  0.16219775700617586  1.0000
  C   C51       1.0  0.0232926108746767  0.2678199690710201  0.8378015769109766  1.0000
  C   C52       1.0  0.4767097055681048  0.7321813220753768  0.3378016705927179  1.0000
  C   C53       1.0  0.023293306040763205  0.23218123581602165  0.3378021316380994  1.0000
  C   C54       1.0  0.4767077422278518  0.7678190140067612  0.8378015831854098  1.0000
  C   C55       1.0  0.976706462469998  0.7321821409645608  0.16219869792033137  1.0000
  C   C56       1.0  0.5232931722979542  0.2678197466355314  0.6621986042376946  1.0000
  N   N1        1.0  0.023204067365782094  0.6796145443111428  0.6151812626253771  1.0000
  N   N2        1.0  0.47679632576215875  0.3203863425877884  0.1151812071336948  1.0000
  N   N3        1.0  0.9767981486910101  0.1796134842553556  0.8848184255321314  1.0000
  N   N4        1.0  0.5232021412197483  0.8203867249431269  0.38481871973084486  1.0000
  N   N5        1.0  0.976798810501762  0.32038548307472337  0.38481807756531344  1.0000
  N   N6        1.0  0.5232002112361015  0.6796136847992927  0.8848186003779402  1.0000
  N   N7        1.0  0.023202192828435393  0.8203865431312565  0.1151813819788003  1.0000
  N   N8        1.0  0.47679820029885883  0.17961434376810104  0.6151815551000439  1.0000
  O   O1        1.0  0.2806016309163083  0.5617500682622919  0.5250604455642929  1.0000
  O   O2        1.0  0.2194002785526621  0.4382506549892611  0.025060061116093397  1.0000
  O   O3        1.0  0.7194006297130429  0.06175027804184909  0.9749391999061245  1.0000
  O   O4        1.0  0.780600680204536  0.9382480121552987  0.4749399084346776  1.0000
  O   O5        1.0  0.7193999787764225  0.43824891780037944  0.4749398292659777  1.0000
  O   O6        1.0  0.7805987947928585  0.561750413721704  0.9749397463952576  1.0000
  O   O7        1.0  0.2805984436331245  0.9382507906686899  0.0250601402854613  1.0000
  O   O8        1.0  0.21939966131510144  0.06175097390711671  0.5250598990760622  1.0000
  O   O9        1.0  0.18095105275253331  0.3649492193066379  0.5687300587583337  1.0000
  O   O10       1.0  0.31904693194053374  0.6350505419200445  0.0687306431854111  1.0000
  O   O11       1.0  0.8190485568696173  0.8649506527807205  0.9312687618837572  1.0000
  O   O12       1.0  0.6809579459984789  0.13505068208868204  0.43126921655429834  1.0000
  O   O13       1.0  0.8190518251143145  0.6350476841074837  0.43127021607132576  1.0000
  O   O14       1.0  0.6809521414053775  0.3649484441425273  0.9312691643255633  1.0000
  O   O15       1.0  0.18095051647654256  0.13505041592982533  0.06873057830782868  1.0000
  O   O16       1.0  0.3190487363896607  0.8649524692692904  0.5687301236362501  1.0000
  O   O17       1.0  0.7005292450205118  0.8563636454906459  0.6417071733909265  1.0000
  O   O18       1.0  0.7994704461770397  0.14363508092628047  0.14170618515858277  1.0000
  O   O19       1.0  0.2994716360192626  0.3563668732516021  0.8582935134208611  1.0000
  O   O20       1.0  0.20052935582168632  0.643636537753089  0.3582927430518623  1.0000
  O   O21       1.0  0.2994723646726598  0.14363638189580294  0.3582926341197634  1.0000
  O   O22       1.0  0.2005273589964318  0.856363905135602  0.8582926877130888  1.0000
  O   O23       1.0  0.700526169150848  0.6436362781087653  0.14170722873063818  1.0000
  O   O24       1.0  0.799474790217907  0.35636557228185956  0.6417075317785077  1.0000
  O   O25       1.0  0.9276274442243275  0.9990427238943056  0.6302853945843124  1.0000
  O   O26       1.0  0.572369742077626  0.0009580644309963001  0.1302844390921223  1.0000
  O   O27       1.0  0.07236957833829649  0.4990408230040231  0.8697153439017454  1.0000
  O   O28       1.0  0.4276275775295487  0.5009574021209247  0.3697149047644359  1.0000
  O   O29       1.0  0.0723728972942794  0.0009583448169295  0.3697148802465691  1.0000
  O   O30       1.0  0.42762679492255967  0.9990419629548202  0.8697139664602104  1.0000
  O   O31       1.0  0.9276256904849445  0.5009592043840742  0.1302853982496615  1.0000
  O   O32       1.0  0.5723727639900389  0.4990384599693271  0.6302853700655078  1.0000
  O   O33       1.0  0.9512955253120765  0.69526652088242  0.5595803216759448  1.0000
  O   O34       1.0  0.5487056602117233  0.30473413905230723  0.05957995231980819  1.0000
  O   O35       1.0  0.0487054166509751  0.19526683699447736  0.9404198394705361  1.0000
  O   O36       1.0  0.4512953490370108  0.8047335991684719  0.4404199688752897  1.0000
  O   O37       1.0  0.04870608438110219  0.30473350650402864  0.44041948583474516  1.0000
  O   O38       1.0  0.451293413133797  0.6952669296586578  0.9404198551915426  1.0000
  O   O39       1.0  0.9512936566940978  0.8047331903927173  0.059580435360395284  1.0000
  O   O40       1.0  0.5487049924815962  0.19526746954276322  0.5595803059555989  1.0000
