data_image0
_chemical_formula_structural       Cu12H24C72N36
_chemical_formula_sum              "Cu12 H24 C72 N36"
_cell_length_a       28.12719143227455
_cell_length_b       28.40273925785013
_cell_length_c       28.52346696290275
_cell_angle_alpha    89.8322247068708
_cell_angle_beta     89.96192125423406
_cell_angle_gamma    89.86988280034093

_space_group_name_H-M_alt    "P 1"
_space_group_IT_number       1

loop_
  _space_group_symop_operation_xyz
  'x, y, z'

loop_
  _atom_site_type_symbol
  _atom_site_label
  _atom_site_symmetry_multiplicity
  _atom_site_fract_x
  _atom_site_fract_y
  _atom_site_fract_z
  _atom_site_occupancy
  Cu  Cu1       1.0  0.8710424072329631  0.9154157804502817  0.8297770042337476  1.0000
  Cu  Cu2       1.0  0.8255221449207184  0.869410463252827  0.920843511386181  1.0000
  Cu  Cu3       1.0  0.9182541541850782  0.8241158385793386  0.8743574062066771  1.0000
  Cu  Cu4       1.0  0.13436020366840754  0.5903164501806802  0.3231352689818863  1.0000
  Cu  Cu5       1.0  0.1791251804420284  0.6356376093962484  0.4141569196176889  1.0000
  Cu  Cu6       1.0  0.08047374092517151  0.6741265901033349  0.3740514445746541  1.0000
  Cu  Cu7       1.0  0.3703649446686796  0.08241495965027211  0.6726643160810397  1.0000
  Cu  Cu8       1.0  0.3245559654440413  0.12867923975658613  0.5819022268123321  1.0000
  Cu  Cu9       1.0  0.41727327500372274  0.17359064219486  0.6276994041667265  1.0000
  Cu  Cu10      1.0  0.6273158629316882  0.4147222134602232  0.17237977511999966  1.0000
  Cu  Cu11      1.0  0.6732247941643125  0.36877702899451503  0.081518763971701  1.0000
  Cu  Cu12      1.0  0.5804981258957228  0.3237033319972796  0.1279668182923146  1.0000
  H   H1        1.0  0.7999858883866297  0.0010158237680287  0.8129860078001059  1.0000
  H   H2        1.0  0.7391377132758877  0.9401487219888269  0.9389635287873475  1.0000
  H   H3        1.0  0.004389901436702799  0.8077775221829031  0.8032765766592931  1.0000
  H   H4        1.0  0.9413061387618171  0.9341549688713403  0.7443454772291035  1.0000
  H   H5        1.0  0.8094695223810574  0.7987056697779811  0.005934755589421998  1.0000
  H   H6        1.0  0.9368532813546864  0.7388347421828602  0.9443349277871675  1.0000
  H   H7        1.0  0.20401206320795504  0.5033215739803226  0.307850892197898  1.0000
  H   H8        1.0  0.263890205591963  0.5633903907544993  0.4342557259092458  1.0000
  H   H9        1.0  0.9889636478173004  0.6839190486675336  0.3083370189363279  1.0000
  H   H10       1.0  0.0673660000436769  0.5751299530465135  0.23490907458119636  1.0000
  H   H11       1.0  0.19724170283951278  0.7092023943393074  0.4959922045230556  1.0000
  H   H12       1.0  0.0575754330182079  0.7537790561208413  0.4490998690686752  1.0000
  H   H13       1.0  0.2997962887308958  0.9967183939007004  0.6894068057652091  1.0000
  H   H14       1.0  0.23851763645826907  0.05812255406566182  0.5638152962009427  1.0000
  H   H15       1.0  0.5034957037957924  0.18972452165493792  0.6983684953411782  1.0000
  H   H16       1.0  0.4408003738210907  0.06360905740181982  0.7577815076412905  1.0000
  H   H17       1.0  0.30792064626287896  0.19918336962244612  0.49675345631899154  1.0000
  H   H18       1.0  0.4354702927461673  0.258913887466477  0.5574625413055685  1.0000
  H   H19       1.0  0.6980001143122081  0.5001475823571371  0.1890319814655328  1.0000
  H   H20       1.0  0.7597917867072965  0.43912648860145964  0.0637960256734971  1.0000
  H   H21       1.0  0.49436622489758264  0.3071783612618334  0.19901219397134892  1.0000
  H   H22       1.0  0.5566801111667842  0.4335620149547524  0.2574525251236537  1.0000
  H   H23       1.0  0.6888802389837706  0.29874612239311926  0.9960011952681782  1.0000
  H   H24       1.0  0.5614650713270137  0.23926008491945083  0.0576865666687638  1.0000
  C   C1        1.0  0.34438229167403017  0.4104784355578347  0.3764375558251984  1.0000
  C   C2        1.0  0.40863112611937413  0.37427049624430014  0.34453211315157267  1.0000
  C   C3        1.0  0.3742362621105429  0.34428842792883785  0.4100419353523037  1.0000
  C   C4        1.0  0.6537860951767841  0.08878345331474691  0.8767700832387035  1.0000
  C   C5        1.0  0.6221392558781175  0.15428244535157637  0.90989172286681  1.0000
  C   C6        1.0  0.588697530878143  0.12332595112015103  0.8445743641128161  1.0000
  C   C7        1.0  0.8443075072095637  0.5877328625735959  0.1257991215395435  1.0000
  C   C8        1.0  0.8757189788975808  0.6529325150073576  0.0917509817888842  1.0000
  C   C9        1.0  0.9093667258081483  0.6223835838271513  0.15742532213698723  1.0000
  C   C10       1.0  0.15429104476640282  0.9090346115721959  0.6252601162757543  1.0000
  C   C11       1.0  0.08917558786289698  0.874329640691862  0.6569522037297233  1.0000
  C   C12       1.0  0.12306315966608848  0.8438574251896755  0.5915265278320021  1.0000
  C   C13       1.0  0.7911640301934426  0.9799776460331064  0.8435515506165815  1.0000
  C   C14       1.0  0.7540168681913358  0.9861802873941062  0.8761106569530028  1.0000
  C   C15       1.0  0.7601566240361278  0.948952550118101  0.9082968186525305  1.0000
  C   C16       1.0  0.9828214373328734  0.8383738384519578  0.7949398662999769  1.0000
  C   C17       1.0  0.9883070948260767  0.8712478164939629  0.7582823605603863  1.0000
  C   C18       1.0  0.9506569402324275  0.9033258594852996  0.764906942593761  1.0000
  C   C19       1.0  0.8403141314673592  0.7900778035875506  0.9847633937106722  1.0000
  C   C20       1.0  0.8734426085720911  0.7532694079953334  0.9905829893446167  1.0000
  C   C21       1.0  0.9057636553086111  0.7595703389783783  0.9533708510489731  1.0000
  C   C22       1.0  0.21286650956188413  0.5244229640400208  0.3382383282188499  1.0000
  C   C23       1.0  0.2487550659803688  0.517142291637562  0.3719083909795629  1.0000
  C   C24       1.0  0.24335868443318992  0.5550374143559439  0.40321586277234195  1.0000
  C   C25       1.0  0.014288621341137302  0.6577224410532738  0.29638957884450423  1.0000
  C   C26       1.0  0.0122824701982225  0.6286530285967732  0.2565168562777629  1.0000
  C   C27       1.0  0.05439958428875259  0.6018501635334419  0.258834706703567  1.0000
  C   C28       1.0  0.1635056838699072  0.7142243394185432  0.47826189414023185  1.0000
  C   C29       1.0  0.1268190764662052  0.7465016214491134  0.4882880691599921  1.0000
  C   C30       1.0  0.09174091364690182  0.7368277660955872  0.4544500472579287  1.0000
  C   C31       1.0  0.2908175653290357  0.017928278318102304  0.6589669247985627  1.0000
  C   C32       1.0  0.25373335698927235  0.0118324189551942  0.6264171424420582  1.0000
  C   C33       1.0  0.25958423237000977  0.049221699884910215  0.5944219595941719  1.0000
  C   C34       1.0  0.4820213564146982  0.15920240553768392  0.7068678262196216  1.0000
  C   C35       1.0  0.4876323047697683  0.12640309760265472  0.7435923169989705  1.0000
  C   C36       1.0  0.45005231388305594  0.0943860614828438  0.7371514546425857  1.0000
  C   C37       1.0  0.33885305057633275  0.20775582538334453  0.5177215346387314  1.0000
  C   C38       1.0  0.37186351291097713  0.24448094340228022  0.5116538277001013  1.0000
  C   C39       1.0  0.4043923534766806  0.23821531196547607  0.548677928468301  1.0000
  C   C40       1.0  0.7070781365062543  0.4790603967402804  0.1586650867268489  1.0000
  C   C41       1.0  0.7444723861205843  0.4851637258968822  0.1263544554572462  1.0000
  C   C42       1.0  0.7385807666162734  0.44798337774711444  0.09429974157901462  1.0000
  C   C43       1.0  0.5157792035416477  0.33774664730509585  0.2072860377614774  1.0000
  C   C44       1.0  0.5100011763492063  0.3706192057917122  0.2437389014401319  1.0000
  C   C45       1.0  0.5475335056049246  0.40271145645309764  0.2370620036581528  1.0000
  C   C46       1.0  0.658076112871221  0.2901586240275906  0.0172448094187772  1.0000
  C   C47       1.0  0.6247502425616888  0.2537273988328722  0.0113129242246046  1.0000
  C   C48       1.0  0.5926080246338684  0.25983981973593734  0.0486835933133847  1.0000
  C   C49       1.0  0.6888851310759067  0.05247619491417773  0.8765034834332184  1.0000
  C   C50       1.0  0.7190307159525631  0.021600281278722402  0.8763806973565735  1.0000
  C   C51       1.0  0.3104447020771842  0.44781860515349353  0.37555747045697535  1.0000
  C   C52       1.0  0.2819900116013017  0.48018156729578737  0.3738798359792881  1.0000
  C   C53       1.0  0.18913308278484922  0.9453748359105492  0.6258032813347825  1.0000
  C   C54       1.0  0.219038586649198  0.9763238842930451  0.6260140561320712  1.0000
  C   C55       1.0  0.8094198022154303  0.551373390545564  0.1263274730208508  1.0000
  C   C56       1.0  0.7793804596932787  0.5205218012194524  0.126235475091562  1.0000
  C   C57       1.0  0.05346237408061679  0.8728229729111947  0.6924228827294031  1.0000
  C   C58       1.0  0.0232701995017521  0.8719971819544914  0.7230593519947418  1.0000
  C   C59       1.0  0.44443987759564146  0.37232360247593743  0.30919582931131373  1.0000
  C   C60       1.0  0.4748418879410607  0.37141717922669687  0.2787635955728831  1.0000
  C   C61       1.0  0.9453078596344469  0.6241560225781841  0.19265855805836202  1.0000
  C   C62       1.0  0.9763894297147148  0.6264670913665712  0.22228612514213347  1.0000
  C   C63       1.0  0.5530194697913372  0.12461745333677506  0.8091185775189231  1.0000
  C   C64       1.0  0.5226773942987819  0.12558994816281915  0.7786708297768854  1.0000
  C   C65       1.0  0.8747428053962238  0.6879885682136618  0.0558779260666142  1.0000
  C   C66       1.0  0.8741337022422044  0.7182929639110753  0.0255589934244824  1.0000
  C   C67       1.0  0.3728567669661231  0.309377357874432  0.4460217476273129  1.0000
  C   C68       1.0  0.37234877486173457  0.27927536395379354  0.47652649205967623  1.0000
  C   C69       1.0  0.6228828663495776  0.18930001982620587  0.9455896778595374  1.0000
  C   C70       1.0  0.6237530483926719  0.2192019045184353  0.9761119209517731  1.0000
  C   C71       1.0  0.12410432923209672  0.809374973049174  0.5553919366502313  1.0000
  C   C72       1.0  0.1254058384545544  0.7802812636925155  0.5241134274479862  1.0000
  N   N1        1.0  0.3773394471426741  0.4102707738626138  0.3420219856023863  1.0000
  N   N2        1.0  0.40895293386483905  0.34019746921264027  0.3775997816603862  1.0000
  N   N3        1.0  0.34091402495717915  0.37853354064751  0.4113991109264674  1.0000
  N   N4        1.0  0.6563354599677143  0.12090172210699283  0.9114611689768707  1.0000
  N   N5        1.0  0.5873405994622941  0.15737837606804564  0.8774574628221006  1.0000
  N   N6        1.0  0.6209237417551704  0.08810223705624054  0.842322154966773  1.0000
  N   N7        1.0  0.8416387555693347  0.6195842801587405  0.0906695674149134  1.0000
  N   N8        1.0  0.9106600639309833  0.6560808297111296  0.1239934995868808  1.0000
  N   N9        1.0  0.8771268015015466  0.5873680145383845  0.1603305856060473  1.0000
  N   N10       1.0  0.12120035571008711  0.9095527940814354  0.6595393573956585  1.0000
  N   N11       1.0  0.088048863652368  0.8405697626680181  0.6237735193762788  1.0000
  N   N12       1.0  0.1572706373584651  0.8770998162591895  0.5904522775636069  1.0000
  N   N13       1.0  0.7979351120276661  0.922772803649757  0.8956154043485113  1.0000
  N   N14       1.0  0.8172619139861013  0.9421189545997709  0.8556876551688577  1.0000
  N   N15       1.0  0.9248834480300019  0.8902884728140564  0.8024887344253174  1.0000
  N   N16       1.0  0.9449234769466842  0.8502358293455433  0.8212168671885038  1.0000
  N   N17       1.0  0.8926295923461608  0.7971124490562361  0.927548628909193  1.0000
  N   N18       1.0  0.8522540293747555  0.81613319008239  0.9471103553920415  1.0000
  N   N19       1.0  0.20708826065951058  0.5825579122243454  0.3890546188155994  1.0000
  N   N20       1.0  0.18807793437840561  0.5634737343649976  0.34899300435757397  1.0000
  N   N21       1.0  0.07927373612102427  0.6141153612488142  0.2971573360528055  1.0000
  N   N22       1.0  0.054439166261573704  0.6486234483646457  0.3204477821727352  1.0000
  N   N23       1.0  0.10661815411172168  0.7016213578697832  0.4265893648715533  1.0000
  N   N24       1.0  0.15089896186292148  0.6873985575909176  0.44155357173997334  1.0000
  N   N25       1.0  0.29718064711459397  0.07540169208284203  0.6071916879263526  1.0000
  N   N26       1.0  0.31663694651658153  0.05589867245713263  0.6469843510160302  1.0000
  N   N27       1.0  0.4242067442800491  0.10740510172270494  0.6996152868860079  1.0000
  N   N28       1.0  0.4441171975932576  0.14735970202332288  0.6807270966496191  1.0000
  N   N29       1.0  0.3914600901519023  0.20074190649740592  0.5746477535649888  1.0000
  N   N30       1.0  0.3510465746848723  0.18176804637536045  0.5553569842744253  1.0000
  N   N31       1.0  0.700726952971465  0.4219251945485923  0.1068302803280332  1.0000
  N   N32       1.0  0.6811045021693259  0.4413103930628355  0.14652923958788483  1.0000
  N   N33       1.0  0.5735062297579816  0.38966387820553905  0.19965729200428234  1.0000
  N   N34       1.0  0.5537235745363915  0.3496114084415467  0.1810837667927245  1.0000
  N   N35       1.0  0.6060126381831594  0.29695059210910574  0.0746948003954984  1.0000
  N   N36       1.0  0.6464034114277695  0.3158602731864947  0.05511040516986299  1.0000
