data_image0
_chemical_formula_structural       Ni2H36C40N4O16
_chemical_formula_sum              "Ni2 H36 C40 N4 O16"
_cell_length_a       6.742483251022081
_cell_length_b       11.424499744417306
_cell_length_c       12.588207638630243
_cell_angle_alpha    93.4231674877993
_cell_angle_beta     89.9826443778711
_cell_angle_gamma    107.22395104424555

_space_group_name_H-M_alt    "P 1"
_space_group_IT_number       1

loop_
  _space_group_symop_operation_xyz
  'x, y, z'

loop_
  _atom_site_type_symbol
  _atom_site_label
  _atom_site_symmetry_multiplicity
  _atom_site_fract_x
  _atom_site_fract_y
  _atom_site_fract_z
  _atom_site_occupancy
  Ni  Ni1       1.0  0.5661242217915826  0.99989730550174  0.7500750628053297  1.0000
  Ni  Ni2       1.0  0.4377614484436664  7.728080628769982e-05  0.2499646950929773  1.0000
  H   H1        1.0  0.3022241264852852  0.7018431978108381  0.9567715936786738  1.0000
  H   H2        1.0  0.5996440557930143  0.2979931399484528  0.5431149758662811  1.0000
  H   H3        1.0  0.6953499083292484  0.2855955675099366  0.04444077230421328  1.0000
  H   H4        1.0  0.40946827606676095  0.7144179944736209  0.4558432796637318  1.0000
  H   H5        1.0  0.18131724031853483  0.5104646183644307  0.05366780621064749  1.0000
  H   H6        1.0  0.670097003210479  0.4893706212360696  0.4462745388330943  1.0000
  H   H7        1.0  0.8156383978500871  0.4763503267151137  0.9490939429672662  1.0000
  H   H8        1.0  0.3386588473221294  0.5236159875959884  0.5510433616049468  1.0000
  H   H9        1.0  0.3788541157118813  0.3089951285397133  0.7953355485815762  1.0000
  H   H10       1.0  0.06967057224191094  0.6911134266514123  0.7044128450967901  1.0000
  H   H11       1.0  0.6123907345610675  0.6761865050381459  0.20695775432813684  1.0000
  H   H12       1.0  0.9364782114137283  0.3235674858254782  0.2928114251614175  1.0000
  H   H13       1.0  0.5014403291722617  0.503617453770609  0.6986765187779082  1.0000
  H   H14       1.0  0.9976908798730262  0.49648983962715215  0.8010369884880217  1.0000
  H   H15       1.0  0.48701920826442807  0.4810214561598869  0.30206185765823074  1.0000
  H   H16       1.0  0.0066146415487864044  0.5187847645394328  0.19785367436609386  1.0000
  H   H17       1.0  0.12062160833990984  0.2978375431832346  0.06442280388846199  1.0000
  H   H18       1.0  0.8219917162460817  0.7020712078963242  0.43555585405651687  1.0000
  H   H19       1.0  0.8749292776341947  0.692169579472818  0.9392129232820207  1.0000
  H   H20       1.0  0.1821412577915494  0.307814624273611  0.5608034564859137  1.0000
  H   H21       1.0  0.8362272587266874  0.9156759277648164  0.8941666461076493  1.0000
  H   H22       1.0  0.9211224369957446  0.0846550031491446  0.6064517057166013  1.0000
  H   H23       1.0  0.16109085440550067  0.07506248943602148  0.1008756095330767  1.0000
  H   H24       1.0  0.0853005128862774  0.9248211636345044  0.398789960020963  1.0000
  H   H25       1.0  0.2101349976164  0.9142614864214662  0.8938030681389147  1.0000
  H   H26       1.0  0.296326428435414  0.08568676217427648  0.606600535038339  1.0000
  H   H27       1.0  0.789732133113276  0.07529172398544398  0.10167610115372128  1.0000
  H   H28       1.0  0.7139246772117571  0.9249679828159355  0.3980078540513644  1.0000
  H   H29       1.0  0.416073397595788  0.9186158728631069  0.5524977352462839  1.0000
  H   H30       1.0  0.49795209264969753  0.08126814124766919  0.947698069398214  1.0000
  H   H31       1.0  0.5964534037475034  0.10804137798763239  0.4830480688319552  1.0000
  H   H32       1.0  0.4881433940635772  0.8924924042251445  0.016772145210630588  1.0000
  H   H33       1.0  0.5338023183885381  0.8349785472790995  0.611212631290634  1.0000
  H   H34       1.0  0.6991926943002227  0.16500195910297316  0.8887233791476132  1.0000
  H   H35       1.0  0.4498863502451798  0.1565370320405108  0.4112992290711971  1.0000
  H   H36       1.0  0.29348461707876783  0.8435471049337268  0.0888625621676695  1.0000
  C   C1        1.0  0.47664231702816545  0.7274217176422724  0.7610127873461464  1.0000
  C   C2        1.0  0.7491409783312902  0.272521725944344  0.7387683128023921  1.0000
  C   C3        1.0  0.5120781235464661  0.25852959290396166  0.24128837989260177  1.0000
  C   C4        1.0  0.2538988633353013  0.7414718385601946  0.2588816572901962  1.0000
  C   C5        1.0  0.4097465765941946  0.6135052115248454  0.822220312731211  1.0000
  C   C6        1.0  0.7959542914869856  0.38645736229094024  0.6775676105365845  1.0000
  C   C7        1.0  0.5847652732077079  0.37201307130444405  0.17963515569488206  1.0000
  C   C8        1.0  0.21276743913303142  0.627965812285822  0.32050066080852696  1.0000
  C   C9        1.0  0.3187936748741222  0.6157871796951752  0.9220637655382475  1.0000
  C   C10       1.0  0.7025047447979916  0.38408357276193783  0.577804335274628  1.0000
  C   C11       1.0  0.6784644602061363  0.3710393116781745  0.08038008646401099  1.0000
  C   C12       1.0  0.30712605881947036  0.628968160682504  0.41982321175234455  1.0000
  C   C13       1.0  0.2500172622458692  0.508306839402934  0.975463916150076  1.0000
  C   C14       1.0  0.7411397989594093  0.49154685653874713  0.5243898532614182  1.0000
  C   C15       1.0  0.7470078715908528  0.4790199468565177  0.027261541185993093  1.0000
  C   C16       1.0  0.2674966041055312  0.5209524930541605  0.47286332661574443  1.0000
  C   C17       1.0  0.2720115759115557  0.3979917043923463  0.9297773900905923  1.0000
  C   C18       1.0  0.8735669376233941  0.6019756677048206  0.5700707617696351  1.0000
  C   C19       1.0  0.7234684473906013  0.5889389651857184  0.07304538813412617  1.0000
  C   C20       1.0  0.13413782486698253  0.41094359508702616  0.4269834507160579  1.0000
  C   C21       1.0  0.36334241518668625  0.3956616576749994  0.8296093095308306  1.0000
  C   C22       1.0  0.9673848739066102  0.6043922369503534  0.6701630523963116  1.0000
  C   C23       1.0  0.6297247709881048  0.5899691743388118  0.17262555458025725  1.0000
  C   C24       1.0  0.039782640260675226  0.40986203654700376  0.32730585351434627  1.0000
  C   C25       1.0  0.4309475616368772  0.5028112815479773  0.7764255272983787  1.0000
  C   C26       1.0  0.9279168013379363  0.4972318484821514  0.7233072511875135  1.0000
  C   C27       1.0  0.5609764275728394  0.48242891376043673  0.22515543812527736  1.0000
  C   C28       1.0  0.0787907196598709  0.5174398821654338  0.27484508979163985  1.0000
  C   C29       1.0  0.20397332475017999  0.28709964339937943  0.9893727203911309  1.0000
  C   C30       1.0  0.9158131028807972  0.7129854969528465  0.5106856222082143  1.0000
  C   C31       1.0  0.7917152385974049  0.7012222052820006  0.014523416259592577  1.0000
  C   C32       1.0  0.0899593488590469  0.29864557783616863  0.48545641466840544  1.0000
  C   C33       1.0  0.9391471276559072  0.9524495902331223  0.8295933409801534  1.0000
  C   C34       1.0  0.987142440592585  0.0478173721984092  0.6709638958770654  1.0000
  C   C35       1.0  0.0628302359628776  0.0421828062738783  0.16825878501368405  1.0000
  C   C36       1.0  0.020257033667618694  0.9577497073831436  0.33139661208355153  1.0000
  C   C37       1.0  0.14431302760648604  0.9515122205755941  0.82919706559845  1.0000
  C   C38       1.0  0.19306582570622774  0.048511186881668805  0.6712373483621332  1.0000
  C   C39       1.0  0.8561462743003786  0.042458153526475015  0.16856338158471823  1.0000
  C   C40       1.0  0.8134190882482101  0.9576343728606671  0.3310988595055661  1.0000
  N   N1        1.0  0.861576962299374  0.00015831684627440017  0.7502761977011614  1.0000
  N   N2        1.0  0.14612176742699015  0.999907950859125  0.24983144648708586  1.0000
  N   N3        1.0  0.2705110517184008  0.9999161454725606  0.7501673376871806  1.0000
  N   N4        1.0  0.7299730104060488  9.239812979439996e-05  0.2498493090883542  1.0000
  O   O1        1.0  0.5229238909219447  0.7155128624167801  0.6640292058929446  1.0000
  O   O2        1.0  0.8076176372926512  0.2845550757314185  0.8356971370428992  1.0000
  O   O3        1.0  0.4481328700253967  0.26798218967253  0.3340385442966961  1.0000
  O   O4        1.0  0.1813370699991238  0.7318218263160148  0.16594709278805195  1.0000
  O   O5        1.0  0.47773917728321885  0.8279387673899806  0.811935187660701  1.0000
  O   O6        1.0  0.6497007192763818  0.17192518271661325  0.6879361643317592  1.0000
  O   O7        1.0  0.5237847229660559  0.15788495131815236  0.19145755507533113  1.0000
  O   O8        1.0  0.36562780555615854  0.8422770265287978  0.308833840401327  1.0000
  O   O9        1.0  0.2351915453083109  0.18858431046439247  0.9633347206129486  1.0000
  O   O10       1.0  0.04486345420879442  0.8118195489396385  0.5370271173783081  1.0000
  O   O11       1.0  0.7603348043004984  0.7991423677273914  0.04262247521195659  1.0000
  O   O12       1.0  0.9607359350748299  0.20061395881443642  0.45733869936741184  1.0000
  O   O13       1.0  0.5455263171547527  0.9219359316830307  0.5892460656273925  1.0000
  O   O14       1.0  0.6240764709226312  0.07805921241087078  0.9108956201039149  1.0000
  O   O15       1.0  0.45460450018460113  0.0869383630492919  0.4549610697173278  1.0000
  O   O16       1.0  0.36727436871695557  0.9132310242947453  0.04507198935798579  1.0000
