data_image0
_chemical_formula_structural       Cu2H26C38N10O12
_chemical_formula_sum              "Cu2 H26 C38 N10 O12"
_cell_length_a       9.034488725057308
_cell_length_b       8.783877635254093
_cell_length_c       13.465481130845701
_cell_angle_alpha    80.34207174442912
_cell_angle_beta     76.30302048185234
_cell_angle_gamma    87.02622960840199

_space_group_name_H-M_alt    "P 1"
_space_group_IT_number       1

loop_
  _space_group_symop_operation_xyz
  'x, y, z'

loop_
  _atom_site_type_symbol
  _atom_site_label
  _atom_site_symmetry_multiplicity
  _atom_site_fract_x
  _atom_site_fract_y
  _atom_site_fract_z
  _atom_site_occupancy
  Cu  Cu1       1.0  0.09848265622179038  0.21404304010891198  0.0844555453904476  1.0000
  Cu  Cu2       1.0  0.9014719707584999  0.7857716590310275  0.9156081251419861  1.0000
  H   H1        1.0  0.4929433697118668  0.5649643986567979  0.29234718326988224  1.0000
  H   H2        1.0  0.5073858313118365  0.4349066842080518  0.7074181425344932  1.0000
  H   H3        1.0  0.6508291171047774  0.7877201764734989  0.35005684047276725  1.0000
  H   H4        1.0  0.3493400362415287  0.21258008480519655  0.6499258507245216  1.0000
  H   H5        1.0  0.16700923242896695  0.3912440195138912  0.22763560033801158  1.0000
  H   H6        1.0  0.8330211282122518  0.6095664949269376  0.771919971933812  1.0000
  H   H7        1.0  0.4356226118055558  0.17910969994193243  0.9935246218407414  1.0000
  H   H8        1.0  0.5640927968911171  0.820021723704471  0.00678715411407888  1.0000
  H   H9        1.0  0.6750078326386556  0.2899051898234575  0.017385492795611347  1.0000
  H   H10       1.0  0.3249889682754911  0.7085476246502578  0.9830037737182592  1.0000
  H   H11       1.0  0.6545158777726738  0.45807035519673894  0.15189138925293122  1.0000
  H   H12       1.0  0.34580864657301896  0.5407666593338546  0.8482574659464959  1.0000
  H   H13       1.0  0.09650391717209318  0.5060199130773455  0.5585373191856533  1.0000
  H   H14       1.0  0.9035004110985413  0.4942810365643453  0.4409514088210284  1.0000
  H   H15       1.0  0.14259031190201196  0.6289143915614018  0.7045926380457245  1.0000
  H   H16       1.0  0.85728568137349  0.3709566803421324  0.2951193080999559  1.0000
  H   H17       1.0  0.3826134525065044  0.7860831028563736  0.669901698980496  1.0000
  H   H18       1.0  0.6172734811641617  0.2137247302843619  0.3300443452140839  1.0000
  H   H19       1.0  0.8110727213316976  0.022696855254387995  0.22906993315729796  1.0000
  H   H20       1.0  0.18913019550224422  0.977351328142021  0.7710327220513306  1.0000
  H   H21       1.0  0.24147047101796199  0.06545815711007917  0.279104941000618  1.0000
  H   H22       1.0  0.758396456319204  0.9352022716788965  0.7213860386321683  1.0000
  H   H23       1.0  0.17843567772666802  0.8908056682377464  0.44728233557243857  1.0000
  H   H24       1.0  0.8212731389610041  0.11004531404439181  0.5532669031622247  1.0000
  H   H25       1.0  0.9179018376883122  0.7702154565821927  0.5080297082689282  1.0000
  H   H26       1.0  0.08197803185346692  0.2301964729807011  0.49226474849229607  1.0000
  C   C1        1.0  0.08109560869440462  0.9646879090371173  0.9898569409924958  1.0000
  C   C2        1.0  0.9189800872188131  0.034931941767197786  0.01032957130610157  1.0000
  C   C3        1.0  0.9569299908387378  0.5055095574808703  0.057331808912614635  1.0000
  C   C4        1.0  0.04289540679728529  0.4943127214362447  0.9424803781274915  1.0000
  C   C5        1.0  0.28101967504238  0.3704133944535215  0.18360066801538716  1.0000
  C   C6        1.0  0.7190113767630707  0.6299217700871081  0.8161193271977112  1.0000
  C   C7        1.0  0.4326326209800301  0.25360405832039845  0.05102461827080157  1.0000
  C   C8        1.0  0.5672487802000389  0.7457770366957988  0.9491072114915653  1.0000
  C   C9        1.0  0.5639634791324113  0.3157337522733599  0.06461650569545438  1.0000
  C   C10       1.0  0.43606045284030875  0.6832614534775345  0.9355757950374508  1.0000
  C   C11       1.0  0.5527508258727849  0.40687964532614274  0.14123757716747312  1.0000
  C   C12       1.0  0.447412667406489  0.5923345622303557  0.8588150831325763  1.0000
  C   C13       1.0  0.40884352909020555  0.43218911312622044  0.20401568654437333  1.0000
  C   C14       1.0  0.5913188245144242  0.5677496804820591  0.7957892369741228  1.0000
  C   C15       1.0  0.27618930349624554  0.5161965184176863  0.369060608327615  1.0000
  C   C16       1.0  0.7239248850563414  0.4842381926388697  0.6305503490413782  1.0000
  C   C17       1.0  0.30667354525968443  0.5907987499682009  0.4546459579232616  1.0000
  C   C18       1.0  0.6934438036642944  0.40950774309037286  0.5450286434519354  1.0000
  C   C19       1.0  0.19891171814746397  0.5717942797901614  0.5493442546696983  1.0000
  C   C20       1.0  0.8011131668148151  0.4283996022282466  0.45028624874100115  1.0000
  C   C21       1.0  0.22371321858363297  0.6418149095404075  0.6293871507031595  1.0000
  C   C22       1.0  0.7762293239735243  0.35815493147283206  0.37034749284575236  1.0000
  C   C23       1.0  0.35540552224765076  0.7279120113295646  0.6112772462048353  1.0000
  C   C24       1.0  0.6445455353409953  0.2720202139445291  0.3885948685330404  1.0000
  C   C25       1.0  0.45834988124995846  0.7380104399492851  0.5148150949850532  1.0000
  C   C26       1.0  0.541661476230793  0.2620715467457798  0.48507773273503557  1.0000
  C   C27       1.0  0.6041147585393744  0.82334637394014  0.4989558181808675  1.0000
  C   C28       1.0  0.3958474436048007  0.1767585526720694  0.5010805959857619  1.0000
  C   C29       1.0  0.845420265076136  0.888151844349963  0.37263350954674473  1.0000
  C   C30       1.0  0.1546477656918626  0.11208738313484189  0.6275613025419984  1.0000
  C   C31       1.0  0.890366634930359  0.9887778625709771  0.27902814382089497  1.0000
  C   C32       1.0  0.10976708217778247  0.011398502531797302  0.7211359555171839  1.0000
  C   C33       1.0  0.1296961254709643  0.012365627221733197  0.3064611305558315  1.0000
  C   C34       1.0  0.8702341970135663  0.9881645847766124  0.6939256102369951  1.0000
  C   C35       1.0  0.0940296704881192  0.9132476058829652  0.40078907120965107  1.0000
  C   C36       1.0  0.9058065597810554  0.0873718973324102  0.5996236991981333  1.0000
  C   C37       1.0  0.9498258248246927  0.8488684907505898  0.4349880474706111  1.0000
  C   C38       1.0  0.050085590762194  0.1515458526104467  0.5653314767940428  1.0000
  N   N1        1.0  0.2942349487274853  0.2833070142783781  0.10883684845050104  1.0000
  N   N2        1.0  0.7056481058856576  0.716713339024885  0.8910600730770566  1.0000
  N   N3        1.0  0.029861611180777497  0.049480493847234186  0.2462774916795496  1.0000
  N   N4        1.0  0.9702196791447193  0.9507875283547663  0.7539853753211216  1.0000
  N   N5        1.0  0.3968949464284108  0.5153508260310814  0.2856115788636798  1.0000
  N   N6        1.0  0.6033519327568158  0.48476400806791275  0.7140809582677645  1.0000
  N   N7        1.0  0.6967977521120615  0.8284170772318119  0.4024876073888491  1.0000
  N   N8        1.0  0.30329659046400786  0.17173403687723268  0.5975863128150536  1.0000
  N   N9        1.0  0.43559742312530864  0.6706382941624938  0.43724737895932003  1.0000
  N   N10       1.0  0.564527953580253  0.3295853239104077  0.5625408526738838  1.0000
  O   O1        1.0  0.1838798734564548  0.029512459632314903  0.017164251912333797  1.0000
  O   O2        1.0  0.8161628847917723  0.9701704989082884  0.9830075345210287  1.0000
  O   O3        1.0  0.9853176581101976  0.3989334250079821  0.12843240226273167  1.0000
  O   O4        1.0  0.014499561254993396  0.6009691998300538  0.871409225966211  1.0000
  O   O5        1.0  0.8655096812205442  0.6150477947012049  0.07498408589731298  1.0000
  O   O6        1.0  0.1342350428695127  0.384719709051879  0.9248277084436862  1.0000
  O   O7        1.0  0.10099670365103458  0.8460574967448051  0.9461619202644939  1.0000
  O   O8        1.0  0.8990422528014506  0.15351000666236564  0.05407357198291144  1.0000
  O   O9        1.0  0.15117232537481579  0.4578538602942358  0.3773185238372959  1.0000
  O   O10       1.0  0.8488347384955973  0.5428990449118273  0.6221740888193279  1.0000
  O   O11       1.0  0.6348022295787032  0.880346031825823  0.5696423912990338  1.0000
  O   O12       1.0  0.3650143721656677  0.11971919529668898  0.4304452567794924  1.0000
