data_image0
_chemical_formula_structural       Zn2H13C29N5O8
_chemical_formula_sum              "Zn2 H13 C29 N5 O8"
_cell_length_a       9.796260410696684
_cell_length_b       10.993359308676157
_cell_length_c       14.428733913615158
_cell_angle_alpha    95.78783376932665
_cell_angle_beta     88.89017524897785
_cell_angle_gamma    91.7821665192625

_space_group_name_H-M_alt    "P 1"
_space_group_IT_number       1

loop_
  _space_group_symop_operation_xyz
  'x, y, z'

loop_
  _atom_site_type_symbol
  _atom_site_label
  _atom_site_symmetry_multiplicity
  _atom_site_fract_x
  _atom_site_fract_y
  _atom_site_fract_z
  _atom_site_occupancy
  Zn  Zn1       1.0  0.3600937801207564  0.4934961072192437  0.4974043382772777  1.0000
  Zn  Zn2       1.0  0.6385941861516642  0.5013817526703336  0.4872020820982285  1.0000
  H   H1        1.0  0.7204062022401417  0.8855450043208819  0.4431218412169144  1.0000
  H   H2        1.0  0.10524866386381151  0.5641752618994362  0.7135183196961563  1.0000
  H   H3        1.0  0.8533176036100442  0.5629447585837398  0.7067398112278127  1.0000
  H   H4        1.0  0.7237757864682735  0.11244692571664675  0.4531579278174576  1.0000
  H   H5        1.0  0.241170722298726  0.11609109869843343  0.6282157501310621  1.0000
  H   H6        1.0  0.18058213211728708  0.11250393290582399  0.5122823591355612  1.0000
  H   H7        1.0  0.23925469953392303  0.8914267649062215  0.618087505203988  1.0000
  H   H8        1.0  0.1475518871070491  0.51463624752693  0.35627231088059824  1.0000
  H   H9        1.0  0.1335824761954001  0.9914399840450872  0.3811266836367793  1.0000
  H   H10       1.0  0.24112140125117068  0.8664658038687352  0.3506809779348928  1.0000
  H   H11       1.0  0.06084143352501309  0.8457062422035337  0.3441529439707125  1.0000
  H   H12       1.0  0.15103742143137572  0.7614209014819623  0.4861650577319026  1.0000
  H   H13       1.0  0.03729927370409308  0.8816736578337653  0.5172683165292682  1.0000
  C   C1        1.0  0.5113698572679368  0.7314224331194555  0.4833155106357836  1.0000
  C   C2        1.0  0.47837583217256713  0.46169640855195143  0.20998986942692  1.0000
  C   C3        1.0  0.3945151845026729  0.9340150022148425  0.5139159479341444  1.0000
  C   C4        1.0  0.5097937873012981  0.8669386599608945  0.4867273654218067  1.0000
  C   C5        1.0  0.6286782864453356  0.9351390273688198  0.4649277726877373  1.0000
  C   C6        1.0  0.630663443579607  0.06240952564630221  0.4706699032466588  1.0000
  C   C7        1.0  0.5139291274943147  0.12965815478661114  0.4986685171136926  1.0000
  C   C8        1.0  0.39713596110998844  0.061706837208653616  0.5201334172620165  1.0000
  C   C9        1.0  0.2518512920441793  0.07119147242046613  0.5570331077667633  1.0000
  C   C10       1.0  0.24674995974893923  0.9262735972914059  0.5491511364197876  1.0000
  C   C11       1.0  0.9215112984682252  0.49083240257105154  0.5657172750144569  1.0000
  C   C12       1.0  0.4893708648879738  0.5276252147740126  0.6766178068461032  1.0000
  C   C13       1.0  0.9393569517733978  0.5174884894685051  0.41357955030332505  1.0000
  C   C14       1.0  0.0824705896849309  0.5089615183297697  0.41803892435491  1.0000
  C   C15       1.0  0.0626098002136075  0.48667337710977426  0.5708046859258218  1.0000
  C   C16       1.0  0.0634270650139186  0.47963272639486126  0.6756857777881962  1.0000
  C   C17       1.0  0.8970845770972885  0.48044617930797545  0.6696550646107227  1.0000
  C   C18       1.0  0.5165850919415432  0.2652775247574226  0.5021671815824789  1.0000
  C   C19       1.0  0.4769188410210532  0.46268536378374153  0.30988305498948426  1.0000
  C   C20       1.0  0.4949515446821238  0.5217205541128894  0.7755980479220455  1.0000
  C   C21       1.0  0.4944533070635017  0.5085035057846384  0.8590608032924153  1.0000
  C   C22       1.0  0.49238594482079623  0.49402010959077824  0.9501854630423381  1.0000
  C   C23       1.0  0.48859360110875383  0.4809375241202504  0.0341189604374961  1.0000
  C   C24       1.0  0.4836219154193912  0.46968537091790813  0.1257620161038133  1.0000
  C   C25       1.0  0.8250613532757284  0.3720275317435054  0.6966017355397439  1.0000
  C   C26       1.0  0.13840335988070512  0.8605234315814344  0.4856558408172091  1.0000
  C   C27       1.0  0.1438742866297957  0.8928150410358882  0.3850047506698573  1.0000
  C   C28       1.0  0.8851620482457676  0.5420357445221528  0.32635746076910976  1.0000
  C   C29       1.0  0.12176759043548199  0.37424809337967  0.7108688811436679  1.0000
  N   N1        1.0  0.8549608492895047  0.5066872435446117  0.4888761190943356  1.0000
  N   N2        1.0  0.1463656241485012  0.4937449797612815  0.4979997037224635  1.0000
  N   N3        1.0  0.771538090228816  0.2838146770869799  0.7199617198870386  1.0000
  N   N4        1.0  0.8540820034812738  0.5656790111810539  0.2527380820060969  1.0000
  N   N5        1.0  0.1649747318739685  0.288704741150447  0.7402735309530826  1.0000
  O   O1        1.0  0.3965350664648  0.6751900205479942  0.4922595284473417  1.0000
  O   O2        1.0  0.6268936300522513  0.680260623489197  0.47294622636752587  1.0000
  O   O3        1.0  0.3703515772591999  0.5220118184888494  0.6417515719472319  1.0000
  O   O4        1.0  0.602792556680832  0.5364294902352001  0.6323993559211445  1.0000
  O   O5        1.0  0.40089697807689356  0.3163979885033257  0.5037770462774631  1.0000
  O   O6        1.0  0.6328033639395798  0.32111263005118945  0.5020507145217081  1.0000
  O   O7        1.0  0.3608776528942883  0.4716482325378595  0.35148524327759395  1.0000
  O   O8        1.0  0.5919362341255408  0.45641315427333523  0.3480730965345629  1.0000
