data_image0
_chemical_formula_structural       CuH6C11SN7
_chemical_formula_sum              "Cu1 H6 C11 S1 N7"
_cell_length_a       5.512671019348113
_cell_length_b       5.965707208912133
_cell_length_c       10.066736002177562
_cell_angle_alpha    89.31874078343958
_cell_angle_beta     74.0932035086173
_cell_angle_gamma    87.58776144802628

_space_group_name_H-M_alt    "P 1"
_space_group_IT_number       1

loop_
  _space_group_symop_operation_xyz
  'x, y, z'

loop_
  _atom_site_type_symbol
  _atom_site_label
  _atom_site_symmetry_multiplicity
  _atom_site_fract_x
  _atom_site_fract_y
  _atom_site_fract_z
  _atom_site_occupancy
  Cu  Cu1       1.0  0.37427072319686516  0.5097417561933855  0.9999559089634429  1.0000
  H   H1        1.0  0.8945131554854766  0.7559226834861477  0.14333989377047357  1.0000
  H   H2        1.0  0.038340639562761916  0.7556139610061906  0.8566089467091159  1.0000
  H   H3        1.0  0.2446855418911227  0.15580371151544634  0.22158296020685947  1.0000
  H   H4        1.0  0.4668539205026225  0.15559837602828708  0.7781838062633283  1.0000
  H   H5        1.0  0.8717918491079714  0.08188366727807761  0.4230852936339458  1.0000
  H   H6        1.0  0.2949870145757672  0.08173458031293991  0.5769211159346668  1.0000
  C   C1        1.0  0.5724953139133716  0.986387331534921  4.299362003606476e-07  1.0000
  C   C2        1.0  0.6814330554478333  0.5569394597092127  0.3153154897532317  1.0000
  C   C3        1.0  0.9968586253256575  0.5565838314054615  0.6848586610426179  1.0000
  C   C4        1.0  0.4668994967674964  0.71072845980963  0.35016643210976633  1.0000
  C   C5        1.0  0.8170323796821393  0.7102239160604996  0.6499985751609855  1.0000
  C   C6        1.0  0.8896180309620191  0.6035403622424909  0.204627759592256  1.0000
  C   C7        1.0  0.09458460562574103  0.603227991370389  0.7953805240579966  1.0000
  C   C8        1.0  0.08143669585942354  0.2723310671360295  0.24826641181964249  1.0000
  C   C9        1.0  0.3301179325099638  0.2721011169566481  0.7516397469106266  1.0000
  C   C10       1.0  0.8729932373681776  0.2312969866031764  0.3597043726935495  1.0000
  C   C11       1.0  0.23289417357715067  0.23107004870585263  0.6403291501104533  1.0000
  S   S1        1.0  0.6905714766370605  0.2330350991162859  0.9999542997157318  1.0000
  N   N1        1.0  0.4960100090439926  0.8036998631901967  0.9999953688886263  1.0000
  N   N2        1.0  0.6698845230484524  0.3710383740417385  0.39355313804438197  1.0000
  N   N3        1.0  0.06341941341321439  0.3707493829568378  0.606642510296858  1.0000
  N   N4        1.0  0.09028041851593833  0.4581098369533407  0.17018068665609576  1.0000
  N   N5        1.0  0.26092835169738754  0.45780416283977127  0.8297192398178908  1.0000
  N   N6        1.0  0.2927125978684444  0.8362754517320069  0.37841875600854985  1.0000
  N   N7        1.0  0.6711676610628386  0.8356432745157107  0.621567438950656  1.0000
