data_image0
_chemical_formula_structural       Cu2H40C52N4Cl4O10
_chemical_formula_sum              "Cu2 H40 C52 N4 Cl4 O10"
_cell_length_a       9.998384606729568
_cell_length_b       10.430616299448197
_cell_length_c       13.33927665331648
_cell_angle_alpha    112.94805038687359
_cell_angle_beta     102.51075373841715
_cell_angle_gamma    90.04543951010066

_space_group_name_H-M_alt    "P 1"
_space_group_IT_number       1

loop_
  _space_group_symop_operation_xyz
  'x, y, z'

loop_
  _atom_site_type_symbol
  _atom_site_label
  _atom_site_symmetry_multiplicity
  _atom_site_fract_x
  _atom_site_fract_y
  _atom_site_fract_z
  _atom_site_occupancy
  Cu  Cu1       1.0  0.9999995492422613  0.9999969807008282  0.9999988738266481  1.0000
  Cu  Cu2       1.0  0.49999787618513375  3.596421585399642e-06  1.573419766004794e-06  1.0000
  H   H1        1.0  0.7024486771686468  0.07889092615477006  0.9383145208251663  1.0000
  H   H2        1.0  0.7976452136154464  0.1404610782802535  0.06163615299777092  1.0000
  H   H3        1.0  0.29754807658129323  0.9211092062055922  0.06168187788058779  1.0000
  H   H4        1.0  0.20235571854286857  0.8595285808974465  0.9383614332596152  1.0000
  H   H5        1.0  0.7926640126539296  0.2695873987478804  0.5750918369527938  1.0000
  H   H6        1.0  0.7077396568790489  0.6945326259127923  0.4249921576223628  1.0000
  H   H7        1.0  0.20732715604633967  0.7304074523519474  0.42490803239957137  1.0000
  H   H8        1.0  0.29226866475248403  0.30547064173870797  0.5750108149211571  1.0000
  H   H9        1.0  0.711275892384016  0.19122841058980805  0.70864481660729  1.0000
  H   H10       1.0  0.7890441175347858  0.48298770371284394  0.2916043343267063  1.0000
  H   H11       1.0  0.2887137979102761  0.8087727162240055  0.291356002250062  1.0000
  H   H12       1.0  0.2109685794150664  0.5170187358895928  0.7083965713911908  1.0000
  H   H13       1.0  0.7599343286035634  0.3437614690476635  0.908952640671103  1.0000
  H   H14       1.0  0.7401950530496179  0.43548212979911216  0.09119369228099561  1.0000
  H   H15       1.0  0.24005843574279603  0.6562396642435857  0.09104867391155831  1.0000
  H   H16       1.0  0.25981328242204427  0.5645326706581667  0.9088083433451359  1.0000
  H   H17       1.0  0.8856181270134442  0.582294604612265  0.9790912580403203  1.0000
  H   H18       1.0  0.614443348068022  0.603659451785539  0.02076761623049338  1.0000
  H   H19       1.0  0.11438254042526098  0.41770342923423687  0.02090737069526932  1.0000
  H   H20       1.0  0.3855641695195756  0.39635739671182785  0.9792409174592223  1.0000
  H   H21       1.0  0.7824250294452497  0.9056478625609045  0.7916595891026148  1.0000
  H   H22       1.0  0.7174348847862787  0.11457487515004768  0.2087536538438499  1.0000
  H   H23       1.0  0.21757601204311777  0.09435437523172398  0.2083373983016514  1.0000
  H   H24       1.0  0.2825628699199925  0.8854137524505956  0.7912401050355555  1.0000
  H   H25       1.0  0.7561090278507835  0.8956477326610753  0.5988626188669672  1.0000
  H   H26       1.0  0.7440583390517971  0.2974154915059727  0.4015637973028134  1.0000
  H   H27       1.0  0.24388987273463414  0.10435344464934806  0.40113519678369164  1.0000
  H   H28       1.0  0.25593653455977966  0.7025752160581502  0.5984308903769318  1.0000
  H   H29       1.0  0.16588727140531026  0.11024702781192991  0.7093699944086893  1.0000
  H   H30       1.0  0.3346479079184234  0.4016593172460218  0.2906857622000416  1.0000
  H   H31       1.0  0.8341238081482769  0.8897416175028491  0.29062740940790377  1.0000
  H   H32       1.0  0.6653552046881686  0.598354436961152  0.709313612358777  1.0000
  H   H33       1.0  0.17397722591766038  0.11252894206329955  0.8963780947553845  1.0000
  H   H34       1.0  0.32615541986638863  0.2163196845230359  0.10388181146586106  1.0000
  H   H35       1.0  0.8260241797352776  0.8874659565149015  0.10361968502915882  1.0000
  H   H36       1.0  0.6738414412360852  0.7836930316296459  0.896113239989667  1.0000
  H   H37       1.0  0.8455224452125449  0.9491981492352218  0.465694474649517  1.0000
  H   H38       1.0  0.6548231268387923  0.4849266265786197  0.5343525047258739  1.0000
  H   H39       1.0  0.1544814833030657  0.050801993061781986  0.5343038291457135  1.0000
  H   H40       1.0  0.3451722360874995  0.5150692789669475  0.46564836365783446  1.0000
  C   C1        1.0  0.9136936591237159  0.5578822258498944  0.8178461801914311  1.0000
  C   C2        1.0  0.5865612127833727  0.740197819147539  0.1820285096369361  1.0000
  C   C3        1.0  0.08630487136706219  0.4421147371596417  0.182154773584756  1.0000
  C   C4        1.0  0.41343155749552096  0.25980329861155826  0.8179750501370294  1.0000
  C   C5        1.0  0.8866527240081936  0.46798419012282705  0.7041177695334468  1.0000
  C   C6        1.0  0.6137051475115172  0.7638659824418067  0.2957926956851864  1.0000
  C   C7        1.0  0.11335251566368494  0.5320075227133072  0.29588788939346944  1.0000
  C   C8        1.0  0.3862981501448601  0.23613830986835183  0.7042112855079738  1.0000
  C   C9        1.0  0.8143523242245863  0.3363651986371535  0.6641815224987938  1.0000
  C   C10       1.0  0.6860896706272043  0.6723596445531966  0.3358852210431067  1.0000
  C   C11       1.0  0.185642111485123  0.6636317453810318  0.3358202671045162  1.0000
  C   C12       1.0  0.31391483676051013  0.32764675706655294  0.664117356329058  1.0000
  C   C13       1.0  0.7692677129010831  0.2926223814999884  0.7385915681362222  1.0000
  C   C14       1.0  0.7311626637273178  0.5544102783263155  0.26155599649965916  1.0000
  C   C15       1.0  0.2307326819104176  0.7073724786773922  0.26141128518626294  1.0000
  C   C16       1.0  0.2688471580603746  0.44559822570744945  0.738448083209889  1.0000
  C   C17       1.0  0.7960519999872915  0.3800071301511777  0.8522813448515694  1.0000
  C   C18       1.0  0.704181799107637  0.5282589945620656  0.14782914731094374  1.0000
  C   C19       1.0  0.2039563993390203  0.6199856608584539  0.14772140587941607  1.0000
  C   C20       1.0  0.29583409111189946  0.4717600042458299  0.8521753972646522  1.0000
  C   C21       1.0  0.8662965915850548  0.5117667532994332  0.8909262368495235  1.0000
  C   C22       1.0  0.6339170350947682  0.6212085057592771  0.10898348058901049  1.0000
  C   C23       1.0  0.13370072324184426  0.48822811593266363  0.10907387555634773  1.0000
  C   C24       1.0  0.36609102379466657  0.37880313138364125  0.8910212828298187  1.0000
  C   C25       1.0  0.9892482451423773  0.7014941210914001  0.8649964525195984  1.0000
  C   C26       1.0  0.510826728413363  0.8365245088972697  0.13489090466860884  1.0000
  C   C27       1.0  0.010742921580387595  0.29850073518581866  0.1350026684356607  1.0000
  C   C28       1.0  0.4891636026277197  0.16347244201648437  0.8651079787763296  1.0000
  C   C29       1.0  0.864898771829111  0.9484548897251623  0.7690035467500138  1.0000
  C   C30       1.0  0.6351128124975604  0.17998202239476765  0.23143738058752925  1.0000
  C   C31       1.0  0.13510394497763656  0.05154314843963448  0.23099541246911315  1.0000
  C   C32       1.0  0.36488823096831874  0.8200202102204768  0.7685603552138361  1.0000
  C   C33       1.0  0.8518996142334883  0.9423023098574245  0.6615436635002397  1.0000
  C   C34       1.0  0.6483267332697267  0.28140375928646927  0.338798201487343  1.0000
  C   C35       1.0  0.1481019823993108  0.057694680339075384  0.338454792412847  1.0000
  C   C36       1.0  0.35166983543288677  0.7185942659234499  0.6611997662811718  1.0000
  C   C37       1.0  0.9612958581321748  0.9968169587540952  0.6344653611333368  1.0000
  C   C38       1.0  0.5390553064385556  0.3629551497052787  0.3655600642085873  1.0000
  C   C39       1.0  0.0387030424532426  0.0031842185563277993  0.36553245451732164  1.0000
  C   C40       1.0  0.46094368963679944  0.6370470734142939  0.6344380895063395  1.0000
  C   C41       1.0  0.07852143564095829  0.0611790266841794  0.7220498567522641  1.0000
  C   C42       1.0  0.42181239850935265  0.33975867360489787  0.2780618262227605  1.0000
  C   C43       1.0  0.9214859192262135  0.938813813940136  0.27794524476593807  1.0000
  C   C44       1.0  0.578182880789626  0.6602477241146827  0.7219370187821854  1.0000
  C   C45       1.0  0.08362103360520477  0.06499075908579498  0.8277945004016093  1.0000
  C   C46       1.0  0.416557102652682  0.23755310239143762  0.17244580816928592  1.0000
  C   C47       1.0  0.9163845603412142  0.9350052094702967  0.17220203322297306  1.0000
  C   C48       1.0  0.5834425381244871  0.7624449344733006  0.8275519069274325  1.0000
  C   C49       1.0  0.94841001199552  0.9853261403086075  0.520477952542734  1.0000
  C   C50       1.0  0.5517957335709767  0.4654820144419033  0.47955812570011613  1.0000
  C   C51       1.0  0.05159372751774071  0.014671905192713594  0.4795204235210521  1.0000
  C   C52       1.0  0.4481995299103615  0.5345128556492822  0.5204409078251189  1.0000
  N   N1        1.0  0.9791700614823  0.007555084626339696  0.8507535024173124  1.0000
  N   N2        1.0  0.5208584233759267  0.15722976156777688  0.14972748562004767  1.0000
  N   N3        1.0  0.02083293783921647  0.9924461013206662  0.14924497420042113  1.0000
  N   N4        1.0  0.4791439292662574  0.8427756158114474  0.8502706812188023  1.0000
  Cl  Cl1       1.0  0.9326515747247155  0.522189306154466  0.6070468458802978  1.0000
  Cl  Cl2       1.0  0.5675255613413269  0.9147058485138118  0.3927874435460126  1.0000
  Cl  Cl3       1.0  0.06734369666666846  0.477805543227184  0.39295518123334006  1.0000
  Cl  Cl4       1.0  0.4324712319588571  0.08529418029890218  0.6072239231017634  1.0000
  O   O1        1.0  0.10275120765400908  0.716776337042155  0.8431946375743636  1.0000
  O   O2        1.0  0.3973687211398342  0.8733616027046335  0.1567860308723467  1.0000
  O   O3        1.0  0.8972391154770206  0.28322063458112007  0.15680125228217182  1.0000
  O   O4        1.0  0.6026229230325697  0.12663848261832558  0.8432147804042673  1.0000
  O   O5        1.0  0.927124893012113  0.797594797437874  0.9274729097515433  1.0000
  O   O6        1.0  0.5727648867659382  0.8703701972540826  0.07229556897423342  1.0000
  O   O7        1.0  0.07286514958167338  0.20239902122581543  0.0725242111034774  1.0000
  O   O8        1.0  0.4272280744928167  0.12963301212331396  0.9277086669282755  1.0000
  O   O9        1.0  0.7501162703776529  0.05135598713579978  0.9999470158972132  1.0000
  O   O10       1.0  0.2498780520445152  0.948639957669684  4.7700067916818376e-05  1.0000
