data_image0
_chemical_formula_structural       Zr6H13C52S10Br2N5O42
_chemical_formula_sum              "Zr6 H13 C52 S10 Br2 N5 O42"
_cell_length_a       16.441114757566876
_cell_length_b       16.45636962921817
_cell_length_c       16.514781307358536
_cell_angle_alpha    61.82082529663082
_cell_angle_beta     59.85636084709972
_cell_angle_gamma    60.227908599558084

_space_group_name_H-M_alt    "P 1"
_space_group_IT_number       1

loop_
  _space_group_symop_operation_xyz
  'x, y, z'

loop_
  _atom_site_type_symbol
  _atom_site_label
  _atom_site_symmetry_multiplicity
  _atom_site_fract_x
  _atom_site_fract_y
  _atom_site_fract_z
  _atom_site_occupancy
  Zr  Zr1       1.0  0.8879027434884179  0.9016025415235163  0.5982957891840215  1.0000
  Zr  Zr2       1.0  0.11059429422743249  0.10211536937549678  0.39810750286529384  1.0000
  Zr  Zr3       1.0  0.10201038169694236  0.8937461081168081  0.6071856874369247  1.0000
  Zr  Zr4       1.0  0.8962189623903001  0.11074784436549842  0.3896132932148718  1.0000
  Zr  Zr5       1.0  0.10841153631835014  0.8925440344587017  0.3893935923759172  1.0000
  Zr  Zr6       1.0  0.8893018123367963  0.11114118234331728  0.6077180191473986  1.0000
  H   H1        1.0  0.07833176043153876  0.7521901929661606  0.5777240116877281  1.0000
  H   H2        1.0  0.0915954571456652  0.08073918562987363  0.24856096468481328  1.0000
  H   H3        1.0  0.082220697902116  0.08241235937928339  0.589693776208705  1.0000
  H   H4        1.0  0.7443036800553814  0.09308117499407599  0.578226853741988  1.0000
  H   H5        1.0  0.12518599245861148  0.6112534631236314  0.36106383624822763  1.0000
  H   H6        1.0  0.6048105113138218  0.13049887367908047  0.8958075107709431  1.0000
  H   H7        1.0  0.871173674322435  0.1283870150448791  0.11460876831902306  1.0000
  H   H8        1.0  0.6216205669409833  0.39445118515094885  0.36413453178905536  1.0000
  H   H9        1.0  0.10405719327736325  0.6341605187231706  0.8713924878026731  1.0000
  H   H10       1.0  0.8395599796657435  0.6601823654354108  0.853566866389471  1.0000
  H   H11       1.0  0.8874115393113797  0.3787672174163745  0.13353776247816998  1.0000
  H   H12       1.0  0.15359523037875533  0.35070584953962214  0.1495560405037821  1.0000
  H   H13       1.0  0.6185480995694518  0.8769971323988769  0.6134577038084642  1.0000
  C   C1        1.0  0.9952063213346847  0.7374737009484136  0.48546079606779113  1.0000
  C   C2        1.0  0.28149839021859446  0.9872747508562937  0.23550067341741246  1.0000
  C   C3        1.0  0.9962316151167202  0.2728716430998759  0.5043666640003367  1.0000
  C   C4        1.0  0.7238451574074461  0.007754348720332737  0.7684370914916768  1.0000
  C   C5        1.0  0.9817690902340672  0.7412422828687681  0.7662080458601253  1.0000
  C   C6        1.0  0.7307993540395118  0.0051261027333495785  0.48742776828063233  1.0000
  C   C7        1.0  0.011180410203600477  0.26933576482541344  0.23643732220578784  1.0000
  C   C8        1.0  0.27490660006153433  0.9921265576445037  0.501341735912888  1.0000
  C   C9        1.0  0.2737262616474395  0.7316143347820442  0.49551601243647525  1.0000
  C   C10       1.0  0.9895618564885781  0.9983317882445206  0.7774482850543479  1.0000
  C   C11       1.0  0.7326121199417128  0.28003851363823884  0.4945103806852345  1.0000
  C   C12       1.0  0.00026356766561271987  0.9991686496560063  0.22666467735030693  1.0000
  C   C13       1.0  0.9264869298037014  0.4227116051476971  0.5625183881111868  1.0000
  C   C14       1.0  0.06202783985879286  0.592029320998499  0.4233252489585483  1.0000
  C   C15       1.0  0.993478837558612  0.36536962771695886  0.4999000498420541  1.0000
  C   C16       1.0  0.9945158535511567  0.6478309451850989  0.48705846208905257  1.0000
  C   C17       1.0  0.03683558700109302  0.5096816549174717  0.45140457565644715  1.0000
  C   C18       1.0  0.950361763867093  0.5050631053435238  0.5364385100603855  1.0000
  C   C19       1.0  0.4254372339607786  0.9231783093216276  0.09007322506217716  1.0000
  C   C20       1.0  0.5857303854422042  0.06732102022608889  0.9159997156874553  1.0000
  C   C21       1.0  0.37175693349162514  0.9865180215433041  0.14698745982672537  1.0000
  C   C22       1.0  0.6378429984990389  0.0034131523948275518  0.8604220876106581  1.0000
  C   C23       1.0  0.5072145814240159  0.038300512981251665  0.9991905604138794  1.0000
  C   C24       1.0  0.5021134757111909  0.9524821441771109  0.004714449686453238  1.0000
  C   C25       1.0  0.05423174273005312  0.9288051201871285  0.9185466102789591  1.0000
  C   C26       1.0  0.9310700584554539  0.06526984735493348  0.09100173805098398  1.0000
  C   C27       1.0  0.9886471768024878  0.9959185597243945  0.8681649260333657  1.0000
  C   C28       1.0  0.9979638322300485  0.9975148043928215  0.1394536438497483  1.0000
  C   C29       1.0  0.9525176247287206  0.040251247505622784  0.0098091062440274  1.0000
  C   C30       1.0  0.03561329300431736  0.9534693846768505  0.9987009410414631  1.0000
  C   C31       1.0  0.41710450447282454  0.5957270339673073  0.5591337831606396  1.0000
  C   C32       1.0  0.5958564573013729  0.41838885261075387  0.4267122197578601  1.0000
  C   C33       1.0  0.3665608293494529  0.6460163394052572  0.4932664493487522  1.0000
  C   C34       1.0  0.6439716203090526  0.36965795227467874  0.49411646802217046  1.0000
  C   C35       1.0  0.5118637919742923  0.5001609164779737  0.4516701601243014  1.0000
  C   C36       1.0  0.4987666476807318  0.5114919365203222  0.5375450029462668  1.0000
  C   C37       1.0  0.04355795225196582  0.6068822634587008  0.8999991106824795  1.0000
  C   C38       1.0  0.8933443566029665  0.6212576523529236  0.8908464988548063  1.0000
  C   C39       1.0  0.8851652492821314  0.5407507742843337  0.9717923147230677  1.0000
  C   C40       1.0  0.9553935927603517  0.4885349352309304  0.021266476928367615  1.0000
  C   C41       1.0  0.9483309968657209  0.4055956563506983  0.10435548623241424  1.0000
  C   C42       1.0  0.0991699811245327  0.39023899868663386  0.11293110142019461  1.0000
  C   C43       1.0  0.10782910900172732  0.4706694525411592  0.03165974701267519  1.0000
  C   C44       1.0  0.03679242717748804  0.5235318626307901  0.9828634643116915  1.0000
  C   C45       1.0  0.9734412269506549  0.6545293799085531  0.8548780210152244  1.0000
  C   C46       1.0  0.01854552429391285  0.3576271970565017  0.1493937844823137  1.0000
  C   C47       1.0  0.4166585617204389  0.05730671020054256  0.4312749807447461  1.0000
  C   C48       1.0  0.594004311629952  0.9360308041637141  0.5538980350758537  1.0000
  C   C49       1.0  0.3662404916366457  0.9913703263114751  0.49777608811425006  1.0000
  C   C50       1.0  0.642927890265696  0.0027698591913107966  0.4870655689525237  1.0000
  C   C51       1.0  0.5110545709689022  0.9565098794088555  0.5333767269985046  1.0000
  C   C52       1.0  0.49933749630515917  0.03888471166482795  0.4505555544175195  1.0000
  S   S1        1.0  0.08738670571061402  0.4122581734159495  0.4072041305200146  1.0000
  S   S2        1.0  0.9003182929042451  0.6015547435421169  0.5815056425476042  1.0000
  S   S3        1.0  0.41609563108480063  0.08240818702794435  0.09663398175256081  1.0000
  S   S4        1.0  0.5926905085718346  0.9082036421796362  0.9075075385475772  1.0000
  S   S5        1.0  0.9018797632775132  0.09064881086170837  0.919905571866025  1.0000
  S   S6        1.0  0.08761094733994677  0.9034649803448572  0.0871390164828796  1.0000
  S   S7        1.0  0.4211605818354515  0.5907194786860116  0.40228768198114306  1.0000
  S   S8        1.0  0.5883433853899973  0.42189195501985927  0.5879342150451592  1.0000
  S   S9        1.0  0.4204482990048886  0.9048001229386313  0.5854946515834955  1.0000
  S   S10       1.0  0.5896802426047427  0.09084443931332233  0.3985904503643384  1.0000
  Br  Br1       1.0  0.21865657455940382  0.5102188278073428  0.983410822161801  1.0000
  Br  Br2       1.0  0.7759288070278316  0.4990727672725013  0.017369432863077232  1.0000
  N   N1        1.0  0.8395465389014093  0.40162285779938856  0.6481836727917029  1.0000
  N   N2        1.0  0.4080970497058019  0.8342094099625825  0.1130818104724441  1.0000
  N   N3        1.0  0.13539902268589546  0.8399272884943585  0.8941020766443871  1.0000
  N   N4        1.0  0.39442960501821733  0.6236209130487678  0.6423667927521635  1.0000
  N   N5        1.0  0.3892055207428058  0.13933190107452734  0.3485882739551728  1.0000
  O   O1        1.0  0.9236911570786078  0.7755651822984432  0.553252478800836  1.0000
  O   O2        1.0  0.2477009860100949  0.05536512503853437  0.2727255817278618  1.0000
  O   O3        1.0  0.06861069208988364  0.23449120331684978  0.43731665416007104  1.0000
  O   O4        1.0  0.7571613411782678  0.9413104033318335  0.7290346351284712  1.0000
  O   O5        1.0  0.05318882677459424  0.7718218738897489  0.7346889185534735  1.0000
  O   O6        1.0  0.766068646771778  0.07310245447205704  0.42119545678742304  1.0000
  O   O7        1.0  0.9400306688484222  0.23866532209944316  0.2669788393957617  1.0000
  O   O8        1.0  0.2381526138970713  0.9260183489709561  0.5690963980381554  1.0000
  O   O9        1.0  0.24153451051741107  0.763809047515842  0.42604937977310436  1.0000
  O   O10       1.0  0.9213364128707295  0.068601005853708  0.7438572151343265  1.0000
  O   O11       1.0  0.7644899800198814  0.24522487992631867  0.5648900632306848  1.0000
  O   O12       1.0  0.0689382939013043  0.929681504889018  0.26021583245336904  1.0000
  O   O13       1.0  0.06032419170828271  0.9307549284999723  0.7390465271637157  1.0000
  O   O14       1.0  0.7696099233292415  0.24342795732263767  0.42497917466300805  1.0000
  O   O15       1.0  0.9335846720030787  0.070909500663298  0.260913912321584  1.0000
  O   O16       1.0  0.23210486369580277  0.7648838393650336  0.5681871595044328  1.0000
  O   O17       1.0  0.9161832297453285  0.778092547239851  0.7266812282838584  1.0000
  O   O18       1.0  0.23929041600535322  0.061957968883689325  0.4354156755084447  1.0000
  O   O19       1.0  0.07918165072815245  0.22937278410613965  0.2736519633034362  1.0000
  O   O20       1.0  0.7634613611804683  0.9384346819140247  0.5562758231357704  1.0000
  O   O21       1.0  0.7576101044731728  0.07686107565206156  0.7351742493657768  1.0000
  O   O22       1.0  0.0670026803014991  0.7687546652538941  0.41871398838920015  1.0000
  O   O23       1.0  0.24316914955168328  0.922568447557239  0.26557539444577566  1.0000
  O   O24       1.0  0.927760616715055  0.23851966364996  0.574594726851018  1.0000
  O   O25       1.0  0.8168027340037368  0.06782160398725516  0.5549819676528713  1.0000
  O   O26       1.0  0.058092257967352574  0.05935024861841501  0.5644493984745083  1.0000
  O   O27       1.0  0.06562976173114511  0.05766615782565761  0.31959762121511665  1.0000
  O   O28       1.0  0.05602751827487418  0.8232106236884107  0.5540558079474354  1.0000
  O   O29       1.0  0.13363175022986737  0.9530870098148014  0.4566333598303487  1.0000
  O   O30       1.0  0.9557884582528258  0.9602072352805635  0.44930432020758815  1.0000
  O   O31       1.0  0.956988503062469  0.13401616696149435  0.4573704402938858  1.0000
  O   O32       1.0  0.9501081389850725  0.9610930215622273  0.6303302163744962  1.0000
  O   O33       1.0  0.8475332258013707  0.3693530096423742  0.729358290457867  1.0000
  O   O34       1.0  0.765025957363484  0.42089283297116953  0.6326303336516615  1.0000
  O   O35       1.0  0.3886130724345592  0.8313101067537546  0.051234050243820745  1.0000
  O   O36       1.0  0.4178390579915147  0.7682660922734215  0.18912592662893968  1.0000
  O   O37       1.0  0.22153955427330643  0.8387835179504533  0.864576629510971  1.0000
  O   O38       1.0  0.1114293113103957  0.7728321210159665  0.9085546000072853  1.0000
  O   O39       1.0  0.38009920891757804  0.5604893038827827  0.7233988913218427  1.0000
  O   O40       1.0  0.39619287989904  0.7043008989301144  0.6254168140300534  1.0000
  O   O41       1.0  0.3423032252398457  0.2213558926323387  0.3611200382900464  1.0000
  O   O42       1.0  0.41909670272519856  0.12055959379291889  0.272189794251382  1.0000
