data_image0
_chemical_formula_structural       Zn2H19C35N3O8
_chemical_formula_sum              "Zn2 H19 C35 N3 O8"
_cell_length_a       9.749601651360082
_cell_length_b       11.041272576330538
_cell_length_c       15.237797437314256
_cell_angle_alpha    92.49973174675665
_cell_angle_beta     87.73916298353684
_cell_angle_gamma    90.90066969052347

_space_group_name_H-M_alt    "P 1"
_space_group_IT_number       1

loop_
  _space_group_symop_operation_xyz
  'x, y, z'

loop_
  _atom_site_type_symbol
  _atom_site_label
  _atom_site_symmetry_multiplicity
  _atom_site_fract_x
  _atom_site_fract_y
  _atom_site_fract_z
  _atom_site_occupancy
  Zn  Zn1       1.0  0.6383073618308116  0.5049477510339955  0.49807282919137214  1.0000
  Zn  Zn2       1.0  0.35174194097445616  0.4975827806406556  0.5041910557856895  1.0000
  H   H1        1.0  0.2929922568603445  0.4362087406804277  0.7785101748164251  1.0000
  H   H2        1.0  0.2803748387626825  0.1060474116188459  0.5464166085595323  1.0000
  H   H3        1.0  0.7905583723706258  0.13822294153841602  0.408196194494586  1.0000
  H   H4        1.0  0.8307048461067053  0.11263365917005792  0.5194163888663894  1.0000
  H   H5        1.0  0.7712151162040612  0.9184331368804023  0.3737775414641434  1.0000
  H   H6        1.0  0.111927759272568  0.4456166622065184  0.6319143680940655  1.0000
  H   H7        1.0  0.8529179395108387  0.4460416318363302  0.6291980176195935  1.0000
  H   H8        1.0  0.888013225862281  0.5161176437481743  0.2942776332120047  1.0000
  H   H9        1.0  0.8779783414441479  0.6696174350253798  0.33688233833252923  1.0000
  H   H10       1.0  0.14863385913002963  0.5295021874658802  0.2976096116145968  1.0000
  H   H11       1.0  0.6884215532543861  0.6124247064215851  0.7809938693897677  1.0000
  H   H12       1.0  0.13681038082540203  0.6799575307732441  0.34536629899336196  1.0000
  H   H13       1.0  0.8030580180623162  0.655161273628039  0.923333013553183  1.0000
  H   H14       1.0  0.8061303318039704  0.6361054486103868  0.0843663546912339  1.0000
  H   H15       1.0  0.6943057864451915  0.5651883060723152  0.22350331096969714  1.0000
  H   H16       1.0  0.3025167022447945  0.3828784140823559  0.2202719544936897  1.0000
  H   H17       1.0  0.18709653061753073  0.3415485598685848  0.0781082634565919  1.0000
  H   H18       1.0  0.182943311322127  0.3625875580926277  0.9173286988668112  1.0000
  H   H19       1.0  0.2838546063924524  0.8805703105478246  0.5315024708503132  1.0000
  C   C1        1.0  0.5004447222509681  0.7353352930964407  0.4860231411689854  1.0000
  C   C2        1.0  0.37936502889265705  0.45805455328315503  0.9070886416994028  1.0000
  C   C3        1.0  0.7182418814103001  0.6102290288041418  0.9584648839974079  1.0000
  C   C4        1.0  0.7199263439539862  0.5997227584979754  0.047398098610607106  1.0000
  C   C5        1.0  0.6094428029440166  0.5409545835918408  0.0946960979569127  1.0000
  C   C6        1.0  0.4956072155951787  0.4934843909479767  0.0470899634166813  1.0000
  C   C7        1.0  0.3838750042456667  0.4347110724288754  0.0927777284063183  1.0000
  C   C8        1.0  0.2714622444519037  0.3873233174903278  0.043139556240504404  1.0000
  C   C9        1.0  0.269134177881682  0.39887796119671043  0.9543331331580448  1.0000
  C   C10       1.0  0.6089652278113392  0.5290192964004207  0.18592053948759713  1.0000
  C   C11       1.0  0.4985878390095168  0.47366405169761094  0.23073848264800742  1.0000
  C   C12       1.0  0.49880383165217507  0.47020634910889925  0.3290839948470392  1.0000
  C   C13       1.0  0.3871966743443521  0.42673188608442564  0.1843551795572793  1.0000
  C   C14       1.0  0.6151375558593912  0.9424331421017204  0.4801483186951501  1.0000
  C   C15       1.0  0.4984583612326503  0.8703925518554881  0.4940339638137488  1.0000
  C   C16       1.0  0.37759427782992816  0.9334270575632929  0.5193658940673345  1.0000
  C   C17       1.0  0.37596159356406383  0.05984471743948211  0.5282467104616089  1.0000
  C   C18       1.0  0.4949459381430046  0.1315042449614197  0.5137798924376754  1.0000
  C   C19       1.0  0.6146549318300457  0.0682481310036707  0.49095763107459334  1.0000
  C   C20       1.0  0.7652980904429469  0.0834636125705117  0.4651800528011805  1.0000
  C   C21       1.0  0.7643966070248708  0.9403715986905256  0.4450523256384713  1.0000
  C   C22       1.0  0.0731068164882558  0.5399981511527727  0.43666118583418273  1.0000
  C   C23       1.0  0.49088155398951033  0.2667158783542618  0.5175267324962576  1.0000
  C   C24       1.0  0.05947560292680271  0.4722903802303975  0.5741017394041492  1.0000
  C   C25       1.0  0.9165511233038758  0.472053807254895  0.5725121556222064  1.0000
  C   C26       1.0  0.9302483426948668  0.5381028531918376  0.43467503853808853  1.0000
  C   C27       1.0  0.9289245074646998  0.5825834557026895  0.3424638407834452  1.0000
  C   C28       1.0  0.09190438759686968  0.5882143382546944  0.3457136827811809  1.0000
  C   C29       1.0  0.4898194955652215  0.5291017321795196  0.6729486593722172  1.0000
  C   C30       1.0  0.37933141828969497  0.47070409685323983  0.8159657796006243  1.0000
  C   C31       1.0  0.4905198396180309  0.5248601570640972  0.7711446001520841  1.0000
  C   C32       1.0  0.6028248654513391  0.5704198776300942  0.8172291781811297  1.0000
  C   C33       1.0  0.6057439505138333  0.5629320438147263  0.9088521809325983  1.0000
  C   C34       1.0  0.49356772663331566  0.5049157434006872  0.9546025776745495  1.0000
  C   C35       1.0  0.865616338224065  0.8688472336478628  0.4861996442339774  1.0000
  N   N1        1.0  0.1413370351507766  0.505695289615751  0.5047289786927607  1.0000
  N   N2        1.0  0.8486674589067674  0.5040999737509465  0.5009860116918432  1.0000
  N   N3        1.0  0.9508525141224452  0.812682284461495  0.5166423744963993  1.0000
  O   O1        1.0  0.6185467492619523  0.6871603736664441  0.4785585603066238  1.0000
  O   O2        1.0  0.3854170621137527  0.679404515751294  0.4887760919822456  1.0000
  O   O3        1.0  0.6152208901771629  0.47682473831739  0.3643094490929712  1.0000
  O   O4        1.0  0.38238969996903893  0.46372541536061357  0.3698073342427932  1.0000
  O   O5        1.0  0.6067794838243543  0.3221367189101585  0.5144875236132337  1.0000
  O   O6        1.0  0.3732437253029914  0.3153549584737618  0.5212245140866614  1.0000
  O   O7        1.0  0.6059311196045273  0.5375601283438983  0.6319378190651364  1.0000
  O   O8        1.0  0.3734331604531249  0.5215179390955315  0.63787280751869  1.0000
