data_image0
_chemical_formula_structural       Cu2H28C40N2O16F4
_chemical_formula_sum              "Cu2 H28 C40 N2 O16 F4"
_cell_length_a       9.795099223863021
_cell_length_b       11.243997627961663
_cell_length_c       11.73918472818637
_cell_angle_alpha    75.3724841970571
_cell_angle_beta     62.51862160120912
_cell_angle_gamma    74.60279387358145

_space_group_name_H-M_alt    "P 1"
_space_group_IT_number       1

loop_
  _space_group_symop_operation_xyz
  'x, y, z'

loop_
  _atom_site_type_symbol
  _atom_site_label
  _atom_site_symmetry_multiplicity
  _atom_site_fract_x
  _atom_site_fract_y
  _atom_site_fract_z
  _atom_site_occupancy
  Cu  Cu1       1.0  0.3645842911364029  0.9937844898944234  0.5122264664065383  1.0000
  Cu  Cu2       1.0  0.635395651311171  0.006210479157438402  0.48777952568057265  1.0000
  H   H1        1.0  0.9091949941160066  0.6951019021529347  0.47779698916215113  1.0000
  H   H2        1.0  0.09081332027390937  0.3049158353517427  0.5222065051987245  1.0000
  H   H3        1.0  0.0782133233395896  0.7172161086965262  0.32609449251177125  1.0000
  H   H4        1.0  0.9217906696239099  0.28279712699485776  0.6739021727660273  1.0000
  H   H5        1.0  0.030851560960087485  0.5651545684984925  0.3977037071665848  1.0000
  H   H6        1.0  0.9691508905454214  0.43485936137478387  0.6023001977875211  1.0000
  H   H7        1.0  0.5043294129732344  0.9355372427158317  0.11802321142820914  1.0000
  H   H8        1.0  0.49566078144529496  0.06444967542784498  0.8819755991919465  1.0000
  H   H9        1.0  0.8766149502772647  0.7011446700676275  0.8490955367702567  1.0000
  H   H10       1.0  0.1233978809376666  0.29886611015929526  0.15089327990042992  1.0000
  H   H11       1.0  0.023443360911087965  0.6581717874266247  0.9836561524673116  1.0000
  H   H12       1.0  0.9765629005071116  0.3418414740432922  0.016340524199449584  1.0000
  H   H13       1.0  0.31398456500487265  0.3214648252235293  0.2334377590199352  1.0000
  H   H14       1.0  0.6860160423578633  0.6785389274279083  0.7665630188578232  1.0000
  H   H15       1.0  0.41991071176812517  0.6927494460748916  0.12403851033703012  1.0000
  H   H16       1.0  0.5801037757202252  0.3072488396498656  0.8759634300590449  1.0000
  H   H17       1.0  0.5733410050825113  0.6319213845965805  0.26103135912770636  1.0000
  H   H18       1.0  0.4266735969413347  0.3680723182232414  0.7389681023519187  1.0000
  H   H19       1.0  0.9390933506779644  0.30244501708856564  0.4180294538009548  1.0000
  H   H20       1.0  0.060912614936867636  0.6975548976456736  0.581976984481294  1.0000
  H   H21       1.0  0.7475142134513318  0.2696477253218532  0.531698317973536  1.0000
  H   H22       1.0  0.2524883929686651  0.7303616747059749  0.46830137710863806  1.0000
  H   H23       1.0  0.7895747741101358  0.42082315636606876  0.5047863582422921  1.0000
  H   H24       1.0  0.21042676879831387  0.5791828324740466  0.4952025190003724  1.0000
  H   H25       1.0  0.011381129658111843  0.9608117326634941  0.7095625778795522  1.0000
  H   H26       1.0  0.9886033764898344  0.039188056558551  0.2904398575577217  1.0000
  H   H27       1.0  0.24172950251193012  0.029054358310169396  0.30780895192231833  1.0000
  H   H28       1.0  0.7582566595769508  0.9709436449775878  0.692191547895135  1.0000
  C   C1        1.0  0.982172958688835  0.6646733018782313  0.3825886392290628  1.0000
  C   C2        1.0  0.017829472679728994  0.3353371103127714  0.6174083482298585  1.0000
  C   C3        1.0  0.6298034525854702  0.910682355908982  0.28559206613964244  1.0000
  C   C4        1.0  0.37016897763824363  0.0893153335291501  0.7144135582105093  1.0000
  C   C5        1.0  0.702416830128655  0.8532841061270418  0.16378366550110005  1.0000
  C   C6        1.0  0.2975676896073053  0.14671096754135962  0.8362206184084471  1.0000
  C   C7        1.0  0.618504032093  0.8759012203274567  0.08849863043480619  1.0000
  C   C8        1.0  0.38148301190707196  0.124092973075264  0.9115049105759782  1.0000
  C   C9        1.0  0.6834829460552997  0.8218520573846747  0.9768768934945129  1.0000
  C   C10       1.0  0.3165127409027165  0.1781441573395526  0.023124739736580587  1.0000
  C   C11       1.0  0.8279425911760042  0.7441223377327828  0.9361881142503066  1.0000
  C   C12       1.0  0.1720594027302269  0.25588525058221734  0.06380963382308377  1.0000
  C   C13       1.0  0.9106102173895962  0.7199869241210736  0.011766869511163179  1.0000
  C   C14       1.0  0.08938604131814284  0.28002524897689796  0.988231165311916  1.0000
  C   C15       1.0  0.8487328275409355  0.7744455876742645  0.12339408013538365  1.0000
  C   C16       1.0  0.151261385129061  0.22555614290445897  0.8766094823887799  1.0000
  C   C17       1.0  0.8783324704331859  0.6814632576114477  0.31634099140626404  1.0000
  C   C18       1.0  0.1216709371400242  0.31854222641237573  0.683665206780212  1.0000
  C   C19       1.0  0.4744634829099752  0.22326436741618486  0.3800660211799212  1.0000
  C   C20       1.0  0.525538060330959  0.7767309128560524  0.6199379154079594  1.0000
  C   C21       1.0  0.4589281867476274  0.3546767402171227  0.31203436453370875  1.0000
  C   C22       1.0  0.5410782097806149  0.6453177651571879  0.687966244111145  1.0000
  C   C23       1.0  0.3703204986792982  0.3894963726406074  0.23944438550086747  1.0000
  C   C24       1.0  0.6296916800279176  0.6104983430936031  0.7605514914887976  1.0000
  C   C25       1.0  0.35933807440027  0.5101270598081271  0.17352058307140086  1.0000
  C   C26       1.0  0.6406813067543738  0.48987050407818333  0.8264762984261653  1.0000
  C   C27       1.0  0.4313464445248343  0.5991779825388619  0.17788630027246907  1.0000
  C   C28       1.0  0.5686770966453666  0.400816888617733  0.8221087681842648  1.0000
  C   C29       1.0  0.5167042171848663  0.565494987826355  0.25235178391758956  1.0000
  C   C30       1.0  0.4833209597367655  0.43449807086621195  0.747642214397061  1.0000
  C   C31       1.0  0.5297269586441048  0.44440353200802474  0.3186942169914175  1.0000
  C   C32       1.0  0.4702880203261443  0.5555894239460315  0.6812992973340357  1.0000
  C   C33       1.0  0.7611184946271832  0.3801626387857269  0.35099776371570374  1.0000
  C   C34       1.0  0.23889674015248358  0.6198294111241226  0.6489949963220384  1.0000
  C   C35       1.0  0.8139201086770881  0.33985168597789084  0.45797113406446494  1.0000
  C   C36       1.0  0.1860898888823428  0.6601513433326787  0.542026338648192  1.0000
  C   C37       1.0  0.005704269206177078  0.9783713091820091  0.6158724409087739  1.0000
  C   C38       1.0  0.9942775915932316  0.0216257099747352  0.3841281473207871  1.0000
  C   C39       1.0  0.1328798236623712  0.016019010194405298  0.3934601576297609  1.0000
  C   C40       1.0  0.8671041305403051  0.9839790469040463  0.6065377343655031  1.0000
  N   N1        1.0  0.13856310324621995  0.9942127349757256  0.5092303057633671  1.0000
  N   N2        1.0  0.8614253071078577  0.005785267560817398  0.4907710709207935  1.0000
  O   O1        1.0  0.4810672097382919  0.9272129799760053  0.3428682648526049  1.0000
  O   O2        1.0  0.5189211132563188  0.07278017435818639  0.65713928769253  1.0000
  O   O3        1.0  0.7206303930445798  0.9380408417323307  0.32162879140758355  1.0000
  O   O4        1.0  0.27936155117072303  0.06196086306786699  0.6783747597276176  1.0000
  O   O5        1.0  0.939119236048114  0.7468624873403157  0.19306128170866532  1.0000
  O   O6        1.0  0.06087109920672869  0.2531457985370266  0.8069397601408711  1.0000
  O   O7        1.0  0.7555438204805042  0.6428856971744138  0.3632317691283332  1.0000
  O   O8        1.0  0.2444597489937266  0.35710579936692716  0.6367747816084872  1.0000
  O   O9        1.0  0.3597123024797638  0.1678043159307876  0.4162944262979594  1.0000
  O   O10       1.0  0.6402741557975277  0.8321928343722363  0.5837035882762933  1.0000
  O   O11       1.0  0.6001170748858087  0.17694214922961757  0.3944388654407335  1.0000
  O   O12       1.0  0.39985945473241435  0.8230562590421188  0.6055753252747351  1.0000
  O   O13       1.0  0.6023601298168372  0.41479334983108623  0.40215695369345644  1.0000
  O   O14       1.0  0.3976525806987112  0.5851995803444437  0.5978365492430343  1.0000
  O   O15       1.0  0.8440192841703861  0.383348168626483  0.2351617371321737  1.0000
  O   O16       1.0  0.15598586714083504  0.6166426867924456  0.7648358429728576  1.0000
  F   F1        1.0  0.5997011678244135  0.8456161751703062  0.9037942508130145  1.0000
  F   F2        1.0  0.40030149960168154  0.1543756135737908  0.09620234123529063  1.0000
  F   F3        1.0  0.2737794733642289  0.5427059488735254  0.10213123540264492  1.0000
  F   F4        1.0  0.7262293798731035  0.457297054282904  0.8978666643544102  1.0000
