data_image0
_chemical_formula_structural       Co2H32C42N6O12
_chemical_formula_sum              "Co2 H32 C42 N6 O12"
_cell_length_a       10.63119838487717
_cell_length_b       11.021538884426388
_cell_length_c       11.240202884311318
_cell_angle_alpha    77.43282461815656
_cell_angle_beta     63.1987702392428
_cell_angle_gamma    74.26212444852302

_space_group_name_H-M_alt    "P 1"
_space_group_IT_number       1

loop_
  _space_group_symop_operation_xyz
  'x, y, z'

loop_
  _atom_site_type_symbol
  _atom_site_label
  _atom_site_symmetry_multiplicity
  _atom_site_fract_x
  _atom_site_fract_y
  _atom_site_fract_z
  _atom_site_occupancy
  Co  Co1       1.0  0.4599053484311496  0.45446590173819607  0.909667030795383  1.0000
  Co  Co2       1.0  0.5400952332248182  0.545532129150061  0.09033572434360344  1.0000
  H   H1        1.0  0.6663619437113298  0.8479216814689323  0.5886690668176016  1.0000
  H   H2        1.0  0.33363530680123427  0.15207721149598544  0.41132867749349344  1.0000
  H   H3        1.0  0.7781861575971122  0.014649699437818204  0.5727790083426996  1.0000
  H   H4        1.0  0.22181195788073185  0.985350100375733  0.42721372027897087  1.0000
  H   H5        1.0  0.7420859878623318  0.1647711440171093  0.4835961703006221  1.0000
  H   H6        1.0  0.2579095747650371  0.8352305494695003  0.5163981070814501  1.0000
  H   H7        1.0  0.10843240195408299  0.7321849003470361  0.8120273259182867  1.0000
  H   H8        1.0  0.8915702444206987  0.26781320090711347  0.18797987881982436  1.0000
  H   H9        1.0  0.4488935806875175  0.14654087376519703  0.0015218561601884261  1.0000
  H   H10       1.0  0.5511122961075898  0.8534571411181557  0.9984742148570477  1.0000
  H   H11       1.0  0.9562437173745832  0.9430304757055625  0.785786932741175  1.0000
  H   H12       1.0  0.043759787298384395  0.056968541993192894  0.21421614671348982  1.0000
  H   H13       1.0  0.3719063481543543  0.9091954632358251  0.8917935990309335  1.0000
  H   H14       1.0  0.6280935446403005  0.0908054513369692  0.10821236600848046  1.0000
  H   H15       1.0  0.6122538143935613  0.3492921051826627  0.6190071623230935  1.0000
  H   H16       1.0  0.3877480290626282  0.6507096746538606  0.38098888857862795  1.0000
  H   H17       1.0  0.99074749150607  0.1312103501252793  0.4112855603318767  1.0000
  H   H18       1.0  0.00925184372663075  0.8687885844175863  0.5887139623604085  1.0000
  H   H19       1.0  0.8080896712015146  0.1199685438588887  0.8518134847135457  1.0000
  H   H20       1.0  0.19191698388652167  0.8800305026208546  0.1481891458919833  1.0000
  H   H21       1.0  0.8270817879688296  0.2830807238819872  0.798816673503289  1.0000
  H   H22       1.0  0.17292534858376027  0.7169163681547842  0.2011808491486846  1.0000
  H   H23       1.0  0.2005008063152189  0.4605891366895205  0.45640549471772124  1.0000
  H   H24       1.0  0.7994902594672482  0.539413575610439  0.5435993551564592  1.0000
  H   H25       1.0  0.22335360463323176  0.12218117477294038  0.8602278014557073  1.0000
  H   H26       1.0  0.7766534806252637  0.8778206658265332  0.13976868857209007  1.0000
  H   H27       1.0  0.4998771000513002  0.23102634371558387  0.4613008225081927  1.0000
  H   H28       1.0  0.5001163378533066  0.7689753657689663  0.538697018928559  1.0000
  H   H29       1.0  0.042923937946426294  0.3445279691753668  0.6600509014035723  1.0000
  H   H30       1.0  0.9570752345165021  0.6554671556423557  0.33994864626576043  1.0000
  H   H31       1.0  0.14859233099302568  0.25215884938833705  0.20612373964433325  1.0000
  H   H32       1.0  0.8513999765883469  0.7478476406478408  0.7938770772105173  1.0000
  C   C1        1.0  0.5939650554154098  0.9143632428427962  0.5490461815798257  1.0000
  C   C2        1.0  0.4060327993288482  0.0856375629801818  0.4509517722365501  1.0000
  C   C3        1.0  0.2891202490783371  0.42678441200535383  0.19788445248101286  1.0000
  C   C4        1.0  0.7108773716007446  0.5732173614431274  0.8021151649061624  1.0000
  C   C5        1.0  0.6925563914322054  0.0917421316571563  0.5618844697944  1.0000
  C   C6        1.0  0.30743916452805564  0.9082595714254393  0.43811069799365043  1.0000
  C   C7        1.0  0.24751662480748854  0.8071807587765673  0.8561591509529624  1.0000
  C   C8        1.0  0.7524826637554723  0.19281824293816643  0.1438466045811779  1.0000
  C   C9        1.0  0.13247425751306718  0.8180634523333127  0.8232259135040891  1.0000
  C   C10       1.0  0.8675296819547212  0.18193367809434588  0.1767782908388753  1.0000
  C   C11       1.0  0.5007692087800706  0.1690983624860607  0.8935273414776933  1.0000
  C   C12       1.0  0.49923478402455135  0.8308986911737508  0.10646973961744516  1.0000
  C   C13       1.0  0.07965465494711312  0.044933762884994594  0.8245021338674122  1.0000
  C   C14       1.0  0.9203547357624797  0.9550671708588896  0.17549625178273923  1.0000
  C   C15       1.0  0.047378214321255954  0.9361866095695888  0.8083500319031957  1.0000
  C   C16       1.0  0.9526282600384375  0.0638133277678108  0.1916471390252996  1.0000
  C   C17       1.0  0.006493266764707088  0.2306318312303617  0.5476361258552701  1.0000
  C   C18       1.0  0.9935033395135304  0.7693652064523847  0.45236675138641413  1.0000
  C   C19       1.0  0.2802685818258652  0.9174490404732012  0.8691993670859688  1.0000
  C   C20       1.0  0.7197372616337177  0.08254902239005452  0.1308011559611585  1.0000
  C   C21       1.0  0.5817536373843948  0.2746825890201023  0.7010138310399442  1.0000
  C   C22       1.0  0.4182507389209603  0.7253173259313072  0.29898334231931056  1.0000
  C   C23       1.0  0.1850555826486513  0.36362512924889495  0.31857666993737876  1.0000
  C   C24       1.0  0.8149358733016496  0.636380434746684  0.6814273817949471  1.0000
  C   C25       1.0  0.5937894778316773  0.044112248867342906  0.5283155246734097  1.0000
  C   C26       1.0  0.4062043748664407  0.9558876021340552  0.47168611286957685  1.0000
  C   C27       1.0  0.03611022016082901  0.20491545557692345  0.41956523140382984  1.0000
  C   C28       1.0  0.9638840227051161  0.7950872471200939  0.580435607997302  1.0000
  C   C29       1.0  0.8815633004597744  0.18381476624315243  0.7858198660577642  1.0000
  C   C30       1.0  0.11843965331833317  0.8161822618296882  0.21417588064379334  1.0000
  C   C31       1.0  0.33076898389549564  0.6808908410734558  0.8829379002076722  1.0000
  C   C32       1.0  0.6692264787252996  0.31911099635287593  0.11706973326407415  1.0000
  C   C33       1.0  0.15304202097952674  0.3892127415360561  0.44696712651268916  1.0000
  C   C34       1.0  0.846946732684735  0.6107908872154795  0.5530367181451228  1.0000
  C   C35       1.0  0.19851347720175028  0.03571178536095939  0.8516048021434841  1.0000
  C   C36       1.0  0.8014900208041099  0.9642872419337821  0.14839916771715883  1.0000
  C   C37       1.0  0.49954751251394935  0.12963342595619307  0.47916647665282847  1.0000
  C   C38       1.0  0.5004444249008982  0.8703701835964212  0.520832467125949  1.0000
  C   C39       1.0  0.06398759786026184  0.3243334579499475  0.5616068479333053  1.0000
  C   C40       1.0  0.936011951436292  0.6756645377553597  0.4383936824061224  1.0000
  C   C41       1.0  0.12382411053216909  0.2716237686570581  0.3061672747889546  1.0000
  C   C42       1.0  0.8761678068813693  0.7283798696834936  0.6938343402077578  1.0000
  N   N1        1.0  0.6159354976094632  0.1506462447351069  0.6868081415798741  1.0000
  N   N2        1.0  0.3840644751904491  0.8493545546859167  0.3131871385878001  1.0000
  N   N3        1.0  0.5086362976096694  0.2898714132640663  0.8313193740315866  1.0000
  N   N4        1.0  0.491369365121578  0.7101275404568455  0.16867568933850674  1.0000
  N   N5        1.0  0.5650862522815389  0.0811956542829506  0.8086260389565182  1.0000
  N   N6        1.0  0.43491731906247116  0.918803267455992  0.19136813643836342  1.0000
  O   O1        1.0  0.35171138142273856  0.5009119487247132  0.21581737936765685  1.0000
  O   O2        1.0  0.6482895904010632  0.4990889338591629  0.7841845776294749  1.0000
  O   O3        1.0  0.31256292757073817  0.40090592107382145  0.08358096670951917  1.0000
  O   O4        1.0  0.6874363809935388  0.5990930518529749  0.9164221176066791  1.0000
  O   O5        1.0  0.9219437617197029  0.15709011186019237  0.6530299333964251  1.0000
  O   O6        1.0  0.07806319206179783  0.8429031992393874  0.34697028545053854  1.0000
  O   O7        1.0  0.0005304922955033921  0.16553858497310608  0.8169579124192624  1.0000
  O   O8        1.0  0.9994749297034744  0.8344613459692879  0.1830397049276017  1.0000
  O   O9        1.0  0.3380327625993901  0.5858935507075315  0.8287605324740925  1.0000
  O   O10       1.0  0.6619658817292517  0.41410359572503097  0.17125035599063668  1.0000
  O   O11       1.0  0.3921195214153316  0.66803253371598  0.9607121921310197  1.0000
  O   O12       1.0  0.6078828929370275  0.3319712069585136  0.03928852030588097  1.0000
