data_image0
_chemical_formula_structural       Na2Fe2H48C40S8O4
_chemical_formula_sum              "Na2 Fe2 H48 C40 S8 O4"
_cell_length_a       8.800214217552323
_cell_length_b       9.902914377783812
_cell_length_c       13.6928
_cell_angle_alpha    109.40109033434584
_cell_angle_beta     98.1074640459416
_cell_angle_gamma    103.75370291523112

_space_group_name_H-M_alt    "P 1"
_space_group_IT_number       1

loop_
  _space_group_symop_operation_xyz
  'x, y, z'

loop_
  _atom_site_type_symbol
  _atom_site_label
  _atom_site_symmetry_multiplicity
  _atom_site_fract_x
  _atom_site_fract_y
  _atom_site_fract_z
  _atom_site_occupancy
  Na  Na1       1.0  0.9509758881391334  0.1359141328590567  0.9116825984010006  1.0000
  Na  Na2       1.0  0.04902849619741541  0.8640875435861091  0.0883194432645169  1.0000
  Fe  Fe1       1.0  0.6221356245172841  0.9931762942273537  0.9415323509534088  1.0000
  Fe  Fe2       1.0  0.37785957735543707  0.0068253822178121  0.05846885842659328  1.0000
  H   H1        1.0  0.3879227031143273  0.9799706634146262  0.5852705795194524  1.0000
  H   H2        1.0  0.6120724987583941  0.020031013030539706  0.41473062986055  1.0000
  H   H3        1.0  0.39857242268323023  0.7789939567497087  0.42150467391496693  1.0000
  H   H4        1.0  0.6014204835735342  0.2210077196954572  0.5784963273936583  1.0000
  H   H5        1.0  0.5511143387448882  0.6011878040465393  0.4360399429970485  1.0000
  H   H6        1.0  0.4488857757441522  0.39881836869784604  0.563958409975875  1.0000
  H   H7        1.0  0.6958202247532341  0.6269414819108832  0.6138736713460347  1.0000
  H   H8        1.0  0.30418287403426797  0.3730703112075275  0.38612630235104456  1.0000
  H   H9        1.0  0.9865983211392119  0.8560155624092121  0.7103340090526231  1.0000
  H   H10       1.0  0.013413500998055402  0.1439737492130888  0.28964674817385117  1.0000
  H   H11       1.0  0.9986682036563649  0.6474277452375716  0.5519487048216333  1.0000
  H   H12       1.0  0.001355693427235789  0.3525458293374584  0.44805054522627324  1.0000
  H   H13       1.0  0.1912168453723453  0.5034809738198049  0.5690895775900059  1.0000
  H   H14       1.0  0.8087887786109744  0.49648585630639275  0.4309195415268546  1.0000
  H   H15       1.0  0.368372120448491  0.565674908722535  0.7463693306054395  1.0000
  H   H16       1.0  0.6316342840332965  0.4343188991989919  0.25364561005540043  1.0000
  H   H17       1.0  0.2604201153342203  0.5068239722907819  0.969622327069281  1.0000
  H   H18       1.0  0.7395885847521058  0.4931979375008737  0.030379124116770056  1.0000
  H   H19       1.0  0.3122339337334594  0.3407014531139581  0.9671282487875955  1.0000
  H   H20       1.0  0.6877771078825033  0.6593170844532852  0.032865301384234165  1.0000
  H   H21       1.0  0.4644546878724468  0.6277260861249871  0.13023585770459076  1.0000
  H   H22       1.0  0.5355541958686344  0.372282334769011  0.8697660211260041  1.0000
  H   H23       1.0  0.4516721716292976  0.454831016246203  0.1477691780741708  1.0000
  H   H24       1.0  0.5483348297076134  0.5451751564981822  0.8522254172479719  1.0000
  H   H25       1.0  0.28371205561671087  0.6738952106032843  0.2382302978471031  1.0000
  H   H26       1.0  0.7162938438259091  0.3261075899166813  0.7617699602593361  1.0000
  H   H27       1.0  0.2804688777340516  0.5057279993556139  0.26026245844593626  1.0000
  H   H28       1.0  0.7195371135359492  0.4942680567155264  0.7397332664624512  1.0000
  H   H29       1.0  0.009802388596007532  0.4109696173431915  0.15541285283372724  1.0000
  H   H30       1.0  0.9902043372701853  0.5890286868775547  0.8445798271959362  1.0000
  H   H31       1.0  0.044707216734224196  0.5546511071069062  0.1016361522393936  1.0000
  H   H32       1.0  0.955301345622452  0.4453528174878657  0.8983616960328432  1.0000
  H   H33       1.0  0.777024626438127  0.1321068914934855  0.6815817942074816  1.0000
  H   H34       1.0  0.22296538734755697  0.8678824201288222  0.31842181690877414  1.0000
  H   H35       1.0  0.8509991716183405  0.9873445941374257  0.6077911158741997  1.0000
  H   H36       1.0  0.1489976371878328  0.0126514619337073  0.39220888892440786  1.0000
  H   H37       1.0  0.9627456653769072  0.3212853090019223  0.6397355537929527  1.0000
  H   H38       1.0  0.03723461499209442  0.6787163674432436  0.360270145609654  1.0000
  H   H39       1.0  0.9078722894462744  0.16446226068939046  0.5169718404148966  1.0000
  H   H40       1.0  0.09211258215464108  0.8355394157557754  0.4830328145088245  1.0000
  H   H41       1.0  0.15265621567971976  0.1024245721845958  0.5595642124520879  1.0000
  H   H42       1.0  0.8473384352401537  0.897589469083421  0.44043407501321497  1.0000
  H   H43       1.0  0.22774261165298526  0.2990859556719556  0.6275565229945029  1.0000
  H   H44       1.0  0.7722424895049613  0.7009269615212617  0.37245012288825297  1.0000
  H   H45       1.0  0.2415609430914785  0.2771204099014852  0.7961533996359264  1.0000
  H   H46       1.0  0.7584340292242118  0.7228700257956293  0.20384654909586425  1.0000
  H   H47       1.0  0.2111946144429169  0.08217773679144363  0.7266943083714991  1.0000
  H   H48       1.0  0.7887965012370514  0.9178149470552768  0.27329633685224747  1.0000
  C   C1        1.0  0.5326861080989787  0.9152857787433463  0.6921830957810186  1.0000
  C   C2        1.0  0.4673079000520772  0.08471926992623931  0.30782173678396413  1.0000
  C   C3        1.0  0.4543363277342677  0.9019115367098252  0.5912815477758853  1.0000
  C   C4        1.0  0.545648911164747  0.09809126381014723  0.408722680174705  1.0000
  C   C5        1.0  0.4610992120855997  0.7895636321439881  0.499506333822822  1.0000
  C   C6        1.0  0.538891398555208  0.2104380443011777  0.5004944594144192  1.0000
  C   C7        1.0  0.5477390124111281  0.6904651973082923  0.5075894099794097  1.0000
  C   C8        1.0  0.4522520114414661  0.3095342309872677  0.4924094199964982  1.0000
  C   C9        1.0  0.628196030425556  0.7039900653657227  0.6073604934118818  1.0000
  C   C10       1.0  0.3717881065791672  0.29600936292982993  0.3926384426607115  1.0000
  C   C11       1.0  0.6200350245291586  0.8153611489257457  0.7002831355165782  1.0000
  C   C12       1.0  0.37995636662153487  0.1846394034446135  0.29971672810784605  1.0000
  C   C13       1.0  0.17313377816456918  0.8308104330498551  0.8175757056475061  1.0000
  C   C14       1.0  0.8268690451522146  0.1691934915449167  0.18242016182463763  1.0000
  C   C15       1.0  0.06967745327603575  0.7920163633691644  0.7178733866356665  1.0000
  C   C16       1.0  0.9303393733049387  0.2079707001035302  0.28211677813452946  1.0000
  C   C17       1.0  0.07596790211560742  0.6741267700131817  0.6294856500204489  1.0000
  C   C18       1.0  0.9240535616109611  0.3258569212351007  0.3705136189557833  1.0000
  C   C19       1.0  0.1826212886622756  0.5919996165879766  0.6390707204971945  1.0000
  C   C20       1.0  0.8173903039179676  0.4079784542862798  0.36093652789222824  1.0000
  C   C21       1.0  0.2826757418479815  0.6268987670682833  0.7379803202869509  1.0000
  C   C22       1.0  0.7173230871034306  0.3730894204792179  0.2620296622636999  1.0000
  C   C23       1.0  0.278948852497642  0.7466621931247133  0.8269293499118575  1.0000
  C   C24       1.0  0.7210540167328289  0.253338359245646  0.17307228438028227  1.0000
  C   C25       1.0  0.27208683279738466  0.4333106040986365  0.014031379831351422  1.0000
  C   C26       1.0  0.7279227396262016  0.5667034371693873  0.9859675297870963  1.0000
  C   C27       1.0  0.3814899302416421  0.5227442437583179  0.12598476928167912  1.0000
  C   C28       1.0  0.6185174383933614  0.47726305306086664  0.8740130506214356  1.0000
  C   C29       1.0  0.264282470463101  0.5528829374381631  0.1988746646314254  1.0000
  C   C30       1.0  0.7357234748932129  0.4471164908573897  0.8011233268759952  1.0000
  C   C31       1.0  0.09575591741977257  0.4742302992361545  0.12365566566850107  1.0000
  C   C32       1.0  0.9042496147247546  0.5257713772090113  0.8763399072353336  1.0000
  C   C33       1.0  0.8844742006353811  0.1085148094797432  0.6572907883999333  1.0000
  C   C34       1.0  0.11551728234268675  0.8914789984417839  0.3427089238913581  1.0000
  C   C35       1.0  0.9655072007622106  0.20531900763781152  0.6021618966567175  1.0000
  C   C36       1.0  0.03447996645466132  0.7946826688073474  0.39784223602756436  1.0000
  C   C37       1.0  0.13889028633780498  0.1976505693160249  0.623342620227497  1.0000
  C   C38       1.0  0.8610979827733586  0.8023544793535606  0.3766587709157534  1.0000
  C   C39       1.0  0.16240828388564668  0.1756625420494515  0.7297458084345932  1.0000
  C   C40       1.0  0.8375835663905207  0.824332389946882  0.27025128595110454  1.0000
  S   S1        1.0  0.5297956340805426  0.0558934956189958  0.8094335116080558  1.0000
  S   S2        1.0  0.4701975935606341  0.9441126771253964  0.19056932932647183  1.0000
  S   S3        1.0  0.7170034872054956  0.8354449934721304  0.8273998538814594  1.0000
  S   S4        1.0  0.2829913473691263  0.164555558898229  0.1725988612283871  1.0000
  S   S5        1.0  0.1799116597083525  0.9841241198202298  0.930089118548068  1.0000
  S   S6        1.0  0.8200904290122395  0.0158775566249361  0.06990322100541142  1.0000
  S   S7        1.0  0.4126397185817864  0.8014361102376242  0.9514104089506998  1.0000
  S   S8        1.0  0.5873660890334519  0.1985734347311805  0.04859000048887909  1.0000
  O   O1        1.0  0.11646778873527808  0.3668238275144446  0.02880270851206029  1.0000
  O   O2        1.0  0.8835376974955622  0.6331812211551338  0.9711892885042346  1.0000
  O   O3        1.0  0.00437318146752121  0.14457737738354134  0.7532806108759543  1.0000
  O   O4        1.0  0.9956216990207949  0.8554198027624054  0.246719489188969  1.0000
