data_image0
_chemical_formula_structural       Cd4H88C160N16O32
_chemical_formula_sum              "Cd4 H88 C160 N16 O32"
_cell_length_a       12.886790493067094
_cell_length_b       12.886771575228629
_cell_length_c       29.652889157413068
_cell_angle_alpha    90.0003893123461
_cell_angle_beta     89.99946059721391
_cell_angle_gamma    102.94126903466791

_space_group_name_H-M_alt    "P 1"
_space_group_IT_number       1

loop_
  _space_group_symop_operation_xyz
  'x, y, z'

loop_
  _atom_site_type_symbol
  _atom_site_label
  _atom_site_symmetry_multiplicity
  _atom_site_fract_x
  _atom_site_fract_y
  _atom_site_fract_z
  _atom_site_occupancy
  Cd  Cd1       1.0  0.5958225599599486  0.5958284746704623  0.0433401254969681  1.0000
  Cd  Cd2       1.0  0.9041828445544693  0.9041762964031149  0.5433418188583304  1.0000
  Cd  Cd3       1.0  0.09582689857832348  0.0958281216299994  0.4566596634121396  1.0000
  Cd  Cd4       1.0  0.4041760245559444  0.40417885342766613  0.9566576472127224  1.0000
  H   H1        1.0  0.6651284572114662  0.8075689015292868  0.4195889630493  1.0000
  H   H2        1.0  0.6152044713419115  0.7597462875446795  0.3295090706467718  1.0000
  H   H3        1.0  0.3433949905681429  0.5790764907708025  0.0607777045174061  1.0000
  H   H4        1.0  0.2100879585412514  0.6948176664910193  0.0639336591341646  1.0000
  H   H5        1.0  0.4711038459715269  0.9649262897909026  0.039659329379631514  1.0000
  H   H6        1.0  0.5913290305922557  0.8381567528188114  0.03575944425085  1.0000
  H   H7        1.0  0.05715851940274769  0.9316158437980423  0.1543676690740696  1.0000
  H   H8        1.0  0.22076005165674664  0.09872758704184999  0.9450135119033689  1.0000
  H   H9        1.0  0.8348737652305755  0.692430950505269  0.919587953442978  1.0000
  H   H10       1.0  0.8847954785177449  0.7402570731414003  0.829507997966161  1.0000
  H   H11       1.0  0.1566122875666736  0.9209265813686687  0.5607787754804933  1.0000
  H   H12       1.0  0.2899168790608471  0.8051810235190404  0.5639345161243485  1.0000
  H   H13       1.0  0.0288958733417459  0.5350747435675558  0.539660119582294  1.0000
  H   H14       1.0  0.908676515339252  0.6618494835649713  0.5357610769606824  1.0000
  H   H15       1.0  0.44284059516886737  0.5683899519448019  0.654367199216047  1.0000
  H   H16       1.0  0.27923753709664817  0.401270240305614  0.4450146683969294  1.0000
  H   H17       1.0  0.3075706383041066  0.16512605847549372  0.08041066576945613  1.0000
  H   H18       1.0  0.2597453161219931  0.11520208470701482  0.17049095108503562  1.0000
  H   H19       1.0  0.07907485878478576  0.8433940100451736  0.4392220303291837  1.0000
  H   H20       1.0  0.19481574505574165  0.7100859708142696  0.43606844636314435  1.0000
  H   H21       1.0  0.46492403057651177  0.9711027393793333  0.46034179914364876  1.0000
  H   H22       1.0  0.3381537850819426  0.0913276671245313  0.46424054642577783  1.0000
  H   H23       1.0  0.4316118302031953  0.5571556319997981  0.3456350631287323  1.0000
  H   H24       1.0  0.5987274996461236  0.7207608895111122  0.554987244320259  1.0000
  H   H25       1.0  0.19243150425528197  0.3348764041547554  0.5804109982420655  1.0000
  H   H26       1.0  0.24025829611930755  0.3847997917814185  0.6704905608117928  1.0000
  H   H27       1.0  0.42092440637784273  0.6566085175735595  0.9392208994723606  1.0000
  H   H28       1.0  0.30517960599376437  0.7899125188773226  0.9360644743546731  1.0000
  H   H29       1.0  0.0350740484486565  0.528893642752827  0.9603408595818055  1.0000
  H   H30       1.0  0.1618474142337192  0.4086728290662123  0.9642398735150126  1.0000
  H   H31       1.0  0.06838525111739809  0.9428402815351407  0.8456311645723602  1.0000
  H   H32       1.0  0.9012729102386385  0.7792406070482516  0.05498585377399221  1.0000
  H   H33       1.0  0.3348749229546469  0.1924309744887438  0.5804098213453487  1.0000
  H   H34       1.0  0.38479810425118177  0.24025728659631804  0.6704897137549892  1.0000
  H   H35       1.0  0.6566083912640649  0.42092260963777767  0.9392217543466261  1.0000
  H   H36       1.0  0.7899146304192756  0.3051797027515236  0.9360664741994641  1.0000
  H   H37       1.0  0.5288955548058424  0.03507191090287881  0.9603404667264928  1.0000
  H   H38       1.0  0.4086727521291493  0.16184509015614176  0.9642400146205148  1.0000
  H   H39       1.0  0.9428400834917525  0.06838295256566343  0.8456321270345697  1.0000
  H   H40       1.0  0.7792417360822766  0.9012719290933122  0.0549859469645426  1.0000
  H   H41       1.0  0.1651272229562579  0.3075699369111647  0.08041116819332932  1.0000
  H   H42       1.0  0.1152039139001531  0.2597450056167787  0.1704914609104478  1.0000
  H   H43       1.0  0.8433942740763385  0.07907556566072323  0.4392220323226043  1.0000
  H   H44       1.0  0.7100857098867978  0.19481634573114096  0.43606696615034934  1.0000
  H   H45       1.0  0.9711019266426177  0.4649269753115847  0.46034068823811236  1.0000
  H   H46       1.0  0.09132605521367762  0.33815641742918956  0.4642400680913995  1.0000
  H   H47       1.0  0.5571548128394426  0.43161277833083744  0.34563360861075415  1.0000
  H   H48       1.0  0.7207602662295685  0.598729927348913  0.5549864766564454  1.0000
  H   H49       1.0  0.6924287591281837  0.8348736934448127  0.9195891303389702  1.0000
  H   H50       1.0  0.7402540813070785  0.884797667215203  0.8295091822586542  1.0000
  H   H51       1.0  0.9209237307261801  0.15661099122654323  0.560778103023928  1.0000
  H   H52       1.0  0.805181255363557  0.2899171193537882  0.5639333731667266  1.0000
  H   H53       1.0  0.5350737744190326  0.028896652663846115  0.5396596831438387  1.0000
  H   H54       1.0  0.6618479959443846  0.9086749514770601  0.5357612730936128  1.0000
  H   H55       1.0  0.5683843790169547  0.4428449513889562  0.6543674308695913  1.0000
  H   H56       1.0  0.4012718944249868  0.279240413645276  0.44501423796680234  1.0000
  H   H57       1.0  0.8075710713378043  0.6651271699862423  0.41958778615970277  1.0000
  H   H58       1.0  0.7597466697805186  0.6152035465744349  0.3295078863494609  1.0000
  H   H59       1.0  0.5790781725603225  0.34339350534091306  0.060777884927105716  1.0000
  H   H60       1.0  0.6948213855349293  0.2100868173144974  0.06393498451460292  1.0000
  H   H61       1.0  0.9649285388457756  0.4711045020991521  0.03965859928243991  1.0000
  H   H62       1.0  0.8381559659323939  0.5913270469518184  0.03575891087963611  1.0000
  H   H63       1.0  0.9316165332733275  0.05716078582845791  0.1543686315331172  1.0000
  H   H64       1.0  0.09872728340398138  0.2207593248153971  0.9450139423330628  1.0000
  H   H65       1.0  0.8384853592797936  0.8384858043127963  0.15572026774160722  1.0000
  H   H66       1.0  0.8882332344121904  0.8882333406651952  0.23474424234949964  1.0000
  H   H67       1.0  0.6328015121565115  0.6328014657332871  0.2804289750177773  1.0000
  H   H68       1.0  0.5856394006545783  0.5856380395169511  0.20123975365374494  1.0000
  H   H69       1.0  0.9280762230788113  0.9280746710208733  0.29658878361188107  1.0000
  H   H70       1.0  0.9710000110051809  0.9709977981783882  0.3762980241690813  1.0000
  H   H71       1.0  0.6615123341267477  0.661515102740495  0.6557192024322376  1.0000
  H   H72       1.0  0.6117645457050427  0.6117672706720185  0.7347435709442467  1.0000
  H   H73       1.0  0.8671977841901323  0.8672002032040568  0.7804283498810349  1.0000
  H   H74       1.0  0.9143606150341838  0.9143610007558539  0.7012390747925396  1.0000
  H   H75       1.0  0.5719267490684671  0.571926529558347  0.7965888320579853  1.0000
  H   H76       1.0  0.5290030397845626  0.529000787611416  0.8762984587434348  1.0000
  H   H77       1.0  0.3384870599636827  0.3384862004044322  0.3442802564432199  1.0000
  H   H78       1.0  0.3882340538508231  0.3882330769143892  0.2652555506961605  1.0000
  H   H79       1.0  0.1328016115696187  0.1328003243295157  0.21957144622854236  1.0000
  H   H80       1.0  0.08563958027774989  0.08563815549644721  0.29876105854863505  1.0000
  H   H81       1.0  0.42807504034953314  0.4280722109597336  0.20340995233824094  1.0000
  H   H82       1.0  0.47099874962700017  0.4709979529104873  0.12370100012333303  1.0000
  H   H83       1.0  0.16151403647029378  0.1615147232265102  0.8442805400737683  1.0000
  H   H84       1.0  0.1117669592304225  0.11176659119845313  0.7652555537575625  1.0000
  H   H85       1.0  0.3671994743449076  0.36720019730405085  0.7195714955607573  1.0000
  H   H86       1.0  0.4143615908644661  0.4143612966805961  0.7987607169213362  1.0000
  H   H87       1.0  0.07193033523844149  0.07192902722357532  0.703410000781908  1.0000
  H   H88       1.0  0.0290049565639663  0.029004764566110505  0.6237007602262923  1.0000
  C   C1        1.0  0.7208639243846874  0.7951834152803344  0.39377515703412774  1.0000
  C   C2        1.0  0.6941832057821244  0.7689215463725889  0.344078834924666  1.0000
  C   C3        1.0  0.3675801733679407  0.6649582728219985  0.05600354230148952  1.0000
  C   C4        1.0  0.2941053098589349  0.7291414377488297  0.058152650842714614  1.0000
  C   C5        1.0  0.33082035630065576  0.8382270485625015  0.0513500271425116  1.0000
  C   C6        1.0  0.4389825551450456  0.8799684672922581  0.044010278957550504  1.0000
  C   C7        1.0  0.5063315694396664  0.8095090129714891  0.04185375450699522  1.0000
  C   C8        1.0  0.1932712761381694  0.9077097592340453  0.09008323103156361  1.0000
  C   C9        1.0  0.11605914360487188  0.9769108843098167  0.08815720367908143  1.0000
  C   C10       1.0  0.051357253572426494  0.9818171592264524  0.1253000985688999  1.0000
  C   C11       1.0  0.1109415871000223  0.040354756752989815  0.049689762882906115  1.0000
  C   C12       1.0  0.1759189733112407  0.0366204027930195  0.011446470484742101  1.0000
  C   C13       1.0  0.1699682980343127  0.10037400748066012  0.9742158318764285  1.0000
  C   C14       1.0  0.25178606800139386  0.9661194418050773  0.011199147241931903  1.0000
  C   C15       1.0  0.7791379914365137  0.7048175154808761  0.8937750868655173  1.0000
  C   C16       1.0  0.8058172704153178  0.7310782813230574  0.8440787331262172  1.0000
  C   C17       1.0  0.1324256018399197  0.8350451609369146  0.5560047955779838  1.0000
  C   C18       1.0  0.20589963645669226  0.7708579623603955  0.558154424984302  1.0000
  C   C19       1.0  0.16918073552040622  0.6617729259596459  0.5513519663060296  1.0000
  C   C20       1.0  0.0610194713779038  0.620032379599131  0.5440118633063805  1.0000
  C   C21       1.0  0.9936722693621362  0.6904961569847999  0.5418557982064414  1.0000
  C   C22       1.0  0.30673066679411676  0.5922917897623493  0.5900833894843631  1.0000
  C   C23       1.0  0.3839404474746145  0.5230901030287072  0.5881575156181427  1.0000
  C   C24       1.0  0.4486432173033563  0.5181861601823456  0.6252997936970034  1.0000
  C   C25       1.0  0.38905716273448826  0.4596456823681692  0.5496896588487346  1.0000
  C   C26       1.0  0.3240781181881331  0.46337906306771987  0.5114466436924019  1.0000
  C   C27       1.0  0.330031118359237  0.3996262418859615  0.4742164381847687  1.0000
  C   C28       1.0  0.24820861965149274  0.5338807850053727  0.5111993726734809  1.0000
  C   C29       1.0  0.295183387727441  0.22086054123948887  0.1062244470965155  1.0000
  C   C30       1.0  0.2689216339695406  0.19418042978571043  0.1559207993604375  1.0000
  C   C31       1.0  0.1649565037180238  0.8675795047893474  0.4439961298564655  1.0000
  C   C32       1.0  0.2291391729537224  0.7941028672481849  0.44184871278212523  1.0000
  C   C33       1.0  0.3382249767427368  0.8308182941235104  0.4486519279112927  1.0000
  C   C34       1.0  0.3799660255940508  0.938980410140758  0.4559912534830205  1.0000
  C   C35       1.0  0.3095066451224895  0.0063300414554631835  0.45814630089554254  1.0000
  C   C36       1.0  0.407708915040736  0.6932692793123396  0.4099191000227478  1.0000
  C   C37       1.0  0.4769094056271753  0.6160581309276337  0.4118451319407087  1.0000
  C   C38       1.0  0.481812946071777  0.5513542208265036  0.3747022711104934  1.0000
  C   C39       1.0  0.5403531987415491  0.6109418371942327  0.4503117351789286  1.0000
  C   C40       1.0  0.5366200569004675  0.6759195776023578  0.4885546554585006  1.0000
  C   C41       1.0  0.6003723496235409  0.6699697412161217  0.5257856268128976  1.0000
  C   C42       1.0  0.4661192117673707  0.751785395019894  0.48880143104162954  1.0000
  C   C43       1.0  0.2048198576566804  0.2791410226112703  0.6062245639768024  1.0000
  C   C44       1.0  0.23108146196921098  0.3058203260135812  0.6559202130915338  1.0000
  C   C45       1.0  0.3350426752992135  0.6324207500948233  0.9439946048286603  1.0000
  C   C46       1.0  0.27085766180612575  0.7058952722290216  0.9418449701292035  1.0000
  C   C47       1.0  0.16177093859158728  0.6691766400561008  0.9486471746196585  1.0000
  C   C48       1.0  0.12003213653139257  0.5610159226714161  0.9559880374646498  1.0000
  C   C49       1.0  0.19049228696463416  0.4936675189911028  0.9581447503103038  1.0000
  C   C50       1.0  0.09228853111996928  0.8067277226780121  0.9099157126766004  1.0000
  C   C51       1.0  0.023091183575800804  0.8839419395056326  0.9118419192146945  1.0000
  C   C52       1.0  0.018184374707153894  0.9486429777045445  0.87469926984506  1.0000
  C   C53       1.0  0.9596460483927841  0.8890578232027907  0.9503097842498605  1.0000
  C   C54       1.0  0.9633792594998594  0.8240791449380468  0.9885524970546912  1.0000
  C   C55       1.0  0.8996270254830917  0.8300310644958632  0.0257837187566636  1.0000
  C   C56       1.0  0.0338807257975233  0.7482056445864205  0.9888008077866817  1.0000
  C   C57       1.0  0.27914103983615485  0.20482069869260036  0.6062239645988114  1.0000
  C   C58       1.0  0.30582016936958917  0.2310806564833143  0.655919612238165  1.0000
  C   C59       1.0  0.6324216143710827  0.3350412433131638  0.943995916566422  1.0000
  C   C60       1.0  0.7058964845734649  0.27085497593137126  0.9418464707853291  1.0000
  C   C61       1.0  0.6691790478314485  0.16176960089902082  0.9486487572555121  1.0000
  C   C62       1.0  0.5610176401797701  0.12003068895239008  0.9559885054425552  1.0000
  C   C63       1.0  0.4936694204229326  0.19049109882976728  0.9581450298928973  1.0000
  C   C64       1.0  0.8067289325476421  0.09228319211597115  0.9099175767709442  1.0000
  C   C65       1.0  0.8839410550521405  0.02308672071595909  0.9118429296597981  1.0000
  C   C66       1.0  0.9486437379562672  0.0181821769653681  0.874699360300383  1.0000
  C   C67       1.0  0.8890594044254597  0.9596445794407416  0.9503100332216406  1.0000
  C   C68       1.0  0.8240812236796698  0.9633779778421996  0.9885529883847541  1.0000
  C   C69       1.0  0.8300326934847246  0.8996253287168939  0.025784638698652905  1.0000
  C   C70       1.0  0.7482053672922219  0.033878510702820115  0.9888043584680803  1.0000
  C   C71       1.0  0.220861405992558  0.2951822364413417  0.10622504647817273  1.0000
  C   C72       1.0  0.19418292489983457  0.268920874927332  0.1559210629796937  1.0000
  C   C73       1.0  0.8675793673824401  0.16495662620578605  0.4439960122278422  1.0000
  C   C74       1.0  0.794103748701275  0.229139586833135  0.44184705728903145  1.0000
  C   C75       1.0  0.8308178673708752  0.33822587040597096  0.4486481670378737  1.0000
  C   C76       1.0  0.9389807205857325  0.3799683278815993  0.45598860727236007  1.0000
  C   C77       1.0  0.006328710442687698  0.30950860850941814  0.4581453468472247  1.0000
  C   C78       1.0  0.6932679293973505  0.40771010906204447  0.40991775556994986  1.0000
  C   C79       1.0  0.6160573541822811  0.4769108402371743  0.4118432922011125  1.0000
  C   C80       1.0  0.5513537898061003  0.4818138275326619  0.3747020258282703  1.0000
  C   C81       1.0  0.6109406405917355  0.5403544852863574  0.45031148620463324  1.0000
  C   C82       1.0  0.6759180910448988  0.5366215203133821  0.48855450136485257  1.0000
  C   C83       1.0  0.6699674811837466  0.6003741057080916  0.5257840323967073  1.0000
  C   C84       1.0  0.7517820111399443  0.4661208655834557  0.4887967138677638  1.0000
  C   C85       1.0  0.7048152134945269  0.7791390307374756  0.8937753490132752  1.0000
  C   C86       1.0  0.7310769672524273  0.8058191421912541  0.844078996749346  1.0000
  C   C87       1.0  0.8350428836758113  0.13242490081245256  0.5560040034941239  1.0000
  C   C88       1.0  0.7708562350481429  0.20589986303127722  0.5581527695152104  1.0000
  C   C89       1.0  0.6617712341531783  0.1691815136500665  0.5513502288506091  1.0000
  C   C90       1.0  0.6200325722570738  0.06102071307802248  0.5440112405112032  1.0000
  C   C91       1.0  0.6904943413628359  0.9936716215914315  0.5418558558593249  1.0000
  C   C92       1.0  0.5922896878119062  0.3067295170762065  0.5900850801443696  1.0000
  C   C93       1.0  0.5230875998129604  0.38394263239872833  0.5881563503504526  1.0000
  C   C94       1.0  0.5181824669348316  0.44864618262081274  0.6253005601244654  1.0000
  C   C95       1.0  0.45964460123637707  0.3890598816887305  0.5496897471120122  1.0000
  C   C96       1.0  0.46337933716742435  0.32408172555594217  0.5114471640638315  1.0000
  C   C97       1.0  0.3996246524779607  0.33003257333294306  0.474215181010024  1.0000
  C   C98       1.0  0.5338778221671132  0.24820218284469317  0.5111936437598885  1.0000
  C   C99       1.0  0.7951851099156855  0.7208615401313169  0.3937738831833002  1.0000
  C   C100      1.0  0.7689227093928321  0.6941820567856639  0.34407823406993293  1.0000
  C   C101      1.0  0.6649591124559107  0.3675787660307819  0.0560031678629187  1.0000
  C   C102      1.0  0.7291449221496578  0.2941044238456599  0.05815381426680941  1.0000
  C   C103      1.0  0.8382300562854113  0.330821144907283  0.0513519470120514  1.0000
  C   C104      1.0  0.8799696528866148  0.4389828178466644  0.044010746931576306  1.0000
  C   C105      1.0  0.8095095041291244  0.5063304459118072  0.04185369684950761  1.0000
  C   C106      1.0  0.9077092671757541  0.19327477182394404  0.0900867813212898  1.0000
  C   C107      1.0  0.9769121898904913  0.11606103897118211  0.08815787689035662  1.0000
  C   C108      1.0  0.9818174096803529  0.05135808966096528  0.12530086349568853  1.0000
  C   C109      1.0  0.0403549397811815  0.11094306422128851  0.049690686327522805  1.0000
  C   C110      1.0  0.036620141280728484  0.1759190557538233  0.0114469618161621  1.0000
  C   C111      1.0  0.10037316815952117  0.16996886736778552  0.9742160773503912  1.0000
  C   C112      1.0  0.9661202824340265  0.25178593548614714  0.011201011717965103  1.0000
  C   C113      1.0  0.6780104299604159  0.6780123396625016  0.1259988033335873  1.0000
  C   C114      1.0  0.709037493410328  0.7090378697582838  0.1735098390528265  1.0000
  C   C115      1.0  0.7941122744647017  0.7941107905941109  0.1835573781480164  1.0000
  C   C116      1.0  0.8214987918285743  0.8214974632943782  0.2281823565260055  1.0000
  C   C117      1.0  0.6791864440682004  0.6791862506497779  0.25358333514819265  1.0000
  C   C118      1.0  0.6518698705489994  0.6518712584486863  0.2091930724789535  1.0000
  C   C119      1.0  0.7647166850070732  0.7647159622023949  0.26425442199511207  1.0000
  C   C120      1.0  0.7926889978741655  0.7926882319118677  0.31251816857293596  1.0000
  C   C121      1.0  0.8817842909782383  0.881783846871855  0.32339024560990753  1.0000
  C   C122      1.0  0.9056518709644974  0.9056499496276943  0.3667822938526016  1.0000
  C   C123      1.0  0.8411983506516022  0.841196039668681  0.40155465896950915  1.0000
  C   C124      1.0  0.8661501005152701  0.866146054531143  0.45049658738767573  1.0000
  C   C125      1.0  0.8219902146097695  0.8219910972196587  0.6259992413947941  1.0000
  C   C126      1.0  0.7909614510210686  0.7909643744206177  0.673509975228356  1.0000
  C   C127      1.0  0.7058864814482815  0.7058900162291908  0.6835569367665927  1.0000
  C   C128      1.0  0.6784991119169631  0.678503849290081  0.7281822835782279  1.0000
  C   C129      1.0  0.8208117724984019  0.820814754148813  0.7535834373213393  1.0000
  C   C130      1.0  0.8481283958200193  0.8481298389188368  0.7091928062955192  1.0000
  C   C131      1.0  0.7352805315751426  0.7352849835927061  0.7642542843651585  1.0000
  C   C132      1.0  0.7073104835648676  0.707313205046539  0.8125187372733581  1.0000
  C   C133      1.0  0.6182157790588859  0.6182178932477032  0.8233905785629859  1.0000
  C   C134      1.0  0.5943497640979913  0.5943504952697723  0.8667829912280709  1.0000
  C   C135      1.0  0.6588026220701051  0.6588040237072548  0.9015549456917925  1.0000
  C   C136      1.0  0.6338515350435188  0.6338525965772561  0.9504969025345177  1.0000
  C   C137      1.0  0.17801475294005795  0.1780114655363079  0.3740015664121756  1.0000
  C   C138      1.0  0.20903874262154426  0.20903555744303048  0.32648982087870604  1.0000
  C   C139      1.0  0.29411371052179186  0.29411069124771677  0.3164428593416204  1.0000
  C   C140      1.0  0.32150028217024834  0.32149745385675044  0.2718175125325004  1.0000
  C   C141      1.0  0.17918841947489736  0.1791859533261899  0.24641602155160314  1.0000
  C   C142      1.0  0.15187259570867437  0.15186949727298335  0.2908066525737568  1.0000
  C   C143      1.0  0.26471965705307093  0.26471727510882204  0.2357451745100861  1.0000
  C   C144      1.0  0.2926889138674227  0.29268654687376744  0.18748105883506133  1.0000
  C   C145      1.0  0.381783618379842  0.3817818586687807  0.17660854307489873  1.0000
  C   C146      1.0  0.4056496366793779  0.405647705424009  0.13321680487805312  1.0000
  C   C147      1.0  0.3411967770347174  0.3411949525997926  0.09844485041547563  1.0000
  C   C148      1.0  0.36614865692655474  0.3661481108996584  0.049502893573688304  1.0000
  C   C149      1.0  0.3219865738168436  0.3219891992713927  0.8740016672529125  1.0000
  C   C150      1.0  0.29096269521466667  0.290964388945156  0.8264899570576888  1.0000
  C   C151      1.0  0.20588712296758865  0.2058889613261954  0.8164424179604028  1.0000
  C   C152      1.0  0.17850219634861014  0.1785034241277899  0.7718177768161072  1.0000
  C   C153      1.0  0.3208137479050919  0.3208144568252251  0.7464161237247497  1.0000
  C   C154      1.0  0.3481287273278894  0.348129864754803  0.7908067236331391  1.0000
  C   C155      1.0  0.2352819178874341  0.23528283416131054  0.7357453741135275  1.0000
  C   C156      1.0  0.20731517181211245  0.20731492650254785  0.6874806158249456  1.0000
  C   C157      1.0  0.11822067324904847  0.11822026709725723  0.6766082015524972  1.0000
  C   C158      1.0  0.09435389114243259  0.09435356867341234  0.6332164905425588  1.0000
  C   C159      1.0  0.1588066169143261  0.15880652307772897  0.5984444626611279  1.0000
  C   C160      1.0  0.13385407251287518  0.133855552658666  0.5495025342431747  1.0000
  N   N1        1.0  0.4712093653051851  0.7039191529248967  0.04713814694080301  1.0000
  N   N2        1.0  0.2570418158254171  0.9069346548141656  0.05094323690597241  1.0000
  N   N3        1.0  0.028797372056402495  0.7960859115312221  0.5471400467627279  1.0000
  N   N4        1.0  0.24295928209605214  0.5930660907079996  0.5509446706085228  1.0000
  N   N5        1.0  0.2039160349114937  0.9712074464292186  0.4528614440049525  1.0000
  N   N6        1.0  0.4069321567222843  0.7570388218480559  0.449058721035513  1.0000
  N   N7        1.0  0.296083772700129  0.5287923132576964  0.9528594348545385  1.0000
  N   N8        1.0  0.09306375251485827  0.7429553413296192  0.9490541301942202  1.0000
  N   N9        1.0  0.5287932169748473  0.29608131876496213  0.9528609746916319  1.0000
  N   N10       1.0  0.742958389524972  0.09305984775664201  0.9490565591930322  1.0000
  N   N11       1.0  0.9712083883586686  0.20391838239461188  0.45286076104518  1.0000
  N   N12       1.0  0.7570401186780983  0.4069321099876931  0.4490554627328721  1.0000
  N   N13       1.0  0.796084948235183  0.028795767840378496  0.5471400382816825  1.0000
  N   N14       1.0  0.5930624584175561  0.24296217725962782  0.550942424025621  1.0000
  N   N15       1.0  0.7039188095992229  0.47120815842069425  0.0471376633662857  1.0000
  N   N16       1.0  0.9069380368967044  0.257043399192277  0.050945328672540306  1.0000
  O   O1        1.0  0.20497276761044958  0.8549868015563435  0.12333351474175203  1.0000
  O   O2        1.0  0.3082444546886832  0.9580209626137304  0.9783776256608194  1.0000
  O   O3        1.0  0.2950277458146076  0.6450141687376459  0.6233355632453694  1.0000
  O   O4        1.0  0.19175406939685757  0.5419789063516164  0.4783814502549434  1.0000
  O   O5        1.0  0.3549882179178922  0.7049722240770677  0.3766685024388607  1.0000
  O   O6        1.0  0.4580224006940908  0.808245909658368  0.5216222790371675  1.0000
  O   O7        1.0  0.14501066277731667  0.7950230297701709  0.8766628410800408  1.0000
  O   O8        1.0  0.04198005173570609  0.6917554590780383  0.0216180548514586  1.0000
  O   O9        1.0  0.7950250558120044  0.14500405872374963  0.8766649324156789  1.0000
  O   O10       1.0  0.6917605246043336  0.041976170828370095  0.021619472550163703  1.0000
  O   O11       1.0  0.7049700558487331  0.354986774524413  0.37666457010335824  1.0000
  O   O12       1.0  0.808250100250781  0.4580242520857354  0.5216213809661454  1.0000
  O   O13       1.0  0.6450048081496006  0.2950268639154886  0.6233323053874358  1.0000
  O   O14       1.0  0.5419722077362791  0.19175819191383434  0.4783808894401745  1.0000
  O   O15       1.0  0.8549951060326463  0.20497738607024021  0.1233345943694388  1.0000
  O   O16       1.0  0.9580209398155332  0.30824387710040213  0.9783790433709498  1.0000
  O   O17       1.0  0.809525438103016  0.8095219194639399  0.48056181818649435  1.0000
  O   O18       1.0  0.9434970120144113  0.9434911419541265  0.46103750608039473  1.0000
  O   O19       1.0  0.7288070197170455  0.7288123520850079  0.0930704484409617  1.0000
  O   O20       1.0  0.5987478035504665  0.5987490942390326  0.1206179225527748  1.0000
  O   O21       1.0  0.6904764212164451  0.690476476715901  0.9805613943585033  1.0000
  O   O22       1.0  0.556506016346077  0.5565072128941396  0.9610379093362342  1.0000
  O   O23       1.0  0.7711926512133827  0.771195005387831  0.5930695954218379  1.0000
  O   O24       1.0  0.9012545412063488  0.9012523147088984  0.6206189447907492  1.0000
  O   O25       1.0  0.30952536484682003  0.30952381503443144  0.019438401745823303  1.0000
  O   O26       1.0  0.4434925731681147  0.44349778837566595  0.0389618867816068  1.0000
  O   O27       1.0  0.2288139070909878  0.22880869286426284  0.40693053791302713  1.0000
  O   O28       1.0  0.09875042633703397  0.09875024805089082  0.37938253748675527  1.0000
  O   O29       1.0  0.19047714082549308  0.19048010345625951  0.5194379779187699  1.0000
  O   O30       1.0  0.056508760114880395  0.05650772267505031  0.5389626272489281  1.0000
  O   O31       1.0  0.2711891828290547  0.2711913337472325  0.9069303593856262  1.0000
  O   O32       1.0  0.40124920023001204  0.40125244469294324  0.8793822107984681  1.0000
