data_image0
_chemical_formula_structural       Li2Mn2H24C32N4Cl8O12
_chemical_formula_sum              "Li2 Mn2 H24 C32 N4 Cl8 O12"
_cell_length_a       7.708575736456467
_cell_length_b       11.189934861825657
_cell_length_c       11.189959419027996
_cell_angle_alpha    83.19533546995582
_cell_angle_beta     84.75248233192829
_cell_angle_gamma    84.75243130476784

_space_group_name_H-M_alt    "P 1"
_space_group_IT_number       1

loop_
  _space_group_symop_operation_xyz
  'x, y, z'

loop_
  _atom_site_type_symbol
  _atom_site_label
  _atom_site_symmetry_multiplicity
  _atom_site_fract_x
  _atom_site_fract_y
  _atom_site_fract_z
  _atom_site_occupancy
  Li  Li1       1.0  0.749996426667103  0.10472104080558611  0.8952856456310059  1.0000
  Li  Li2       1.0  0.2499986690379785  0.8952970267133221  0.10469873126237425  1.0000
  Mn  Mn1       1.0  0.24999954372652422  0.10570138030406892  0.8942945798987836  1.0000
  Mn  Mn2       1.0  0.7499978146809739  0.8981316789632174  0.1018756332173893  1.0000
  H   H1        1.0  0.9681130133357886  0.10888700112952421  0.9914807975494071  1.0000
  H   H2        1.0  0.5318858261753762  0.008518496545263998  0.8911096963748193  1.0000
  H   H3        1.0  0.03620672411504701  0.8883351898582746  0.010135017883236227  1.0000
  H   H4        1.0  0.4637858893703568  0.9898697280602703  0.11166067378950126  1.0000
  H   H5        1.0  0.06813776985887901  0.26690055526064776  0.7361366992264848  1.0000
  H   H6        1.0  0.43185973917874787  0.263863395927018  0.7330913284252389  1.0000
  H   H7        1.0  0.9390219007212653  0.7062426257351219  0.25741955229040764  1.0000
  H   H8        1.0  0.5609735919817569  0.7425778464352746  0.2937631300906816  1.0000
  H   H9        1.0  0.12044864905834637  0.3455366928738144  0.5906840157676072  1.0000
  H   H10       1.0  0.37954411850094527  0.40931077131567395  0.6544490673625987  1.0000
  H   H11       1.0  0.8779050435407004  0.6532416678768201  0.4115113202759204  1.0000
  H   H12       1.0  0.6220981041350769  0.5884856992731998  0.34675962816908174  1.0000
  H   H13       1.0  0.3586783877014812  0.9914890851486005  0.5555692123128183  1.0000
  H   H14       1.0  0.14132316172426582  0.4444327365721675  0.008501404304958325  1.0000
  H   H15       1.0  0.660267594511595  0.9960721232642837  0.42958326320886914  1.0000
  H   H16       1.0  0.8397261101953009  0.5704228157065216  0.003925643734746088  1.0000
  H   H17       1.0  0.5025024109328342  0.539432150790276  0.8635147383508013  1.0000
  H   H18       1.0  0.997503300013179  0.1364822213592234  0.46055520825463253  1.0000
  H   H19       1.0  0.5063080357105465  0.4567043108012071  0.13731810885153817  1.0000
  H   H20       1.0  0.993690523386029  0.8626932524956528  0.5432952415426726  1.0000
  H   H21       1.0  0.5160402827802173  0.807845506060147  0.554694629136023  1.0000
  H   H22       1.0  0.9839705185497183  0.4453088267825222  0.19214406370979026  1.0000
  H   H23       1.0  0.4852236186285595  0.1814784301517278  0.44030942802145034  1.0000
  H   H24       1.0  0.014772026347373016  0.5597015949573673  0.8185259788317012  1.0000
  C   C1        1.0  0.17370002051117692  0.2843870141774545  0.6646645993250857  1.0000
  C   C2        1.0  0.32629307043635  0.33533123254110103  0.7156062721665891  1.0000
  C   C3        1.0  0.833895629317553  0.7088747055695847  0.3309241282059007  1.0000
  C   C4        1.0  0.6661037388430702  0.6690766987583318  0.29112710078356935  1.0000
  C   C5        1.0  0.3346069730931377  0.9839326903719511  0.6542027076447495  1.0000
  C   C6        1.0  0.16539294174786082  0.3458009048587769  0.016052689835035498  1.0000
  C   C7        1.0  0.6689315915096545  0.007009752023343198  0.3306965539729489  1.0000
  C   C8        1.0  0.8310638938785718  0.6693124946171948  0.9929915836874983  1.0000
  C   C9        1.0  0.3842039965000908  0.8683719800202425  0.7190543999193011  1.0000
  C   C10       1.0  0.1157991167409236  0.2809473998277809  0.1316187894382423  1.0000
  C   C11       1.0  0.6117946990060049  0.1236537128294799  0.272784772400108  1.0000
  C   C12       1.0  0.8882038685881356  0.7272264776679336  0.8763431001027088  1.0000
  C   C13       1.0  0.33611498458845546  0.8375246828916546  0.8450610436739723  1.0000
  C   C14       1.0  0.16389115862380527  0.1549438934980003  0.16246033243983501  1.0000
  C   C15       1.0  0.65890686388925  0.1568194915541952  0.14785658551809894  1.0000
  C   C16       1.0  0.8410881310064939  0.852154460497047  0.8431857625219267  1.0000
  C   C17       1.0  0.37917491172419926  0.7153091212579241  0.8917754334415094  1.0000
  C   C18       1.0  0.12083165686439663  0.10822606783276709  0.2846762678030217  1.0000
  C   C19       1.0  0.6214773380908484  0.2800921557501468  0.10380398600176483  1.0000
  C   C20       1.0  0.8785249726190617  0.8962112287799044  0.7199090140286444  1.0000
  C   C21       1.0  0.47250258829097924  0.6316653462577833  0.8237605712904357  1.0000
  C   C22       1.0  0.02750560317497991  0.1762417087324053  0.36832014134576246  1.0000
  C   C23       1.0  0.5330956657451085  0.363276276552206  0.17486988328193584  1.0000
  C   C24       1.0  0.9669015370678907  0.8251410878353268  0.6367253783341981  1.0000
  C   C25       1.0  0.5246959268734205  0.6671932838280269  0.7027299929992666  1.0000
  C   C26       1.0  0.9753178188760149  0.2972687944219103  0.332798682974328  1.0000
  C   C27       1.0  0.481090503786561  0.3256807598014078  0.29548789660239544  1.0000
  C   C28       1.0  0.018908679741535726  0.704525606863882  0.6743231859579026  1.0000
  C   C29       1.0  0.47895159342753163  0.782617198579267  0.6500946650101439  1.0000
  C   C30       1.0  0.021053571436169715  0.349907440288355  0.2173710068163359  1.0000
  C   C31       1.0  0.522122448914523  0.2083083741832539  0.3452461656640935  1.0000
  C   C32       1.0  0.977867752323711  0.6547666772217228  0.7916924175578403  1.0000
  N   N1        1.0  0.2625968172103584  0.0786765867808441  0.7010819176461852  1.0000
  N   N2        1.0  0.23740089674240755  0.2989213543398535  0.9213146717056873  1.0000
  N   N3        1.0  0.739957599856233  0.9143963664697877  0.2782466432253088  1.0000
  N   N4        1.0  0.7600339691574761  0.7217579774945051  0.08560805595674034  1.0000
  Cl  Cl1       1.0  0.30699291246705945  0.6681197962613226  0.03997555454697733  1.0000
  Cl  Cl2       1.0  0.19301360387142813  0.960026718381215  0.33186735040474247  1.0000
  Cl  Cl3       1.0  0.6907290056715143  0.3296895718172905  0.955529995782932  1.0000
  Cl  Cl4       1.0  0.8092743274782705  0.0444820379298179  0.6703106393610554  1.0000
  Cl  Cl5       1.0  0.643639496055002  0.5625365014501041  0.6184052474851357  1.0000
  Cl  Cl6       1.0  0.8563676109556939  0.38159515717247666  0.4374543308240959  1.0000
  Cl  Cl7       1.0  0.36732453267333653  0.4301079706724025  0.3827576671920951  1.0000
  Cl  Cl8       1.0  0.1326685447269399  0.617249598162104  0.569894084790164  1.0000
  O   O1        1.0  0.22842386632535758  0.17492700959371632  0.6107341399928288  1.0000
  O   O2        1.0  0.2715730252702927  0.3892683453146332  0.8250633753518174  1.0000
  O   O3        1.0  0.8090155089299602  0.8274261294568387  0.3690940560088549  1.0000
  O   O4        1.0  0.6909791297485769  0.6309102652183894  0.17257553571685247  1.0000
  O   O5        1.0  0.2526792802648501  0.9141380020075546  0.914135370750138  1.0000
  O   O6        1.0  0.24732455445030155  0.08586621328766599  0.08584585004076932  1.0000
  O   O7        1.0  0.7362327067451776  0.0791902844369261  0.07686613648628078  1.0000
  O   O8        1.0  0.7637657059475559  0.9231433548432688  0.9208136495260605  1.0000
  O   O9        1.0  0.005792697983984905  0.12205414990906145  0.9049796730287127  1.0000
  O   O10       1.0  0.49420696775084866  0.0950190280083021  0.8779436243899141  1.0000
  O   O11       1.0  0.9953991429667117  0.8870626003482087  0.09606469793128272  1.0000
  O   O12       1.0  0.5045972799979809  0.9039389338448987  0.11293940922383428  1.0000
