data_image0
_chemical_formula_structural       Al2H24C42O18
_chemical_formula_sum              "Al2 H24 C42 O18"
_cell_length_a       4.008981364172272
_cell_length_b       24.62002196941718
_cell_length_c       24.619579325916497
_cell_angle_alpha    119.99875410355533
_cell_angle_beta     89.99956216646521
_cell_angle_gamma    89.99938933766518

_space_group_name_H-M_alt    "P 1"
_space_group_IT_number       1

loop_
  _space_group_symop_operation_xyz
  'x, y, z'

loop_
  _atom_site_type_symbol
  _atom_site_label
  _atom_site_symmetry_multiplicity
  _atom_site_fract_x
  _atom_site_fract_y
  _atom_site_fract_z
  _atom_site_occupancy
  Al  Al1       1.0  0.0195431524907974  0.4999990587520883  0.49999989645305476  1.0000
  Al  Al2       1.0  0.019198919947996294  0.16665359205372  0.8333337923730539  1.0000
  H   H1        1.0  0.2442826339493323  0.48608343630085216  0.658636133521817  1.0000
  H   H2        1.0  0.24372320668723543  0.1802028850836095  0.6744110424974892  1.0000
  H   H3        1.0  0.8217720746718057  0.32744858675951594  0.8208021939307883  1.0000
  H   H4        1.0  0.81383946119179  0.3857484662437185  0.7620347633015426  1.0000
  H   H5        1.0  0.8222256691552869  0.33890768716433683  0.5121861813032781  1.0000
  H   H6        1.0  0.8138000189782699  0.2804908408488203  0.5708399236323558  1.0000
  H   H7        1.0  0.24425528868186314  0.6725486500545516  0.5139224378386303  1.0000
  H   H8        1.0  0.24366899646064868  0.9942050323034977  0.8197870633877998  1.0000
  H   H9        1.0  0.8218169516073743  0.993340049751815  0.6725428520252591  1.0000
  H   H10       1.0  0.8139223018482369  0.8762754163338117  0.6142481410484849  1.0000
  H   H11       1.0  0.8222164804003214  0.6732758513127949  0.6610938168421471  1.0000
  H   H12       1.0  0.8138301834695909  0.7903423408605549  0.7195085735024307  1.0000
  H   H13       1.0  0.24425530681438798  0.3413711812193014  0.32745250038618684  1.0000
  H   H14       1.0  0.24368488061004  0.3255827035019792  0.0057890622396854045  1.0000
  H   H15       1.0  0.8218039261813386  0.1792087054191782  0.006665128963142305  1.0000
  H   H16       1.0  0.8138346202453234  0.23798863896909947  0.1237316582850525  1.0000
  H   H17       1.0  0.8222154636615854  0.4878089442861082  0.3267220346645274  1.0000
  H   H18       1.0  0.8137766072445344  0.42916593662755526  0.2096526620928856  1.0000
  H   H19       1.0  0.10416577083166349  0.4712061423253502  0.738923467563005  1.0000
  H   H20       1.0  0.10359431839072637  0.19504438907536317  0.5941164734003123  1.0000
  H   H21       1.0  0.1041864133130233  0.7677132534451374  0.5287954349660637  1.0000
  H   H22       1.0  0.1035844101192893  0.8990656941111012  0.804953816574951  1.0000
  H   H23       1.0  0.10417967543190798  0.2610840911301011  0.2322899612968996  1.0000
  H   H24       1.0  0.10354219777600797  0.4058887088575958  0.10092215311622253  1.0000
  C   C1        1.0  0.5220012733936555  0.4534555460577536  0.40361565118168125  1.0000
  C   C2        1.0  0.5220054061179482  0.4501583865841994  0.5465467596282351  1.0000
  C   C3        1.0  0.5219982059178535  0.5963841136560999  0.5498440714982279  1.0000
  C   C4        1.0  0.5215056294159979  0.21628048484070214  0.7865695915241702  1.0000
  C   C5        1.0  0.5214853738942509  0.07027205423828062  0.7837048583094558  1.0000
  C   C6        1.0  0.5214598547300824  0.21342870971413688  0.9297214296856567  1.0000
  C   C7        1.0  0.531801142910858  0.415830289802237  0.581919123376089  1.0000
  C   C8        1.0  0.5313233585534861  0.2505155794222346  0.7511187678752478  1.0000
  C   C9        1.0  0.375836606392319  0.4414867058745884  0.640394462481659  1.0000
  C   C10       1.0  0.3853080129710023  0.4100754383785697  0.6743616830268094  1.0000
  C   C11       1.0  0.375433117794678  0.22479506269202426  0.6926280443254953  1.0000
  C   C12       1.0  0.3850588341774851  0.25615974527032404  0.6586179941871322  1.0000
  C   C13       1.0  0.6936788777557014  0.30842633259069163  0.7759306587066206  1.0000
  C   C14       1.0  0.6887921272615287  0.34065967802066405  0.7429431171308636  1.0000
  C   C15       1.0  0.6940368079018099  0.357898849118392  0.5570481487007227  1.0000
  C   C16       1.0  0.6888262339596735  0.32559882872722323  0.5899732337105733  1.0000
  C   C17       1.0  0.5377482290005275  0.3506127075255777  0.6491455462236005  1.0000
  C   C18       1.0  0.5376861402948947  0.31558241115733654  0.6837725503203343  1.0000
  C   C19       1.0  0.5317782045672175  0.6660896363796455  0.5841765717213222  1.0000
  C   C20       1.0  0.53131883314677  0.000588949764455925  0.7494749826378991  1.0000
  C   C21       1.0  0.3758179695723598  0.6989056735666922  0.5585166573823485  1.0000
  C   C22       1.0  0.38531630877365325  0.7642815518178948  0.5899246412288691  1.0000
  C   C23       1.0  0.37542507581703427  0.967823472494821  0.7751979069073941  1.0000
  C   C24       1.0  0.38505877751579476  0.9024481399983345  0.7438364363954977  1.0000
  C   C25       1.0  0.6937249205272735  0.9674938224870645  0.6915682476782337  1.0000
  C   C26       1.0  0.6888387405580971  0.9022720866774065  0.659335097961808  1.0000
  C   C27       1.0  0.6940314392129352  0.6991475569887342  0.6421046372371819  1.0000
  C   C28       1.0  0.6888377503678456  0.7643695035928173  0.6744017823242601  1.0000
  C   C29       1.0  0.5377614909630779  0.798528067952752  0.6493879194245196  1.0000
  C   C30       1.0  0.5377210247688637  0.8681812112341306  0.6844137774023055  1.0000
  C   C31       1.0  0.5317646615136694  0.418081339433698  0.3339107291713291  1.0000
  C   C32       1.0  0.5312974536203469  0.2488851728739831  0.9994049599152034  1.0000
  C   C33       1.0  0.37579501552946926  0.35960922758868463  0.3010955543559319  1.0000
  C   C34       1.0  0.38526890408650866  0.3256455094024346  0.23571937202940774  1.0000
  C   C35       1.0  0.375406558706338  0.3073773582729729  0.03216938089231289  1.0000
  C   C36       1.0  0.3850297889130232  0.34139388288613054  0.0975463129354139  1.0000
  C   C37       1.0  0.693694526663073  0.22408103793182477  0.032506133179531105  1.0000
  C   C38       1.0  0.6887904120072291  0.257070841926314  0.09772870425300081  1.0000
  C   C39       1.0  0.6940203545078275  0.44295106697638437  0.3008494718868207  1.0000
  C   C40       1.0  0.688794711684693  0.4100315567560529  0.23562730966246195  1.0000
  C   C41       1.0  0.5377141424762897  0.3508668222949254  0.20147225906884356  1.0000
  C   C42       1.0  0.5376595505494134  0.31623735127925556  0.131814648856512  1.0000
  O   O1        1.0  0.7527382484694484  0.5676898495072465  0.5612867224277168  1.0000
  O   O2        1.0  0.7527511933408704  0.4935929926028279  0.4323100364934759  1.0000
  O   O3        1.0  0.7527661049658717  0.4387138804940492  0.5064057208909177  1.0000
  O   O4        1.0  0.283383264926556  0.5697011338971051  0.5109986011691063  1.0000
  O   O5        1.0  0.28338715905948664  0.48900577414344315  0.5587088087890848  1.0000
  O   O6        1.0  0.2833817947357886  0.4412935173749517  0.430298028425085  1.0000
  O   O7        1.0  0.7522286659922344  0.17329199721392283  0.901102911641594  1.0000
  O   O8        1.0  0.7522511896606757  0.22778923411586052  0.8267083637785718  1.0000
  O   O9        1.0  0.7522515963141811  0.09889271771407933  0.7721971383799229  1.0000
  O   O10       1.0  0.2828583610286515  0.22551669871132396  0.9029780511025008  1.0000
  O   O11       1.0  0.2828868202669241  0.09701229350250877  0.8225432399782164  1.0000
  O   O12       1.0  0.2828754597314003  0.17744896158882265  0.7744767816975937  1.0000
  O   O13       1.0  0.24000703269376802  0.43576691641668214  0.7328092380962232  1.0000
  O   O14       1.0  0.23962261892555145  0.2304456124463171  0.6001866557776339  1.0000
  O   O15       1.0  0.24002462197415042  0.7970360890135239  0.5642327764254418  1.0000
  O   O16       1.0  0.2396032890524324  0.8697336126797027  0.7695509010260296  1.0000
  O   O17       1.0  0.23998775660056273  0.2671989261053582  0.2029606833920781  1.0000
  O   O18       1.0  0.23956625899801756  0.3998243207719553  0.13025784389649436  1.0000
