data_image0
_chemical_formula_structural       Ni2H32C42S4N12O6
_chemical_formula_sum              "Ni2 H32 C42 S4 N12 O6"
_cell_length_a       7.968972718129169
_cell_length_b       9.248228831374806
_cell_length_c       15.319731563823627
_cell_angle_alpha    107.38539038762111
_cell_angle_beta     93.15222540058184
_cell_angle_gamma    101.64810637116868

_space_group_name_H-M_alt    "P 1"
_space_group_IT_number       1

loop_
  _space_group_symop_operation_xyz
  'x, y, z'

loop_
  _atom_site_type_symbol
  _atom_site_label
  _atom_site_symmetry_multiplicity
  _atom_site_fract_x
  _atom_site_fract_y
  _atom_site_fract_z
  _atom_site_occupancy
  Ni  Ni1       1.0  0.28225282461308865  0.23555593688917045  0.005783073439744208  1.0000
  Ni  Ni2       1.0  0.7177491305380101  0.7644458675880301  0.9942162913749115  1.0000
  H   H1        1.0  0.09379960934270308  0.4393126520748965  0.9323104173186891  1.0000
  H   H2        1.0  0.9061967844809259  0.56067753979076  0.06768866935102125  1.0000
  H   H3        1.0  0.9757955445042229  0.4480000125346493  0.7808326414311749  1.0000
  H   H4        1.0  0.02420366423096706  0.5519913229353435  0.21916607910798547  1.0000
  H   H5        1.0  0.05928835822589202  0.9866913323536719  0.6580700675130657  1.0000
  H   H6        1.0  0.9407030165162951  0.013298896853640907  0.3419295316216803  1.0000
  H   H7        1.0  0.19430544025505012  0.005908680073645198  0.8127521726034032  1.0000
  H   H8        1.0  0.8056903105007578  0.994083841412369  0.18724600570761402  1.0000
  H   H9        1.0  0.24407513724369073  0.05232985694522091  0.138995427819097  1.0000
  H   H10       1.0  0.7559249495128101  0.9476696451132015  0.8610067349445529  1.0000
  H   H11       1.0  0.4119365984102218  0.0393483460036066  0.2792861340424153  1.0000
  H   H12       1.0  0.5880618949180985  0.9606546615511251  0.7207159552596565  1.0000
  H   H13       1.0  0.7979098684815256  0.427904047234918  0.26229377618682287  1.0000
  H   H14       1.0  0.20208740566945238  0.5720943009822648  0.7377067926780326  1.0000
  H   H15       1.0  0.6188271127881109  0.4213412155878018  0.1230293788510011  1.0000
  H   H16       1.0  0.38117301090659345  0.578653611826134  0.8769699920087318  1.0000
  H   H17       1.0  0.7726191747824275  0.09612394623822948  0.4968373183146895  1.0000
  H   H18       1.0  0.2273796612392829  0.9038755472410216  0.5031615425138796  1.0000
  H   H19       1.0  0.8025720644914855  0.9930727096167972  0.5754131138890629  1.0000
  H   H20       1.0  0.19742585810806904  0.006923285093911599  0.4245837899327114  1.0000
  H   H21       1.0  0.9016038502993808  0.3465155079623373  0.4756154089015538  1.0000
  H   H22       1.0  0.098397493341345  0.6534839753768439  0.5243848290522806  1.0000
  H   H23       1.0  0.8805708257261103  0.4437475857188177  0.3939265713423694  1.0000
  H   H24       1.0  0.11942926256774906  0.5562519095149979  0.6060742847350582  1.0000
  H   H25       1.0  0.29012311030508897  0.5463307716799832  0.2128491254173142  1.0000
  H   H26       1.0  0.7098835235400927  0.4536744992941309  0.7871509953764787  1.0000
  H   H27       1.0  0.2031109688611465  0.3591731443133456  0.2992816971195608  1.0000
  H   H28       1.0  0.7968928162089812  0.6408356440517197  0.7007189683362398  1.0000
  H   H29       1.0  0.30309563197555184  0.18441101629598222  0.5686954070341272  1.0000
  H   H30       1.0  0.6969056424008359  0.8155977958583592  0.43130649466886684  1.0000
  H   H31       1.0  0.46635600915318076  0.22327629159077134  0.7206067342456279  1.0000
  H   H32       1.0  0.5336481132295887  0.7767290065849296  0.2793952761384588  1.0000
  C   C1        1.0  0.38491060988035736  0.6000145094993811  0.059636168102500185  1.0000
  C   C2        1.0  0.615091922917621  0.3999942771111193  0.940362502104449  1.0000
  C   C3        1.0  0.11213723163317005  0.8859835135068508  0.9455248868121373  1.0000
  C   C4        1.0  0.8878675384294895  0.11401943457467922  0.0544741118719685  1.0000
  C   C5        1.0  0.0866622625717426  0.3424150278249699  0.8696976018810928  1.0000
  C   C6        1.0  0.9133331824288862  0.6575763330920382  0.1303010129995101  1.0000
  C   C7        1.0  0.018902945380624172  0.345710084949495  0.7849639268325816  1.0000
  C   C8        1.0  0.9810934476743257  0.6542801103284646  0.21503581318023626  1.0000
  C   C9        1.0  0.006353640646409494  0.21742012525163554  0.7064270007562568  1.0000
  C   C10       1.0  0.9936430597010785  0.7825712237707309  0.29357099600076  1.0000
  C   C11       1.0  0.06493538947935922  0.09006119201347931  0.7165698541784878  1.0000
  C   C12       1.0  0.9350572421470603  0.9099290184745854  0.2834278201464429  1.0000
  C   C13       1.0  0.1392976390984941  0.0993249434003616  0.8030096151872781  1.0000
  C   C14       1.0  0.8606990589429628  0.9006664158589147  0.19699034159906867  1.0000
  C   C15       1.0  0.9365194123377661  0.22298009503219157  0.6148345289082683  1.0000
  C   C16       1.0  0.06347976176525796  0.777015904845385  0.385165023505472  1.0000
  C   C17       1.0  0.36773936452647155  0.1326676652177312  0.16876479125647137  1.0000
  C   C18       1.0  0.6322604180122015  0.8673306694470782  0.831236501390542  1.0000
  C   C19       1.0  0.4608157914435935  0.1257141069415439  0.24627300019477616  1.0000
  C   C20       1.0  0.5391795827553381  0.8742865896152381  0.753728585121202  1.0000
  C   C21       1.0  0.6181671600140889  0.23270031702366373  0.2826866311001055  1.0000
  C   C22       1.0  0.3818310283277243  0.7673015265497515  0.7173152414284375  1.0000
  C   C23       1.0  0.676852352430352  0.3410469999238828  0.23773835478819189  1.0000
  C   C24       1.0  0.3231442771154462  0.6589536847382578  0.7622626124042  1.0000
  C   C25       1.0  0.5771662450824167  0.3388323812039218  0.1597481151696627  1.0000
  C   C26       1.0  0.42283197942892065  0.6611647911373028  0.8402516187980851  1.0000
  C   C27       1.0  0.7133857129510162  0.22649367945056306  0.3684289749339698  1.0000
  C   C28       1.0  0.2866159341388581  0.7735069746945342  0.6315727864796087  1.0000
  C   C29       1.0  0.3581095745074024  0.5658167697495671  0.28029453938719934  1.0000
  C   C30       1.0  0.6418976700794657  0.43419082577486995  0.7197053616105293  1.0000
  C   C31       1.0  0.3104370419614852  0.4601571403238793  0.3278936802878433  1.0000
  C   C32       1.0  0.6895661354416733  0.5398493098416567  0.6721045915915766  1.0000
  C   C33       1.0  0.40311330945917945  0.4803394976942316  0.4125744572479206  1.0000
  C   C34       1.0  0.5968876622367462  0.5196681402418976  0.5874252676522004  1.0000
  C   C35       1.0  0.35809263247458745  0.3608593696509815  0.4591019886672427  1.0000
  C   C36       1.0  0.6419083376839794  0.6391482751097471  0.540899042919108  1.0000
  C   C37       1.0  0.45744850235751505  0.3887362348062525  0.5494959930540801  1.0000
  C   C38       1.0  0.5425493479029839  0.6112691023688299  0.45050518788929145  1.0000
  C   C39       1.0  0.41221701301414987  0.2829850419024353  0.5979609814172946  1.0000
  C   C40       1.0  0.587787417429837  0.7170214066053688  0.40203863236786214  1.0000
  C   C41       1.0  0.5034097623545365  0.3053127350827296  0.682811680886914  1.0000
  C   C42       1.0  0.49659592189895824  0.6946937083550395  0.317188621460879  1.0000
  S   S1        1.0  0.4549013155428129  0.7846833145288344  0.07566914597418169  1.0000
  S   S2        1.0  0.5451009476695106  0.2153196402804625  0.9243278222415512  1.0000
  S   S3        1.0  0.9718755091223629  0.7200655517515102  0.9130641908344189  1.0000
  S   S4        1.0  0.028125803729594216  0.2799385789337381  0.0869336122784361  1.0000
  N   N1        1.0  0.3356821781631609  0.46490348367959194  0.0466240984912929  1.0000
  N   N2        1.0  0.664320658083966  0.5351064737368247  0.9533760951754076  1.0000
  N   N3        1.0  0.21349046687203813  0.0070424705134613  0.9691315101707402  1.0000
  N   N4        1.0  0.7865106056456739  0.9929511878491226  0.03086833247810721  1.0000
  N   N5        1.0  0.14962786953621793  0.22251407875330645  0.8787077837776849  1.0000
  N   N6        1.0  0.8503694415529637  0.7774795948193827  0.12128999318326085  1.0000
  N   N7        1.0  0.8325223278346813  0.09278471904121942  0.5580029138775302  1.0000
  N   N8        1.0  0.1674774570100297  0.90721360538668  0.4419964187401462  1.0000
  N   N9        1.0  0.42469920890885504  0.23718078103538437  0.1258347911388995  1.0000
  N   N10       1.0  0.5753005720924591  0.7628175604540247  0.8741678081943363  1.0000
  N   N11       1.0  0.843518633363651  0.3474002448549598  0.413968154617514  1.0000
  N   N12       1.0  0.15648331948140984  0.6526015698591435  0.5860331702264786  1.0000
  O   O1        1.0  0.9760508448989287  0.3474761945025763  0.5953747790238353  1.0000
  O   O2        1.0  0.02394673270119796  0.6525233245205229  0.40462731330077156  1.0000
  O   O3        1.0  0.6678020407752215  0.11011481183283682  0.3950259639996361  1.0000
  O   O4        1.0  0.33219835250513796  0.8898858473822884  0.6049751088513132  1.0000
  O   O5        1.0  0.24429594449667044  0.23987166842439941  0.42232383277906393  1.0000
  O   O6        1.0  0.7557043795193579  0.7601383196058935  0.5776789038210381  1.0000
