data_image0
_chemical_formula_structural       Na2H16C12N14O12
_chemical_formula_sum              "Na2 H16 C12 N14 O12"
_cell_length_a       7.049434742277094
_cell_length_b       7.634033004390777
_cell_length_c       11.518298451280726
_cell_angle_alpha    71.21613469152847
_cell_angle_beta     94.19519121651689
_cell_angle_gamma    72.79090237260765

_space_group_name_H-M_alt    "P 1"
_space_group_IT_number       1

loop_
  _space_group_symop_operation_xyz
  'x, y, z'

loop_
  _atom_site_type_symbol
  _atom_site_label
  _atom_site_symmetry_multiplicity
  _atom_site_fract_x
  _atom_site_fract_y
  _atom_site_fract_z
  _atom_site_occupancy
  Na  Na1       1.0  0.29703968409830134  0.7082229338585009  0.9482296542979114  1.0000
  Na  Na2       1.0  0.7029599271224284  0.29178402754027394  0.05177366556337398  1.0000
  H   H1        1.0  0.1463574787305646  0.4720243669128906  0.4485776185748236  1.0000
  H   H2        1.0  0.8536531525615915  0.5279633396535601  0.5514208627202419  1.0000
  H   H3        1.0  0.9762051742521791  0.7613239139816557  0.6757365234500553  1.0000
  H   H4        1.0  0.023793606398960804  0.2386750502198893  0.3242565313887766  1.0000
  H   H5        1.0  0.3639203391675352  0.3477582281737028  0.8832395230379504  1.0000
  H   H6        1.0  0.636083893653847  0.6522474191924204  0.11676241640271459  1.0000
  H   H7        1.0  0.24225289719319676  0.3561729253951497  0.9915058968652486  1.0000
  H   H8        1.0  0.7577431363894788  0.6438352444816291  0.008494489141071376  1.0000
  H   H9        1.0  0.2695151527185047  0.5326982044936771  0.2248026564192926  1.0000
  H   H10       1.0  0.7304751092386184  0.46730199224612784  0.7751952411989506  1.0000
  H   H11       1.0  0.08279199302915433  0.7244292573735649  0.1436163401375481  1.0000
  H   H12       1.0  0.9172043476759554  0.2755772997988757  0.8563809566426244  1.0000
  H   H13       1.0  0.23393884292099187  0.0376683417277803  0.0039468282755664  1.0000
  H   H14       1.0  0.7660487008335293  0.962339303198064  0.9960518638411385  1.0000
  H   H15       1.0  0.2611184099334096  0.11422789136838668  0.8651224798468887  1.0000
  H   H16       1.0  0.7388703169119991  0.8857797203952273  0.13487362171568407  1.0000
  C   C1        1.0  0.44074984992055743  0.2902296584916115  0.4984562995613189  1.0000
  C   C2        1.0  0.5592557912171259  0.7097714041349974  0.5015424052259618  1.0000
  C   C3        1.0  0.5463194011256647  0.13636015859515993  0.7267508574390789  1.0000
  C   C4        1.0  0.45368304696031453  0.8636260588138924  0.2732600829266331  1.0000
  C   C5        1.0  0.7426750508872999  0.017669424997350785  0.5820434659255652  1.0000
  C   C6        1.0  0.25733002140437117  0.9823284453828055  0.41795165096355896  1.0000
  C   C7        1.0  0.23569107767009004  0.3899526219438698  0.6411344593541058  1.0000
  C   C8        1.0  0.764298991627136  0.6100434545392447  0.3588748651869693  1.0000
  C   C9        1.0  0.831553366074452  0.8545675620541148  0.807645901521667  1.0000
  C   C10       1.0  0.1684490536461212  0.1454197643462649  0.1923543333266764  1.0000
  C   C11       1.0  0.6381657536681117  0.176134373317467  0.3680650915777832  1.0000
  C   C12       1.0  0.3618214097001768  0.8238817624612765  0.6319185084117294  1.0000
  N   N1        1.0  0.5817438725207751  0.15519673164048703  0.603819357497933  1.0000
  N   N2        1.0  0.4182554646435007  0.8448025221307774  0.3961805922266706  1.0000
  N   N3        1.0  0.27189866279661606  0.40638567996524705  0.521080019454331  1.0000
  N   N4        1.0  0.7281038099551083  0.5936063427972655  0.47892430693614324  1.0000
  N   N5        1.0  0.37927379581633147  0.2613929262524692  0.74102257566026  1.0000
  N   N6        1.0  0.6207280792235182  0.7385976617527914  0.25898469950109165  1.0000
  N   N7        1.0  0.6731473801548162  0.9937797710358468  0.8233795240770262  1.0000
  N   N8        1.0  0.32685824051723966  0.006207923394647706  0.1766258719917033  1.0000
  N   N9        1.0  0.8645275580688363  0.8740321124942839  0.6862018800311063  1.0000
  N   N10       1.0  0.1354799660012772  0.1259617160895914  0.31380293011545746  1.0000
  N   N11       1.0  0.7702616772943641  0.022487886730104382  0.47063779960579666  1.0000
  N   N12       1.0  0.22973752887438062  0.9775217601681092  0.5293570421035341  1.0000
  N   N13       1.0  0.4642331177208162  0.3063950881646208  0.38483799993399964  1.0000
  N   N14       1.0  0.5357761871520523  0.693600142014276  0.6151612708875474  1.0000
  O   O1        1.0  0.06860782874645109  0.4954129049915963  0.6514963433158982  1.0000
  O   O2        1.0  0.9313837837952406  0.5045862219870969  0.34851139298703515  1.0000
  O   O3        1.0  0.9455253962290725  0.7110039966450545  0.8965414242510761  1.0000
  O   O4        1.0  0.054471300696981466  0.28898761582315313  0.10346033644511717  1.0000
  O   O5        1.0  0.6708391686254559  0.1952124075772446  0.2614811262798824  1.0000
  O   O6        1.0  0.3291767843418823  0.8047917267828598  0.738503889415341  1.0000
  O   O7        1.0  0.36113046456291203  0.3802266327246926  0.9593166953255334  1.0000
  O   O8        1.0  0.6388662239629069  0.6197801054288234  0.04068491075824444  1.0000
  O   O9        1.0  0.22794527270833942  0.6551430167810963  0.15224672592741934  1.0000
  O   O10       1.0  0.7720496638805868  0.3448605622881971  0.8477538828123413  1.0000
  O   O11       1.0  0.17765449260514998  0.053388433926194495  0.9185361116989481  1.0000
  O   O12       1.0  0.82233342783595  0.946617634491524  0.08146035305234277  1.0000
