data_image0
_chemical_formula_structural       Cu4H32C24I4N8
_chemical_formula_sum              "Cu4 H32 C24 I4 N8"
_cell_length_a       6.965747312884827
_cell_length_b       8.314578793209108
_cell_length_c       13.592365842138083
_cell_angle_alpha    90.00016340772056
_cell_angle_beta     90.00044070435727
_cell_angle_gamma    99.19976091478962

_space_group_name_H-M_alt    "P 1"
_space_group_IT_number       1

loop_
  _space_group_symop_operation_xyz
  'x, y, z'

loop_
  _atom_site_type_symbol
  _atom_site_label
  _atom_site_symmetry_multiplicity
  _atom_site_fract_x
  _atom_site_fract_y
  _atom_site_fract_z
  _atom_site_occupancy
  Cu  Cu1       1.0  0.1854276384072193  0.04513816520022122  0.5374388379587742  1.0000
  Cu  Cu2       1.0  0.3145827041780437  0.9548634068901978  0.0374334895016659  1.0000
  Cu  Cu3       1.0  0.814580991149512  0.9548697824387279  0.46256277797168377  1.0000
  Cu  Cu4       1.0  0.6854089088681122  0.04512981529656912  0.9625637121409343  1.0000
  H   H1        1.0  0.13927019476940933  0.38799457553194133  0.5028659742667401  1.0000
  H   H2        1.0  0.3607371409013212  0.6119933594585947  0.0028697502530051003  1.0000
  H   H3        1.0  0.8607207439783339  0.6120108089142421  0.4971356416280557  1.0000
  H   H4        1.0  0.6392737176862654  0.38799513704447025  0.997137751321013  1.0000
  H   H5        1.0  0.37411352788343083  0.8825058033618877  0.6544048647048799  1.0000
  H   H6        1.0  0.12589050962326104  0.11749042098952607  0.15440686938540446  1.0000
  H   H7        1.0  0.6258886911982773  0.11749844709196114  0.3455938083817927  1.0000
  H   H8        1.0  0.8741004432096418  0.8824991462051276  0.8455925393739676  1.0000
  H   H9        1.0  0.5564046683320285  0.6851928801208589  0.6885558195917979  1.0000
  H   H10       1.0  0.9435917494864441  0.31481101690286556  0.18855569753032606  1.0000
  H   H11       1.0  0.44358892542874173  0.3148113070723185  0.3114435891856431  1.0000
  H   H12       1.0  0.05640593687306256  0.6851919835937041  0.81144518266796  1.0000
  H   H13       1.0  0.6943663954717395  0.43140690204607085  0.7275608357279  1.0000
  H   H14       1.0  0.8056489174861454  0.5686107782393749  0.22754961204221055  1.0000
  H   H15       1.0  0.3056462095869037  0.56860715834916  0.2724415159226297  1.0000
  H   H16       1.0  0.19433594788588243  0.4313848278719522  0.7724409682259366  1.0000
  H   H17       1.0  0.541398521518147  0.1675829012648365  0.6562629363580686  1.0000
  H   H18       1.0  0.9586166971377709  0.8324245678446119  0.1562490835403025  1.0000
  H   H19       1.0  0.4586074530193258  0.8324262436246103  0.3437401509826473  1.0000
  H   H20       1.0  0.041368388305336616  0.16757225659742406  0.8437407610222538  1.0000
  H   H21       1.0  0.09760167692512317  0.6945616798775379  0.6127624175625359  1.0000
  H   H22       1.0  0.40239734190086557  0.30543422921996216  0.11276212331268451  1.0000
  H   H23       1.0  0.9023906993646733  0.30544371510749374  0.38723772692078745  1.0000
  H   H24       1.0  0.5976005786647748  0.6945541723758168  0.8872416997013632  1.0000
  H   H25       1.0  0.4766581372619216  0.8689939683798688  0.5468424614876498  1.0000
  H   H26       1.0  0.023339763993121206  0.13100149176523251  0.046844839214344305  1.0000
  H   H27       1.0  0.5233376713447554  0.13100658488887265  0.45315326875523715  1.0000
  H   H28       1.0  0.9766601372060606  0.868997874804393  0.9531516267422975  1.0000
  H   H29       1.0  0.18246177427752033  0.6869148633322197  0.49091917580061323  1.0000
  H   H30       1.0  0.3175362479290699  0.31308235024259556  0.9909232952634003  1.0000
  H   H31       1.0  0.8175373496240396  0.3130881477031978  0.5090802329862072  1.0000
  H   H32       1.0  0.6824648708408674  0.6869158085752578  0.009084206300890704  1.0000
  C   C1        1.0  0.25867503330484715  0.4027533007430649  0.5556318613258713  1.0000
  C   C2        1.0  0.24134414007264135  0.5972399407336583  0.05562780339977991  1.0000
  C   C3        1.0  0.7413308382209538  0.5972473263477484  0.4443682831786405  1.0000
  C   C4        1.0  0.7586661612011057  0.4027534185308286  0.9443716053994822  1.0000
  C   C5        1.0  0.3304224440346815  0.5558757032338664  0.5947092161313351  1.0000
  C   C6        1.0  0.1695711787170211  0.44412369572559385  0.094706820470158  1.0000
  C   C7        1.0  0.6695709296799423  0.4441272656386277  0.40529387118007787  1.0000
  C   C8        1.0  0.8304363504780525  0.5558781602573152  0.9052977382811563  1.0000
  C   C9        1.0  0.4906237480128227  0.5676911324536391  0.6580060888768244  1.0000
  C   C10       1.0  0.009383768774824837  0.4323160919578088  0.15800527487032676  1.0000
  C   C11       1.0  0.5093820064161465  0.43231679409006335  0.3419933199269067  1.0000
  C   C12       1.0  0.990612259952826  0.5676856796616792  0.8419956053237386  1.0000
  C   C13       1.0  0.5683392059426922  0.4271643923325002  0.6796675336879832  1.0000
  C   C14       1.0  0.9316623712089297  0.5728370496486265  0.17966267864092342  1.0000
  C   C15       1.0  0.4316676629954658  0.5728338086407592  0.3203340822304312  1.0000
  C   C16       1.0  0.06832735003665391  0.42716954257688405  0.8203359944242763  1.0000
  C   C17       1.0  0.4833335426345827  0.2787945853742358  0.6397529234541538  1.0000
  C   C18       1.0  0.016687379960643553  0.7212089651410596  0.13974676855977464  1.0000
  C   C19       1.0  0.5166784021546748  0.7212158200063289  0.3602450139492746  1.0000
  C   C20       1.0  0.9833104234333304  0.27878673587756003  0.8602474902683428  1.0000
  C   C21       1.0  0.23065619815616156  0.6984575554805023  0.5680706730638576  1.0000
  C   C22       1.0  0.2693625259020465  0.3015321157247757  0.06806986993392171  1.0000
  C   C23       1.0  0.7693539860394621  0.3015431032443985  0.43193020715590796  1.0000
  C   C24       1.0  0.7306430225846513  0.6984587752542313  0.9319332173896485  1.0000
  I   I1        1.0  0.1264176215203889  0.021022498658112506  0.34797499948697924  1.0000
  I   I2        1.0  0.3735734444169978  0.9789724913682323  0.8479694869747052  1.0000
  I   I3        1.0  0.8735806220781229  0.9789756390469649  0.6520251450009198  1.0000
  I   I4        1.0  0.6264231415184723  0.02102441744724361  0.15202697897348125  1.0000
  N   N1        1.0  0.32911471089285266  0.26539020420639764  0.5782695785617876  1.0000
  N   N2        1.0  0.1709014139192107  0.7346080331478648  0.0782647651370496  1.0000
  N   N3        1.0  0.6708932584506258  0.7346140884404311  0.4217342444854425  1.0000
  N   N4        1.0  0.8291002620834931  0.2653852628760022  0.9217412650097503  1.0000
  N   N5        1.0  0.3438488982318901  0.8615129690926154  0.58106214843653  1.0000
  N   N6        1.0  0.15615920588951582  0.13848036124758786  0.08106283346451451  1.0000
  N   N7        1.0  0.6561523234499307  0.13849370748378936  0.4189365246504338  1.0000
  N   N8        1.0  0.8438405923416497  0.8615104875409404  0.9189358396055952  1.0000
