data_image0
_chemical_formula_structural       Y2H30C22N6O18
_chemical_formula_sum              "Y2 H30 C22 N6 O18"
_cell_length_a       7.508871877766638
_cell_length_b       8.994419591548288
_cell_length_c       13.025643146461665
_cell_angle_alpha    92.2519193849704
_cell_angle_beta     94.34492902052345
_cell_angle_gamma    112.10127211519865

_space_group_name_H-M_alt    "P 1"
_space_group_IT_number       1

loop_
  _space_group_symop_operation_xyz
  'x, y, z'

loop_
  _atom_site_type_symbol
  _atom_site_label
  _atom_site_symmetry_multiplicity
  _atom_site_fract_x
  _atom_site_fract_y
  _atom_site_fract_z
  _atom_site_occupancy
  Y   Y1        1.0  0.7472811989554626  0.4993614610699241  0.6496479691383001  1.0000
  Y   Y2        1.0  0.252716026369974  0.5006370465700414  0.350352807635204  1.0000
  H   H1        1.0  0.7176537270973853  0.0601614967245894  0.543694152624397  1.0000
  H   H2        1.0  0.28234118768086364  0.9398406519126895  0.4563035521513044  1.0000
  H   H3        1.0  0.19681470709302568  0.30904393457971935  0.0316104980651772  1.0000
  H   H4        1.0  0.8031903443983667  0.6909425200521256  0.9683902904411568  1.0000
  H   H5        1.0  0.2365589200971598  0.2993642145006419  0.8980201789397312  1.0000
  H   H6        1.0  0.7634466647455512  0.7006234307841412  0.10198220456894802  1.0000
  H   H7        1.0  0.08577615439380538  0.12320097508849412  0.9556508541240375  1.0000
  H   H8        1.0  0.9142206867452671  0.8767879194683346  0.0443473209939924  1.0000
  H   H9        1.0  0.29820947533216463  0.6811714269023669  0.6644770261399772  1.0000
  H   H10       1.0  0.7017833688385124  0.3188319605047596  0.3355167799283478  1.0000
  H   H11       1.0  0.6027794869853906  0.0749445678979228  0.696016255689102  1.0000
  H   H12       1.0  0.3972249074848405  0.925055094797905  0.3039894942479648  1.0000
  H   H13       1.0  0.5888371597667046  0.872092621063011  0.7071899982263474  1.0000
  H   H14       1.0  0.4111538257136687  0.12790106125562065  0.2928126510421691  1.0000
  H   H15       1.0  0.5946465270516511  0.9940242102622464  0.8193795248722183  1.0000
  H   H16       1.0  0.4053406665337603  0.005967057309092599  0.18062441323523606  1.0000
  H   H17       1.0  0.07027426232994576  0.3810393506331239  0.7907704490356836  1.0000
  H   H18       1.0  0.9297438556749641  0.6189639404021889  0.2092314379044566  1.0000
  H   H19       1.0  0.3391809989959924  0.14088045098825575  0.7488573998227395  1.0000
  H   H20       1.0  0.6608171743258994  0.8591229217433993  0.2511374211116859  1.0000
  H   H21       1.0  0.21741135853263666  0.004961567352502502  0.8411234081189746  1.0000
  H   H22       1.0  0.7825975265637336  0.9950477711360575  0.1588766909691515  1.0000
  H   H23       1.0  0.10380895627971401  0.9883045201512104  0.7137761164116299  1.0000
  H   H24       1.0  0.8961864638729083  0.0116988003178449  0.2862254847248806  1.0000
  H   H25       1.0  0.8812838564351964  0.3094856248360287  0.0751082747007956  1.0000
  H   H26       1.0  0.1187141888094344  0.6905117025980017  0.9248894347680333  1.0000
  H   H27       1.0  0.7429232645112122  0.12626074870056672  0.9999181750104923  1.0000
  H   H28       1.0  0.25707936457062175  0.8737377944536748  7.747967320880715e-05  1.0000
  H   H29       1.0  0.7086591498056193  0.3076751392993202  0.9717270599116359  1.0000
  H   H30       1.0  0.291349397732631  0.6923246174746965  0.0282666019235833  1.0000
  C   C1        1.0  0.840954731326036  0.0320513725352285  0.5247540063558346  1.0000
  C   C2        1.0  0.1590344862841134  0.9679471477073702  0.47524639879774355  1.0000
  C   C3        1.0  0.6234371918632319  0.7422853489211577  0.504193930264968  1.0000
  C   C4        1.0  0.3765622601239826  0.25771798406773877  0.49580555532303794  1.0000
  C   C5        1.0  0.8192655981462166  0.8732338509631604  0.5008057241010135  1.0000
  C   C6        1.0  0.18072706199331626  0.12676345350403304  0.4991955732186497  1.0000
  C   C7        1.0  0.033569476442806896  0.32695933407840266  0.5540997235146676  1.0000
  C   C8        1.0  0.9664280702712702  0.6730427852631209  0.4459011736122917  1.0000
  C   C9        1.0  0.1309381692977283  0.2545956526872288  0.9542990957636945  1.0000
  C   C10       1.0  0.8690632090503102  0.7453944262212104  0.04570086016664731  1.0000
  C   C11       1.0  0.01965169436981281  0.159352219317455  0.5248592825237778  1.0000
  C   C12       1.0  0.9803401645018256  0.8406462779031186  0.47514354786157037  1.0000
  C   C13       1.0  0.22230781000921243  0.7559225873474631  0.6929880073266901  1.0000
  C   C14       1.0  0.7776840209308914  0.244084413861664  0.307005857158444  1.0000
  C   C15       1.0  0.5419575984445969  0.9654825055718491  0.7370473576711376  1.0000
  C   C16       1.0  0.45804093352310815  0.03451598114652651  0.2629557823974835  1.0000
  C   C17       1.0  0.9475329968656324  0.3592841690228497  0.8372679688294653  1.0000
  C   C18       1.0  0.052484909176591626  0.6407215430610834  0.1627324434617847  1.0000
  C   C19       1.0  0.24290809894869622  0.0172381262244343  0.7592839194729137  1.0000
  C   C20       1.0  0.757090579747569  0.9827664183389971  0.2407147978223279  1.0000
  C   C21       1.0  0.8151355674175065  0.2576243506945204  0.9972425024253299  1.0000
  C   C22       1.0  0.1848716081989394  0.7423753830850615  0.002754165951188299  1.0000
  N   N1        1.0  0.332023701316821  0.9076048750925737  0.7251297415661426  1.0000
  N   N2        1.0  0.6679744253768262  0.09239846627048111  0.2748689149657224  1.0000
  N   N3        1.0  0.9637729831545343  0.2943892138726839  0.9261144404273267  1.0000
  N   N4        1.0  0.03623684304903923  0.7056105031585744  0.07388388606148058  1.0000
  N   N5        1.0  0.528448239431995  0.5746902994690543  0.8069324835989136  1.0000
  N   N6        1.0  0.4715513965409456  0.4253105936500603  0.1930707779964536  1.0000
  O   O1        1.0  0.5944554929744256  0.6603063163151858  0.5827567448722419  1.0000
  O   O2        1.0  0.4055385390869119  0.3396910111464493  0.4172415459061227  1.0000
  O   O3        1.0  0.15709931536760988  0.44485598801035303  0.5159961690287957  1.0000
  O   O4        1.0  0.8428958113733174  0.5551437395783055  0.4840030103957957  1.0000
  O   O5        1.0  0.9176356724343291  0.3386235554991757  0.617429479264338  1.0000
  O   O6        1.0  0.0823624356080188  0.6613797733164404  0.3825707115065099  1.0000
  O   O7        1.0  0.4961259020015872  0.7271549050150482  0.43029050195951146  1.0000
  O   O8        1.0  0.5038681648805222  0.27284840500701085  0.5697125714793287  1.0000
  O   O9        1.0  0.8054080470401532  0.39413356835437713  0.8076843253966217  1.0000
  O   O10       1.0  0.1946099311254487  0.6058781513848573  0.19231780107714508  1.0000
  O   O11       1.0  0.04128875581219665  0.7013876202569378  0.6931051492195053  1.0000
  O   O12       1.0  0.9587070883112004  0.2986193809245847  0.30688813395609316  1.0000
  O   O13       1.0  0.4547677026392662  0.444921788526031  0.7472824457896293  1.0000
  O   O14       1.0  0.5452300560374965  0.5550779097668725  0.2527199259862201  1.0000
  O   O15       1.0  0.7034081510562158  0.6657945093955251  0.7962142525609935  1.0000
  O   O16       1.0  0.29658940498351427  0.33420761621971445  0.20378587744647797  1.0000
  O   O17       1.0  0.43456960352344254  0.61077438180493  0.8712837754445673  1.0000
  O   O18       1.0  0.5654326923622861  0.3892265008395911  0.1287203771435941  1.0000
