data_image0
_chemical_formula_structural       Zn4H16C28N16O4
_chemical_formula_sum              "Zn4 H16 C28 N16 O4"
_cell_length_a       8.894300660168284
_cell_length_b       9.62651751900232
_cell_length_c       9.716408638361546
_cell_angle_alpha    90.0000396525154
_cell_angle_beta     98.44878681942615
_cell_angle_gamma    89.99992600429567

_space_group_name_H-M_alt    "P 1"
_space_group_IT_number       1

loop_
  _space_group_symop_operation_xyz
  'x, y, z'

loop_
  _atom_site_type_symbol
  _atom_site_label
  _atom_site_symmetry_multiplicity
  _atom_site_fract_x
  _atom_site_fract_y
  _atom_site_fract_z
  _atom_site_occupancy
  Zn  Zn1       1.0  0.9924057496067746  0.142360652474153  0.8982255487144216  1.0000
  Zn  Zn2       1.0  0.5075948943201495  0.6423568120286163  0.6017759031322926  1.0000
  Zn  Zn3       1.0  0.007594364751824399  0.8576424736828653  0.10177622673543142  1.0000
  Zn  Zn4       1.0  0.4924075019428642  0.357640081341806  0.3982210364045501  1.0000
  H   H1        1.0  0.6996484169982009  0.0637706550183452  0.9969645600881167  1.0000
  H   H2        1.0  0.8003511971430228  0.5637715904069865  0.5030346393456144  1.0000
  H   H3        1.0  0.3003505641539874  0.9362283159495487  0.003035003021984992  1.0000
  H   H4        1.0  0.1996477857280183  0.43622945815506153  0.49696389481070485  1.0000
  H   H5        1.0  0.4231328649549795  0.1299286791667811  0.9345266994357079  1.0000
  H   H6        1.0  0.07686646046891352  0.6299299247430382  0.5654723761446547  1.0000
  H   H7        1.0  0.576866116196527  0.8700713305983642  0.06547286367465693  1.0000
  H   H8        1.0  0.923133657331505  0.3700711238187465  0.43452734139604143  1.0000
  H   H9        1.0  0.349170992725071  0.2967865033767154  0.7388104022945045  1.0000
  H   H10       1.0  0.15082697302064224  0.7967857195727958  0.7611906618499663  1.0000
  H   H11       1.0  0.6508268517761593  0.7032145451863201  0.26118900638606146  1.0000
  H   H12       1.0  0.849170868040815  0.2032142901936993  0.23881080473896082  1.0000
  H   H13       1.0  0.8234317511196849  0.32699235175361707  0.6947865828961357  1.0000
  H   H14       1.0  0.6765663799674756  0.8269894903385335  0.8052125963315933  1.0000
  H   H15       1.0  0.17656609510108012  0.6730097356063068  0.30521179683038474  1.0000
  H   H16       1.0  0.3234325994658533  0.17300740303520706  0.19478799573228406  1.0000
  C   C1        1.0  0.3270247432201146  0.9292488149441384  0.5586033455898161  1.0000
  C   C2        1.0  0.17297872800850198  0.4292489114332271  0.9414006161605499  1.0000
  C   C3        1.0  0.6729787793704602  0.07074911722507689  0.44139992210323004  1.0000
  C   C4        1.0  0.8270259363909673  0.5707510983287988  0.058599719100158223  1.0000
  C   C5        1.0  0.15746713023827397  0.07107152259902702  0.6441404196580578  1.0000
  C   C6        1.0  0.34253454250206516  0.5710726536614318  0.8558609926779186  1.0000
  C   C7        1.0  0.8425341190531127  0.9289264095714387  0.3558625391748508  1.0000
  C   C8        1.0  0.6574689921273489  0.428929433694293  0.14413507233600606  1.0000
  C   C9        1.0  0.6610244194583146  0.1378348162087164  0.914548445934031  1.0000
  C   C10       1.0  0.8389750972131154  0.6378347241793348  0.5854507912670855  1.0000
  C   C11       1.0  0.3389745616925027  0.8621662323536939  0.0854511171766035  1.0000
  C   C12       1.0  0.16102502058797802  0.362165285585192  0.4145489262733479  1.0000
  C   C13       1.0  0.5090955722913789  0.1749095684980091  0.8787612256007977  1.0000
  C   C14       1.0  0.990903893867859  0.6749103589427747  0.6212390594604359  1.0000
  C   C15       1.0  0.4909034088601275  0.8250904412671431  0.12123833750956696  1.0000
  C   C16       1.0  0.009096222213692301  0.3250886120248495  0.3787616870340429  1.0000
  C   C17       1.0  0.4679181803689332  0.2690827597308214  0.7711155243362529  1.0000
  C   C18       1.0  0.0320809602053984  0.7690820950861407  0.7288846511569887  1.0000
  C   C19       1.0  0.5320808025034793  0.7309162112367105  0.2288830098195335  1.0000
  C   C20       1.0  0.9679180192265593  0.23091687588211585  0.2711159409074285  1.0000
  C   C21       1.0  0.5805515041715807  0.32751293628739836  0.7011254602043098  1.0000
  C   C22       1.0  0.9194466245090782  0.8275118582518528  0.7988747482436483  1.0000
  C   C23       1.0  0.4194463403303245  0.6724870734783791  0.2988739484759862  1.0000
  C   C24       1.0  0.08055235492288658  0.17248711271640357  0.20112584382076196  1.0000
  C   C25       1.0  0.7314535803570976  0.28490970848069713  0.7451610595763614  1.0000
  C   C26       1.0  0.7685446061107015  0.7849087797920402  0.7548380981925933  1.0000
  C   C27       1.0  0.26854426586572094  0.7150892624874601  0.2548373201493633  1.0000
  C   C28       1.0  0.23145437332194518  0.215089152378951  0.2451624938715541  1.0000
  N   N1        1.0  0.2264287540560161  0.026936067955979588  0.5454265568156986  1.0000
  N   N2        1.0  0.2735752483473348  0.5269363113299477  0.9545761708284463  1.0000
  N   N3        1.0  0.7735736301640586  0.973062903011481  0.4545775854018574  1.0000
  N   N4        1.0  0.7264305578617182  0.47306473722763787  0.04542123199966851  1.0000
  N   N5        1.0  0.4198198258855115  0.8416791903774836  0.5609570513670123  1.0000
  N   N6        1.0  0.08018376230592139  0.34168147353916106  0.939045836775087  1.0000
  N   N7        1.0  0.5801825652147768  0.1583208193857928  0.4390429750335586  1.0000
  N   N8        1.0  0.9198208986510537  0.6583216526153562  0.06095655639504125  1.0000
  N   N9        1.0  0.0899597533138277  0.12027422415162899  0.7278065021709852  1.0000
  N   N10       1.0  0.41004071802626635  0.6202731387375167  0.7721947808243714  1.0000
  N   N11       1.0  0.9100403593259113  0.879726824411236  0.2721963022326506  1.0000
  N   N12       1.0  0.5899628148842879  0.37972687102405445  0.22780231314333582  1.0000
  N   N13       1.0  0.7693054487435874  0.1924349508655752  0.8474066055529479  1.0000
  N   N14       1.0  0.7306939943522366  0.6924350348474988  0.6525936884448528  1.0000
  N   N15       1.0  0.23069353240791915  0.80756505889957  0.15259295755741684  1.0000
  N   N16       1.0  0.26930612344885674  0.3075649749170282  0.3474060290955877  1.0000
  O   O1        1.0  0.5490981357047886  0.41724941980667307  0.5968510473234121  1.0000
  O   O2        1.0  0.9508987416696613  0.9172504545410194  0.9031469945458569  1.0000
  O   O3        1.0  0.4509008488885371  0.5827485123632384  0.4031464578778029  1.0000
  O   O4        1.0  0.0490991028322441  0.08274955522475119  0.09685241413444604  1.0000
