data_image0
_chemical_formula_structural       Zn8H96C108O50
_chemical_formula_sum              "Zn8 H96 C108 O50"
_cell_length_a       17.195110765305248
_cell_length_b       17.19508068840666
_cell_length_c       17.19511405131551
_cell_angle_alpha    92.68115814217612
_cell_angle_beta     92.68112834502722
_cell_angle_gamma    92.68120744519486

_space_group_name_H-M_alt    "P 1"
_space_group_IT_number       1

loop_
  _space_group_symop_operation_xyz
  'x, y, z'

loop_
  _atom_site_type_symbol
  _atom_site_label
  _atom_site_symmetry_multiplicity
  _atom_site_fract_x
  _atom_site_fract_y
  _atom_site_fract_z
  _atom_site_occupancy
  Zn  Zn1       1.0  0.3570971006999529  0.3570966519148726  0.3570957143350597  1.0000
  Zn  Zn2       1.0  0.6429044255854421  0.6429037818969903  0.6429039821846061  1.0000
  Zn  Zn3       1.0  0.35131512523605574  0.21626046793358003  0.22995464210094235  1.0000
  Zn  Zn4       1.0  0.22995659151021638  0.35131382644939185  0.21626113046303166  1.0000
  Zn  Zn5       1.0  0.2162615739428091  0.22995547136647332  0.3513129659110631  1.0000
  Zn  Zn6       1.0  0.6486852325840431  0.7837404876218699  0.7700473498537761  1.0000
  Zn  Zn7       1.0  0.770044933745062  0.6486860236075528  0.7837402828810267  1.0000
  Zn  Zn8       1.0  0.7837382020076191  0.7700460387857219  0.6486872800615089  1.0000
  H   H1        1.0  0.5877572094986546  0.1900580138993249  0.2420888398273817  1.0000
  H   H2        1.0  0.24208874644698136  0.5877586860240812  0.19005506070999448  1.0000
  H   H3        1.0  0.1900569762710163  0.24208927302585442  0.5877584497213988  1.0000
  H   H4        1.0  0.41224314940323126  0.8099423600126343  0.7579125429089046  1.0000
  H   H5        1.0  0.7579145294645785  0.4122447498140218  0.8099407912465965  1.0000
  H   H6        1.0  0.809943380943615  0.7579134300993572  0.4122424623350795  1.0000
  H   H7        1.0  0.5916893657913177  0.4287529607575777  0.3260970777405987  1.0000
  H   H8        1.0  0.326093860920203  0.591687030667849  0.4287498635525395  1.0000
  H   H9        1.0  0.4287510791002092  0.3260968549572781  0.5916876514849321  1.0000
  H   H10       1.0  0.4083104117430452  0.5712485509781826  0.6739014236998528  1.0000
  H   H11       1.0  0.6739059181722523  0.4083150653506848  0.5712463395528073  1.0000
  H   H12       1.0  0.5712486952404632  0.67390523631056  0.40831378521677647  1.0000
  H   H13       1.0  0.758709573246314  0.5626939003084815  0.36272229734021266  1.0000
  H   H14       1.0  0.36272138693173167  0.7587106470397771  0.5626922308169425  1.0000
  H   H15       1.0  0.5626923959291616  0.36272237487867903  0.7587073673560382  1.0000
  H   H16       1.0  0.24128962088611422  0.4373069990420575  0.6372773102561737  1.0000
  H   H17       1.0  0.6372772248030429  0.24129080637964512  0.4373062123080089  1.0000
  H   H18       1.0  0.4373079645049884  0.6372791660152544  0.24129116324215968  1.0000
  H   H19       1.0  0.6810690848464986  0.5070801479864074  0.40345389453173647  1.0000
  H   H20       1.0  0.40345266451942047  0.6810705588052314  0.5070784632753416  1.0000
  H   H21       1.0  0.507080210089299  0.403455192591231  0.6810667424337353  1.0000
  H   H22       1.0  0.318929526360307  0.4929213049051668  0.5965451301039123  1.0000
  H   H23       1.0  0.5965453647918793  0.3189320313822889  0.49291826157518404  1.0000
  H   H24       1.0  0.4929195669170879  0.5965463186166816  0.3189323405174207  1.0000
  H   H25       1.0  0.672111363537496  0.5364513312779948  0.30426121521998784  1.0000
  H   H26       1.0  0.3042598502719258  0.6721123848438639  0.5364506404444853  1.0000
  H   H27       1.0  0.5364508120634568  0.3042606220146808  0.6721091312470406  1.0000
  H   H28       1.0  0.32788666474368705  0.46355067515461457  0.6957372264549305  1.0000
  H   H29       1.0  0.6957387614886841  0.3278884858763575  0.46354835648344306  1.0000
  H   H30       1.0  0.4635495483965286  0.6957403361800445  0.3278899531541412  1.0000
  H   H31       1.0  0.9900105701126095  0.2773410867379553  0.3977626340744109  1.0000
  H   H32       1.0  0.3977653359266285  0.9900098214416457  0.2773363646306705  1.0000
  H   H33       1.0  0.2773445033985666  0.39776007420335446  0.9900137941346542  1.0000
  H   H34       1.0  0.009984541158900101  0.7226578577685031  0.6022413383802032  1.0000
  H   H35       1.0  0.602235024533357  0.009991136753086504  0.7226627197705111  1.0000
  H   H36       1.0  0.7226622702733891  0.6022353787949087  0.009989986010204167  1.0000
  H   H37       1.0  0.9859237217514263  0.349444718896784  0.1625244966102102  1.0000
  H   H38       1.0  0.1625287141524723  0.9859214819541363  0.3494450291494857  1.0000
  H   H39       1.0  0.34944864752004884  0.16252007177101288  0.9859210912722601  1.0000
  H   H40       1.0  0.0140795523582185  0.6505517224394526  0.8374803270249983  1.0000
  H   H41       1.0  0.8374704820918593  0.01407941950782289  0.6505522524040757  1.0000
  H   H42       1.0  0.650557550193298  0.8374736108335838  0.014076761484595569  1.0000
  H   H43       1.0  0.7516800519498403  0.07382801758551241  0.20039599854528933  1.0000
  H   H44       1.0  0.2003964619145719  0.751682972505961  0.0738270447004936  1.0000
  H   H45       1.0  0.0738269261587874  0.20039426654960124  0.7516804182747805  1.0000
  H   H46       1.0  0.24832030642406983  0.9261723557985916  0.7996059657017014  1.0000
  H   H47       1.0  0.7996044803375923  0.248319179189636  0.9261721242738901  1.0000
  H   H48       1.0  0.9261728509250914  0.7996054965606946  0.24832032608532728  1.0000
  H   H49       1.0  0.6664192270294154  0.1190831270592483  0.1634092586643661  1.0000
  H   H50       1.0  0.16340942389238924  0.6664219120658217  0.11908351368901286  1.0000
  H   H51       1.0  0.1190830211311464  0.16340731439689898  0.6664197116342335  1.0000
  H   H52       1.0  0.3335805500802991  0.8809160533518395  0.8365920394987184  1.0000
  H   H53       1.0  0.8365926825495861  0.3335808790617563  0.8809169043300074  1.0000
  H   H54       1.0  0.8809173372427707  0.836593058987205  0.33358225261276425  1.0000
  H   H55       1.0  0.6735300019739369  0.09241414576164429  0.26327658346480115  1.0000
  H   H56       1.0  0.2632771014181757  0.6735327092565341  0.09241440432021619  1.0000
  H   H57       1.0  0.0924137245865921  0.2632743659402125  0.6735299161587704  1.0000
  H   H58       1.0  0.32646977299803837  0.9075856152372311  0.7367264869381315  1.0000
  H   H59       1.0  0.7367244226519886  0.3264700532407331  0.9075854030303461  1.0000
  H   H60       1.0  0.9075854701513107  0.7367247858405648  0.326470771335856  1.0000
  H   H61       1.0  0.8174462018483978  0.383363547961217  0.03764216242630171  1.0000
  H   H62       1.0  0.0376465604989278  0.817445406611057  0.38336419698845237  1.0000
  H   H63       1.0  0.38336434364898514  0.0376407814429953  0.8174473022378166  1.0000
  H   H64       1.0  0.18255532338104527  0.6166368847949357  0.962358697114773  1.0000
  H   H65       1.0  0.962352636376707  0.18255316458193963  0.616634718266333  1.0000
  H   H66       1.0  0.6166366025056575  0.9623567123539516  0.18255222658547857  1.0000
  H   H67       1.0  0.8968976252187985  0.32254653081734125  0.0596922945292206  1.0000
  H   H68       1.0  0.0596979459005809  0.8968968837780764  0.32254552851102847  1.0000
  H   H69       1.0  0.3225465118259052  0.059692224171193714  0.8968980964754036  1.0000
  H   H70       1.0  0.1031039005127923  0.6774544851658745  0.9403074296981658  1.0000
  H   H71       1.0  0.940300084042022  0.1031033761404814  0.6774528300407141  1.0000
  H   H72       1.0  0.6774544348825486  0.9403046874544075  0.10310140464017081  1.0000
  H   H73       1.0  0.9040857394094457  0.4243968744226621  0.08909019063702318  1.0000
  H   H74       1.0  0.08909393863285692  0.9040849732570634  0.42439652092742347  1.0000
  H   H75       1.0  0.42439535657860006  0.08909180950781348  0.9040851972266211  1.0000
  H   H76       1.0  0.0959163702778838  0.5756041717744368  0.9109083997267007  1.0000
  H   H77       1.0  0.9109046753171482  0.0959141514769684  0.5756018113666242  1.0000
  H   H78       1.0  0.575603841327151  0.9109073454400941  0.09591200120376436  1.0000
  H   H79       1.0  0.8265463376299989  0.24685196673616622  0.5195334844619027  1.0000
  H   H80       1.0  0.5195378335864334  0.8265492358650448  0.24685270361472075  1.0000
  H   H81       1.0  0.2468538294514175  0.5195321128963997  0.8265476987370376  1.0000
  H   H82       1.0  0.17345227368012667  0.753147155358583  0.480467755385682  1.0000
  H   H83       1.0  0.48046135840825593  0.17345224407327461  0.7531486762215137  1.0000
  H   H84       1.0  0.7531471199744146  0.48046305327086714  0.173450556233945  1.0000
  H   H85       1.0  0.9136063501530458  0.30464885307184636  0.5040133933699877  1.0000
  H   H86       1.0  0.5040163039132466  0.9136088586994402  0.3046500458117903  1.0000
  H   H87       1.0  0.3046497802282317  0.5040141105563265  0.9136075054750847  1.0000
  H   H88       1.0  0.0863910969414334  0.6953502122901368  0.49598604362997617  1.0000
  H   H89       1.0  0.49598230523331904  0.08639142668229739  0.6953524124726584  1.0000
  H   H90       1.0  0.6953499994955266  0.4959856551932517  0.08639033133148638  1.0000
  H   H91       1.0  0.9022866313097424  0.20569920685305484  0.4649012014965662  1.0000
  H   H92       1.0  0.46490302227747543  0.9022870481459576  0.20570068574443917  1.0000
  H   H93       1.0  0.2057002900817224  0.4649038827206412  0.9022884407052556  1.0000
  H   H94       1.0  0.0977102333354196  0.7943015779762275  0.5350959634259881  1.0000
  H   H95       1.0  0.5350973355167952  0.09771449010870009  0.7943007524072953  1.0000
  H   H96       1.0  0.7943000704040982  0.5350964927748835  0.09771119749891001  1.0000
  C   C1        1.0  0.4969460054321572  0.302523591900588  0.2875051899679021  1.0000
  C   C2        1.0  0.2875037616977707  0.49694570835337976  0.3025168447731801  1.0000
  C   C3        1.0  0.302518370818369  0.28750739432078376  0.4969464174068037  1.0000
  C   C4        1.0  0.5030514389191154  0.6974778016189376  0.7124949393736628  1.0000
  C   C5        1.0  0.7124983522392013  0.5030547593673519  0.6974776473078704  1.0000
  C   C6        1.0  0.6974825665786781  0.7124970834209351  0.503055769952006  1.0000
  C   C7        1.0  0.703340417909331  0.2481421919484816  0.2578241783449897  1.0000
  C   C8        1.0  0.25782463073397816  0.7033422375725564  0.24814145580855035  1.0000
  C   C9        1.0  0.24814315055098035  0.257825996687906  0.7033420977505358  1.0000
  C   C10       1.0  0.2966587789663038  0.7518563792445151  0.7421747369097959  1.0000
  C   C11       1.0  0.7421757285925564  0.29666046766407556  0.7518571302050958  1.0000
  C   C12       1.0  0.7518560408382413  0.7421772308201753  0.2966582021874586  1.0000
  C   C13       1.0  0.6221366167725222  0.24322315141372294  0.259143276379838  1.0000
  C   C14       1.0  0.25914278003378394  0.6221376426645122  0.2432197232319027  1.0000
  C   C15       1.0  0.2432204277203667  0.2591441244999686  0.622136831838418  1.0000
  C   C16       1.0  0.37786374318532273  0.7567772235539465  0.7408569433350323  1.0000
  C   C17       1.0  0.7408593307094974  0.37786340458828954  0.756777704110412  1.0000
  C   C18       1.0  0.7567799294684362  0.740859161324444  0.37786352641507637  1.0000
  C   C19       1.0  0.6241488223805546  0.37926968062211586  0.3068319775691819  1.0000
  C   C20       1.0  0.3068299388660519  0.6241493189083087  0.37926667702894423  1.0000
  C   C21       1.0  0.37926678773849426  0.30683094462306576  0.6241482266085825  1.0000
  C   C22       1.0  0.3758492059264569  0.6207317431112856  0.6931670179087206  1.0000
  C   C23       1.0  0.6931710054980088  0.37585283489870863  0.6207301659026072  1.0000
  C   C24       1.0  0.6207335700041128  0.6931717590300011  0.3758521039371843  1.0000
  C   C25       1.0  0.7459550866904222  0.31816129418088934  0.27997204416475796  1.0000
  C   C26       1.0  0.2799724483668413  0.7459550250857063  0.31815960585023356  1.0000
  C   C27       1.0  0.31816048416102655  0.27997243466383287  0.7459557768354086  1.0000
  C   C28       1.0  0.254042360326558  0.6818395192787107  0.7200257314262543  1.0000
  C   C29       1.0  0.7200255793605307  0.25404756351824886  0.6818388635324126  1.0000
  C   C30       1.0  0.681839291815237  0.7200284927891688  0.2540450229401472  1.0000
  C   C31       1.0  0.7054984021931218  0.3836517118871896  0.304080466832751  1.0000
  C   C32       1.0  0.30407983178082537  0.7054975246795435  0.3836518989143372  1.0000
  C   C33       1.0  0.38365144918666516  0.30408085067413987  0.7054969192307539  1.0000
  C   C34       1.0  0.29450021064926796  0.616348577189541  0.6959179208767452  1.0000
  C   C35       1.0  0.6959181971058257  0.2945027341833039  0.6163476226588216  1.0000
  C   C36       1.0  0.616347743863976  0.6959206303198896  0.2945032975840647  1.0000
  C   C37       1.0  0.5834143410767466  0.3089434223984143  0.28416818313043984  1.0000
  C   C38       1.0  0.2841688627490555  0.5834138037903925  0.3089418899832879  1.0000
  C   C39       1.0  0.3089427452436269  0.2841708942107317  0.5834140379953396  1.0000
  C   C40       1.0  0.4165854375652316  0.6910569249946549  0.7158302628945563  1.0000
  C   C41       1.0  0.7158349961914539  0.4165867477098573  0.6910567601459688  1.0000
  C   C42       1.0  0.69105586274366  0.7158317209121136  0.4165873680985896  1.0000
  C   C43       1.0  0.7124534909645703  0.5173479860566702  0.35023929942476417  1.0000
  C   C44       1.0  0.3502373022267662  0.7124551540917566  0.5173451862820428  1.0000
  C   C45       1.0  0.5173459882551796  0.35023901192445805  0.7124516569736414  1.0000
  C   C46       1.0  0.28754511868413596  0.48265288255213074  0.6497620235459962  1.0000
  C   C47       1.0  0.6497607260285748  0.2875474350400538  0.4826527015898989  1.0000
  C   C48       1.0  0.48265495510459994  0.64976197542844  0.28754745658529396  1.0000
  C   C49       1.0  0.8322424332499097  0.32043383600469616  0.2804387053325712  1.0000
  C   C50       1.0  0.28044175747251643  0.8322410455986642  0.32043213612177357  1.0000
  C   C51       1.0  0.3204338608075972  0.28043920198405203  0.8322422510088003  1.0000
  C   C52       1.0  0.167757926154124  0.6795671211343262  0.7195615420900197  1.0000
  C   C53       1.0  0.7195551060650301  0.1677609035733099  0.6795650842162287  1.0000
  C   C54       1.0  0.6795665002836841  0.7195594259417178  0.1677584670936056  1.0000
  C   C55       1.0  0.994386090295592  0.31256250698115906  0.2799544349850933  1.0000
  C   C56       1.0  0.27995657125345014  0.9943854473334569  0.3125603918132782  1.0000
  C   C57       1.0  0.3125692385711218  0.2799504685920696  0.9943906076070376  1.0000
  C   C58       1.0  0.005611355975425199  0.6874313130322706  0.7200511492631279  1.0000
  C   C59       1.0  0.7200420404813315  0.0056160060859725015  0.6874380513116662  1.0000
  C   C60       1.0  0.6874387003466111  0.7200456248938777  0.005613258561041279  1.0000
  C   C61       1.0  0.8751470461576998  0.3002504762539999  0.3475742330323186  1.0000
  C   C62       1.0  0.3475784643405575  0.8751456503609772  0.3002497042485288  1.0000
  C   C63       1.0  0.30025177035133765  0.3475729945703635  0.8751481339433553  1.0000
  C   C64       1.0  0.12485098061704747  0.6997497804974274  0.6524276145836723  1.0000
  C   C65       1.0  0.6524207308219943  0.12485583274447273  0.6997481865234645  1.0000
  C   C66       1.0  0.6997497560632195  0.6524245257454737  0.12485433159122289  1.0000
  C   C67       1.0  0.9559818131199052  0.2950781912920776  0.3473851839891039  1.0000
  C   C68       1.0  0.3473873443949387  0.9559816195936008  0.2950761919548484  1.0000
  C   C69       1.0  0.2950823054767114  0.34738362706671216  0.9559874565278577  1.0000
  C   C70       1.0  0.0440121350435589  0.7049195321389092  0.6526169302024343  1.0000
  C   C71       1.0  0.6526095175586802  0.044020327994814985  0.7049227729152818  1.0000
  C   C72       1.0  0.7049238836598661  0.6526129605882219  0.044016931385399985  1.0000
  C   C73       1.0  0.9535898168074014  0.3356881737389088  0.2133072599608496  1.0000
  C   C74       1.0  0.21330961785187696  0.9535900934141849  0.33568662706851166  1.0000
  C   C75       1.0  0.3356928816526263  0.21330738986247866  0.9535900662453685  1.0000
  C   C76       1.0  0.0464111283171249  0.6643087363031269  0.7866939856868455  1.0000
  C   C77       1.0  0.7866860793322842  0.046412379612803485  0.6643105626617112  1.0000
  C   C78       1.0  0.6643133100721669  0.7866903658301395  0.04641030650839177  1.0000
  C   C79       1.0  0.8724216605331563  0.33801456310090583  0.21370832649892435  1.0000
  C   C80       1.0  0.2137117405673337  0.8724224673108906  0.33801288439276067  1.0000
  C   C81       1.0  0.33801531474150437  0.2137067483375787  0.8724204086097486  1.0000
  C   C82       1.0  0.1275792817706645  0.6619864231962823  0.78629195008142  1.0000
  C   C83       1.0  0.7862857074797701  0.12757892990362046  0.6619831743738587  1.0000
  C   C84       1.0  0.6619862165281633  0.7862884459321435  0.1275790385404036  1.0000
  C   C85       1.0  0.7065715155507988  0.11433786816930078  0.2147025804370912  1.0000
  C   C86       1.0  0.2147033543435413  0.706573654810512  0.11433729735038867  1.0000
  C   C87       1.0  0.11433575198865499  0.214700758796603  0.7065711908746619  1.0000
  C   C88       1.0  0.29342942461529026  0.8856636987156679  0.7852994683831014  1.0000
  C   C89       1.0  0.7852981708084031  0.29342852604325736  0.8856619007817413  1.0000
  C   C90       1.0  0.8856634405598456  0.7853001389703635  0.2934301612538448  1.0000
  C   C91       1.0  0.8641646977290307  0.3723150701834967  0.08066949038474999  1.0000
  C   C92       1.0  0.08067456800398529  0.8641626095019674  0.3723171790113042  1.0000
  C   C93       1.0  0.37231456215179287  0.08066859212231488  0.8641643958154076  1.0000
  C   C94       1.0  0.1358379932483302  0.6276865862874035  0.9193303198658711  1.0000
  C   C95       1.0  0.9193246278156906  0.13583596063531897  0.62768289926489  1.0000
  C   C96       1.0  0.6276858021848425  0.9193282908729756  0.13583449463170894  1.0000
  C   C97       1.0  0.8715497577332414  0.25915020756213647  0.47832401282659015  1.0000
  C   C98       1.0  0.4783269971946993  0.8715504352661937  0.25915185021895576  1.0000
  C   C99       1.0  0.2591506519846831  0.4783245604922399  0.8715522319465164  1.0000
  C   C100      1.0  0.12844710535382828  0.7408499929843728  0.5216754504310684  1.0000
  C   C101      1.0  0.5216727776997843  0.1284510738302984  0.7408495587750322  1.0000
  C   C102      1.0  0.7408491272627629  0.5216740393310674  0.1284472939767269  1.0000
  C   C103      1.0  0.08017733140347619  0.3035388027665107  0.2787959339726739  1.0000
  C   C104      1.0  0.278798287118974  0.0801764775702196  0.3035356640322817  1.0000
  C   C105      1.0  0.3035474421802107  0.278794270203413  0.0801756972590724  1.0000
  C   C106      1.0  0.9198230331139854  0.6964540013343454  0.7212068330953159  1.0000
  C   C107      1.0  0.7212003262255635  0.9198243947335669  0.6964615883635261  1.0000
  C   C108      1.0  0.6964622469691549  0.7212030777390197  0.9198254042441716  1.0000
  O   O1        1.0  0.46249139647402154  0.24011339548913915  0.2572374097990959  1.0000
  O   O2        1.0  0.2572444036892492  0.46249231564932103  0.2401107019953841  1.0000
  O   O3        1.0  0.2401108530765157  0.2572507597946582  0.4624908807787804  1.0000
  O   O4        1.0  0.5375089672829744  0.759884652376698  0.7427609545527574  1.0000
  O   O5        1.0  0.74276353552397  0.537509022657325  0.7598875984351492  1.0000
  O   O6        1.0  0.7598871708258628  0.742754738610337  0.5375088901638987  1.0000
  O   O7        1.0  0.7509669565558212  0.44921209271512197  0.3245450260721298  1.0000
  O   O8        1.0  0.32454320956955485  0.7509659751486312  0.4492106056659395  1.0000
  O   O9        1.0  0.44920987629058834  0.3245454493587233  0.7509648864106637  1.0000
  O   O10       1.0  0.2490328188149746  0.5507905823076271  0.6754546938051786  1.0000
  O   O11       1.0  0.6754519026029088  0.24903646660876436  0.5507888809493622  1.0000
  O   O12       1.0  0.5507899013212665  0.6754543142794276  0.24903527643873252  1.0000
  O   O13       1.0  0.8318101856202988  0.28474290107482864  0.4100645464983259  1.0000
  O   O14       1.0  0.4100696429679971  0.8318099916456562  0.2847453563592026  1.0000
  O   O15       1.0  0.28474243753401396  0.41006445338928904  0.8318134574655289  1.0000
  O   O16       1.0  0.1681860918495985  0.7152590157718492  0.5899361337461713  1.0000
  O   O17       1.0  0.5899289693722523  0.1681897142040114  0.715254166663982  1.0000
  O   O18       1.0  0.7152567567792333  0.5899323670668153  0.16819002675173067  1.0000
  O   O19       1.0  0.7470491804602659  0.18694808757641818  0.23607476012282547  1.0000
  O   O20       1.0  0.2360736797551439  0.7470510258604363  0.1869471081944951  1.0000
  O   O21       1.0  0.18694695265524788  0.2360741269671607  0.7470500474586074  1.0000
  O   O22       1.0  0.2529511762522176  0.8130540323217375  0.763927287247341  1.0000
  O   O23       1.0  0.7639266795455626  0.2529522620754037  0.8130509240161743  1.0000
  O   O24       1.0  0.8130522376521866  0.7639296821844113  0.2529508616978191  1.0000
  O   O25       1.0  0.8262880142652165  0.35575591960214575  0.1503596061136392  1.0000
  O   O26       1.0  0.15036238041401617  0.826286691914838  0.3557577371778464  1.0000
  O   O27       1.0  0.3557543312425012  0.1503560652347744  0.8262867289739901  1.0000
  O   O28       1.0  0.17371467349262557  0.6442468991000325  0.8496425855952552  1.0000
  O   O29       1.0  0.8496368152765044  0.17371479171846724  0.6442395720834426  1.0000
  O   O30       1.0  0.6442431202049476  0.8496400908540239  0.1737108249552293  1.0000
  O   O31       1.0  0.4638526351584317  0.359414321419642  0.3208061837932874  1.0000
  O   O32       1.0  0.32080252046168317  0.4638510587217509  0.3594142771042926  1.0000
  O   O33       1.0  0.35941556483805204  0.32080742846697763  0.4638512715220244  1.0000
  O   O34       1.0  0.5361477263833336  0.6405860551315924  0.6791922913894624  1.0000
  O   O35       1.0  0.6791995870620795  0.5361511507623363  0.6405855316962956  1.0000
  O   O36       1.0  0.6405830435997117  0.6791969352813397  0.5361478916522557  1.0000
  O   O37       1.0  0.28789866285596594  0.28789541374111854  0.2878968724328388  1.0000
  O   O38       1.0  0.7121028619230002  0.712103270389562  0.7121062300278992  1.0000
  O   O39       1.0  0.110223387095715  0.26382371553010137  0.3324954985633255  1.0000
  O   O40       1.0  0.33250404196734706  0.11022326672908632  0.2638189106233567  1.0000
  O   O41       1.0  0.26383350664497834  0.33248539714826114  0.11022668091954559  1.0000
  O   O42       1.0  0.8897723047198552  0.7361688458040021  0.6675175024353805  1.0000
  O   O43       1.0  0.667496902950525  0.8897783049065849  0.7361779046004739  1.0000
  O   O44       1.0  0.7361773545250188  0.667502691729652  0.8897769431291493  1.0000
  O   O45       1.0  0.11668182089171353  0.33506902049457926  0.2242118444998411  1.0000
  O   O46       1.0  0.22421525005999138  0.11668050524878741  0.33506212250686923  1.0000
  O   O47       1.0  0.3350846764943327  0.2242049549145477  0.1166795004209433  1.0000
  O   O48       1.0  0.8833208793340575  0.6649145807466751  0.7757958294719315  1.0000
  O   O49       1.0  0.775782197961277  0.8833214746649247  0.6649333824567663  1.0000
  O   O50       1.0  0.6649320124367932  0.7757875033837819  0.8833217016058014  1.0000
