data_image0
_chemical_formula_structural       Gd4H44C36S18N12O34
_chemical_formula_sum              "Gd4 H44 C36 S18 N12 O34"
_cell_length_a       9.5333784473181
_cell_length_b       13.302763745864215
_cell_length_c       14.9519
_cell_angle_alpha    65.53566569207301
_cell_angle_beta     82.03137498536894
_cell_angle_gamma    80.01226328272095

_space_group_name_H-M_alt    "P 1"
_space_group_IT_number       1

loop_
  _space_group_symop_operation_xyz
  'x, y, z'

loop_
  _atom_site_type_symbol
  _atom_site_label
  _atom_site_symmetry_multiplicity
  _atom_site_fract_x
  _atom_site_fract_y
  _atom_site_fract_z
  _atom_site_occupancy
  Gd  Gd1       1.0  0.6589389774465104  0.0557275255931842  0.04314357762615368  1.0000
  Gd  Gd2       1.0  0.34106226690542474  0.944271591307583  0.9568546313278716  1.0000
  Gd  Gd3       1.0  0.7888381167278666  0.5362654224740311  0.9494695301465369  1.0000
  Gd  Gd4       1.0  0.2111668144216026  0.4637370256196078  0.050530469604190414  1.0000
  H   H1        1.0  0.6645254086524444  0.9610882857349736  0.2730907597465375  1.0000
  H   H2        1.0  0.33547730729463854  0.0389083327711433  0.7269075708536763  1.0000
  H   H3        1.0  0.5576477082783882  0.075729673206574  0.23364753604558083  1.0000
  H   H4        1.0  0.4423493399984507  0.9242627813084496  0.7663581802419445  1.0000
  H   H5        1.0  0.707334810274908  0.6506102834788123  0.6686067053719712  1.0000
  H   H6        1.0  0.29265464569652977  0.3493896662201763  0.3313962515972975  1.0000
  H   H7        1.0  0.829013737284008  0.7476762470449003  0.6488986676792196  1.0000
  H   H8        1.0  0.1709772871383137  0.2523270338469601  0.3511035920851739  1.0000
  H   H9        1.0  0.8253428894156656  0.8587798573830483  0.19283812309950585  1.0000
  H   H10       1.0  0.1746608857047391  0.1412167611230686  0.8071594450675194  1.0000
  H   H11       1.0  0.9334971072713572  0.911304441027653  0.09812719776974893  1.0000
  H   H12       1.0  0.0665075895484364  0.0886930102766854  0.9018719885162698  1.0000
  H   H13       1.0  0.41269726722948974  0.21144413649960822  0.1053584458419152  1.0000
  H   H14       1.0  0.5873022711976291  0.7885524820065015  0.8946441784917952  1.0000
  H   H15       1.0  0.3594086901067186  0.1133480015371617  0.0885747460906572  1.0000
  H   H16       1.0  0.640590160950687  0.8866527809600413  0.9114237295321673  1.0000
  H   H17       1.0  0.8264355018236884  0.2449775895681654  0.0033218134030476554  1.0000
  H   H18       1.0  0.17356440840704576  0.7550231929290449  0.9966792438432036  1.0000
  H   H19       1.0  0.744592494008657  0.2286072749859187  0.1035632482796558  1.0000
  H   H20       1.0  0.25540451364998507  0.7713918419148484  0.8964373415957709  1.0000
  H   H21       1.0  0.9127030987854354  0.7043349293563637  0.1858700950856473  1.0000
  H   H22       1.0  0.08729961716164782  0.2956616891497461  0.8141329171938168  1.0000
  H   H23       1.0  0.08326913192905039  0.7381207202851386  0.19020262696965054  1.0000
  H   H24       1.0  0.9167339558216553  0.2618800622120645  0.8097981494110372  1.0000
  H   H25       1.0  0.768818257300424  0.7333454552999187  0.9962755436550381  1.0000
  H   H26       1.0  0.23118298705151116  0.2666536616008557  0.003726678166920268  1.0000
  H   H27       1.0  0.9329331029898568  0.6825655839231928  0.009921994771644913  1.0000
  H   H28       1.0  0.0670695723390295  0.3174376969686676  0.9900778975296802  1.0000
  H   H29       1.0  0.5951130782040863  0.4729819186438462  0.7505564559900365  1.0000
  H   H30       1.0  0.4048869288823909  0.527024693440886  0.24943843191459078  1.0000
  H   H31       1.0  0.4928584998195901  0.5964825632634785  0.7563753110957805  1.0000
  H   H32       1.0  0.507141507266887  0.40352404882125376  0.24361422631827173  1.0000
  H   H33       1.0  0.4742845227379958  0.8503977433132377  0.2824028658039524  1.0000
  H   H34       1.0  0.5257132691460882  0.1496030391839724  0.7175983786860203  1.0000
  H   H35       1.0  0.575512305912703  0.7275799932328227  0.2754239538881507  1.0000
  H   H36       1.0  0.4244865451447097  0.2724207892643875  0.7245758593573157  1.0000
  H   H37       1.0  0.9804888934754034  0.7589906436422639  0.7573555229141746  1.0000
  H   H38       1.0  0.0195099575820095  0.24101013885493933  0.24264562795393374  1.0000
  H   H39       1.0  0.057557120574237786  0.6554113652088134  0.7120165654552509  1.0000
  H   H40       1.0  0.9424390622407656  0.34459274848126853  0.2879849315067418  1.0000
  H   H41       1.0  0.03593888969826512  0.9027124618067646  0.26038245381052877  1.0000
  H   H42       1.0  0.9640606487288538  0.0972841566993523  0.7396174952778978  1.0000
  H   H43       1.0  0.9620553446174824  0.0415857790438139  0.1907858607348132  1.0000
  H   H44       1.0  0.03793995711633612  0.958410839462303  0.8092164692750005  1.0000
  C   C1        1.0  0.6374382940467241  0.7630921748686746  0.741452331657193  1.0000
  C   C2        1.0  0.36255526114405967  0.23690860762853563  0.2585486185088826  1.0000
  C   C3        1.0  0.7154671622219411  0.7367557640049185  0.6564620337541172  1.0000
  C   C4        1.0  0.28452653044278975  0.2632441856940702  0.3435398799163991  1.0000
  C   C5        1.0  0.7369519392962688  0.7869027087355321  0.46285414886950343  1.0000
  C   C6        1.0  0.2630531699453442  0.2130922441741419  0.5371472591185198  1.0000
  C   C7        1.0  0.8901047258554726  0.688196965477097  0.37651951012865237  1.0000
  C   C8        1.0  0.1099025017327904  0.3117979874325769  0.6234803729930151  1.0000
  C   C9        1.0  0.019660197090260595  0.6689351754800158  0.2118314555706533  1.0000
  C   C10       1.0  0.9803428906604381  0.3310656070171873  0.7881693208100273  1.0000
  C   C11       1.0  0.08769160704471803  0.5932246566324721  0.1617856318039586  1.0000
  C   C12       1.0  0.9123081657120763  0.4067769586629524  0.8382131243152103  1.0000
  C   C13       1.0  0.49367328310711406  0.45614940105030405  0.8941165190184394  1.0000
  C   C14       1.0  0.506331882372045  0.5438580438326497  0.10588095014038863  1.0000
  C   C15       1.0  0.4968816996103482  0.5057850076747243  0.7824983063912044  1.0000
  C   C16       1.0  0.50311950412339  0.49422077161179356  0.21749945782997318  1.0000
  C   C17       1.0  0.3766641300964721  0.5548976170178861  0.6152372296030535  1.0000
  C   C18       1.0  0.6233349959088129  0.44510149988288117  0.3847604977833683  1.0000
  C   C19       1.0  0.370039109430671  0.6503013153397248  0.4404824441675145  1.0000
  C   C20       1.0  0.6299602915225009  0.3496961359646066  0.5595152037938292  1.0000
  C   C21       1.0  0.47387873762077953  0.7827062385122119  0.2586206591560085  1.0000
  C   C22       1.0  0.5261202509105658  0.2172937111867768  0.7413794487825811  1.0000
  C   C23       1.0  0.45483643503279586  0.8293237843925638  0.14960837504262503  1.0000
  C   C24       1.0  0.5451622785506699  0.1706778309028607  0.8503911435097252  1.0000
  C   C25       1.0  0.12488787901652641  0.6281730338743614  0.8522951325603644  1.0000
  C   C26       1.0  0.8751051262785055  0.3718310798157205  0.1477053076445571  1.0000
  C   C27       1.0  0.07932823698887861  0.7047604892460484  0.7507802712270433  1.0000
  C   C28       1.0  0.9206721825194178  0.2952436244440335  0.249220182436197  1.0000
  C   C29       1.0  0.1643512501473552  0.844354126641143  0.5666636271303602  1.0000
  C   C30       1.0  0.8356531717245517  0.1556449902596242  0.43333630739206097  1.0000
  C   C31       1.0  0.14257170180478337  0.944992794564854  0.3941553068452279  1.0000
  C   C32       1.0  0.8574372317083032  0.0550046567394773  0.6058448425760048  1.0000
  C   C33       1.0  0.06272727423892378  0.9853368714647956  0.20944013769585734  1.0000
  C   C34       1.0  0.9372709300669798  0.0146614126377571  0.790561990873478  1.0000
  C   C35       1.0  0.14339712402206567  0.9805757640492843  0.11582020957400366  1.0000
  C   C36       1.0  0.8566017270353399  0.0194250184479188  0.8841802724827872  1.0000
  S   S1        1.0  0.6332581175643881  0.8338683642712468  0.5449660291898226  1.0000
  S   S2        1.0  0.3667385182906315  0.1661265886384271  0.45503345252777183  1.0000
  S   S3        1.0  0.8496682009287254  0.6616490238658344  0.4996226025014181  1.0000
  S   S4        1.0  0.15033584913956588  0.33834592904384664  0.5003788991084619  1.0000
  S   S5        1.0  0.006866184568920598  0.5922103084022652  0.3433109610051375  1.0000
  S   S6        1.0  0.9931438081174875  0.40778714290206614  0.6566897636055629  1.0000
  S   S7        1.0  0.3423247916649927  0.4796526323745169  0.7409463658471154  1.0000
  S   S8        1.0  0.6576739219184802  0.5203489829209076  0.2590538215165523  1.0000
  S   S9        1.0  0.24738769193728413  0.5801913645120038  0.5337626552976076  1.0000
  S   S10       1.0  0.7526114340680081  0.4198077523887633  0.46623640971145636  1.0000
  S   S11       1.0  0.3255209191348243  0.7043657428904524  0.31936162188733863  1.0000
  S   S12       1.0  0.6744792660437896  0.2956333740103219  0.6806373494998752  1.0000
  S   S13       1.0  0.22187629548777468  0.7873241046341235  0.68481743044061  1.0000
  S   S14       1.0  0.7781243989684015  0.21267834345951542  0.3151849502315187  1.0000
  S   S15       1.0  0.27831663640802157  0.9198522819429513  0.47018889573888595  1.0000
  S   S16       1.0  0.7216920627753823  0.0801401725720652  0.52981177784028  1.0000
  S   S17       1.0  0.171986597597126  0.0329405007369346  0.2707849080122813  1.0000
  S   S18       1.0  0.8280126658821061  0.9670577833656112  0.7292157893125477  1.0000
  N   N1        1.0  0.7368739904493324  0.8399502896613953  0.3662746040629656  1.0000
  N   N2        1.0  0.2631270195729272  0.1600438304500642  0.633726804294284  1.0000
  N   N3        1.0  0.8231297995318485  0.7831984222593747  0.3170761970159717  1.0000
  N   N4        1.0  0.1768743880103756  0.2167956978520778  0.6829255992870245  1.0000
  N   N5        1.0  0.49444298845674695  0.5985295812847014  0.5720742406256676  1.0000
  N   N6        1.0  0.5055560000746057  0.4014703684142873  0.4279245296902801  1.0000
  N   N7        1.0  0.4909097879393229  0.6530478838645379  0.47179378021638746  1.0000
  N   N8        1.0  0.5090896130138488  0.3469495674397933  0.5282045365562739  1.0000
  N   N9        1.0  0.041526006807949004  0.8380231945836486  0.5391664925009749  1.0000
  N   N10       1.0  0.9584794742372865  0.1619759223171258  0.46083334839958917  1.0000
  N   N11       1.0  0.02919460915822469  0.8961966485447448  0.43972081126224083  1.0000
  N   N12       1.0  0.9708124809560984  0.1037991371631506  0.5602781083549857  1.0000
  O   O1        1.0  0.5413113484862464  0.8450195324177728  0.7195503006934345  1.0000
  O   O2        1.0  0.4586838157736322  0.1549779188865585  0.28045307224591204  1.0000
  O   O3        1.0  0.6242693024325092  0.0213537791221086  0.2122174837125783  1.0000
  O   O4        1.0  0.3757311576939841  0.9786436721822227  0.7877834146835169  1.0000
  O   O5        1.0  0.6748450331623985  0.7019964319586479  0.8290874005122292  1.0000
  O   O6        1.0  0.32515381789501424  0.2980043505385623  0.17091375035588638  1.0000
  O   O7        1.0  0.8295783733722927  0.904734495881428  0.11970004817702308  1.0000
  O   O8        1.0  0.1704243425747904  0.095262122624689  0.8802982824231835  1.0000
  O   O9        1.0  0.0909749320178648  0.6367408619469117  0.06653343051085163  1.0000
  O   O10       1.0  0.9090258999122508  0.3632607533485128  0.9334652319864603  1.0000
  O   O11       1.0  0.43504058836465714  0.1632892451077907  0.06789346555483182  1.0000
  O   O12       1.0  0.5649594593400167  0.836710704591198  0.932106548761901  1.0000
  O   O13       1.0  0.13794254026117156  0.49380020851142353  0.2087234543599408  1.0000
  O   O14       1.0  0.8620623908882976  0.5062022395822225  0.7912738701455027  1.0000
  O   O15       1.0  0.7768405717496947  0.1889385974412363  0.06000398358084879  1.0000
  O   O16       1.0  0.2231594759549793  0.8110613522577524  0.9399966995472084  1.0000
  O   O17       1.0  0.6030875711007794  0.4591741241801159  0.9313059463312213  1.0000
  O   O18       1.0  0.3969288734813149  0.5408291567117445  0.06868871601802337  1.0000
  O   O19       1.0  0.8515511749212266  0.697107073617481  0.9694499798975187  1.0000
  O   O20       1.0  0.14845150040765276  0.3028962072743866  0.03054924359248188  1.0000
  O   O21       1.0  0.3815339441083552  0.4166081416330556  0.9430500711138237  1.0000
  O   O22       1.0  0.6184780856883022  0.5834026344427699  0.05694890797613541  1.0000
  O   O23       1.0  0.5235086386967963  0.9089076477546314  0.09015449636606826  1.0000
  O   O24       1.0  0.4764923307072593  0.09109313474257161  0.9098457984470089  1.0000
  O   O25       1.0  0.3669957534543613  0.7917321056049644  0.11893372418078474  1.0000
  O   O26       1.0  0.6330052159496944  0.2082686768922386  0.8810652330096431  1.0000
  O   O27       1.0  0.2362541880782558  0.6383265097550463  0.8833005737007441  1.0000
  O   O28       1.0  0.7637406606155323  0.3616792695314714  0.11670243393082559  1.0000
  O   O29       1.0  0.046988450546663826  0.552167704457446  0.9072205321799486  1.0000
  O   O30       1.0  0.9530127938052786  0.4478314124433211  0.0927783455854082  1.0000
  O   O31       1.0  0.25377283148512925  0.0296101406609139  0.07948525587031702  1.0000
  O   O32       1.0  0.7462266663237855  0.9703931402309466  0.9205149172965789  1.0000
  O   O33       1.0  0.10110438777373791  0.9255811008884295  0.07443899215505208  1.0000
  O   O34       1.0  0.8988984250290883  0.0744213472052095  0.9255611948393963  1.0000
