data_image0
_chemical_formula_structural       Cu4H20C30N8O10
_chemical_formula_sum              "Cu4 H20 C30 N8 O10"
_cell_length_a       8.106484463832441
_cell_length_b       10.024807448849742
_cell_length_c       10.842662885284195
_cell_angle_alpha    115.93193465680505
_cell_angle_beta     102.57072794182021
_cell_angle_gamma    101.84982462227791

_space_group_name_H-M_alt    "P 1"
_space_group_IT_number       1

loop_
  _space_group_symop_operation_xyz
  'x, y, z'

loop_
  _atom_site_type_symbol
  _atom_site_label
  _atom_site_symmetry_multiplicity
  _atom_site_fract_x
  _atom_site_fract_y
  _atom_site_fract_z
  _atom_site_occupancy
  Cu  Cu1       1.0  0.45672685447735983  0.6463098790836385  0.013908582507873765  1.0000
  Cu  Cu2       1.0  0.5432739155141917  0.3536860530363271  0.9860882519702727  1.0000
  Cu  Cu3       1.0  0.132829970203403  0.360710337535636  0.0121633959671072  1.0000
  Cu  Cu4       1.0  0.8671658520991274  0.6392926002804984  0.9878391381348095  1.0000
  H   H1        1.0  0.470731138198282  0.4230996345849363  0.7860418937904826  1.0000
  H   H2        1.0  0.529271295457882  0.5768939759463265  0.2139542783242377  1.0000
  H   H3        1.0  0.9650193492260687  0.6272095580839407  0.4575070609351999  1.0000
  H   H4        1.0  0.034989683658487473  0.3727982873703937  0.5425004515773894  1.0000
  H   H5        1.0  0.4775635049268843  0.6070731385958793  0.7205112810853861  1.0000
  H   H6        1.0  0.5224454738266218  0.3929346556959032  0.2794915907603368  1.0000
  H   H7        1.0  0.3646781573252654  0.7158959254310702  0.5663299066138238  1.0000
  H   H8        1.0  0.6353290851529538  0.2841071679242333  0.43367265814088546  1.0000
  H   H9        1.0  0.22317069934715753  0.9260850814496279  0.6659281010455231  1.0000
  H   H10       1.0  0.7768309496082396  0.0739132113710923  0.3340698151115049  1.0000
  H   H11       1.0  0.1882846918306313  0.0028329338756094987  0.9053886636925413  1.0000
  H   H12       1.0  0.811709303760239  0.997161740578903  0.0946084379242791  1.0000
  H   H13       1.0  0.1753150458773335  0.06133981550640041  0.11542968453222362  1.0000
  H   H14       1.0  0.8246707919098243  0.9386499988364676  0.8845604929047113  1.0000
  H   H15       1.0  0.1733875907923164  0.11207274560167238  0.3599127781776161  1.0000
  H   H16       1.0  0.8266055659667374  0.8879265599797463  0.6400814268146392  1.0000
  H   H17       1.0  0.29415616162398067  0.9578759585420538  0.4626819077655782  1.0000
  H   H18       1.0  0.7058519528185844  0.0421329658465481  0.5373185108617449  1.0000
  H   H19       1.0  0.4196833995119676  0.7585055578633513  0.3151799423237804  1.0000
  H   H20       1.0  0.5803183653589343  0.2414997984125975  0.6848226558211792  1.0000
  C   C1        1.0  0.1473517439811829  0.38359023817056226  0.28397411134522343  1.0000
  C   C2        1.0  0.8526372606158362  0.6164114010500724  0.716024977361876  1.0000
  C   C3        1.0  0.05610102198088634  0.4949269609784536  0.2718234401397909  1.0000
  C   C4        1.0  0.9439028676889762  0.5050772745241827  0.728180892747929  1.0000
  C   C5        1.0  0.9800355719770409  0.6017574961727306  0.3531490827373105  1.0000
  C   C6        1.0  0.019972131635519454  0.39824679799796303  0.646855879123592  1.0000
  C   C7        1.0  0.915305352036171  0.6601971358235303  0.2626438559708718  1.0000
  C   C8        1.0  0.08470629608751784  0.33981777126803087  0.7373650453116198  1.0000
  C   C9        1.0  0.8180895944141756  0.7712249571669717  0.26436733268514706  1.0000
  C   C10       1.0  0.18191007813639004  0.22878155057982502  0.7356363151171764  1.0000
  C   C11       1.0  0.4082818726511307  0.691245353416278  0.756123519880113  1.0000
  C   C12       1.0  0.5917219482347779  0.3087553401262327  0.24387754388026658  1.0000
  C   C13       1.0  0.3473498622125178  0.7553533678747402  0.6718343480713218  1.0000
  C   C14       1.0  0.6526526294014022  0.24464377438413723  0.32816416503736434  1.0000
  C   C15       1.0  0.26749608810396114  0.8687498279450239  0.7257273276747541  1.0000
  C   C16       1.0  0.7325054449359315  0.1312414014204677  0.27426590649434257  1.0000
  C   C17       1.0  0.24785104243392903  0.9126006320088391  0.8612095076304271  1.0000
  C   C18       1.0  0.7521420200620385  0.087391630582367  0.13878187164064565  1.0000
  C   C19       1.0  0.3084686246384223  0.8421022016105654  0.9393428491304832  1.0000
  C   C20       1.0  0.6915261919585519  0.15789130181708083  0.060652993171245825  1.0000
  C   C21       1.0  0.2947998223930739  0.879124015444205  0.08295596508032343  1.0000
  C   C22       1.0  0.705195444512029  0.1208706785663267  0.9170413461942246  1.0000
  C   C23       1.0  0.2232684154223035  0.9914511228671539  0.15900698151111203  1.0000
  C   C24       1.0  0.776725940040322  0.0085411797450945  0.8409864636844304  1.0000
  C   C25       1.0  0.22321501577857117  0.021084293972080607  0.2970887465735643  1.0000
  C   C26       1.0  0.7767811084379662  0.9789127402741827  0.7029077901131091  1.0000
  C   C27       1.0  0.2930977105082276  0.9365680543833433  0.35515384169197267  1.0000
  C   C28       1.0  0.7069039709258009  0.063430269134912  0.6448468588651792  1.0000
  C   C29       1.0  0.36212821590998356  0.825933025520996  0.2737437420793611  1.0000
  C   C30       1.0  0.637874773143608  0.17406882881586944  0.7262576528627278  1.0000
  N   N1        1.0  0.034721595824251515  0.4929410869127011  0.14322871672384005  1.0000
  N   N2        1.0  0.9652818906690189  0.5070654795021524  0.8567755600516592  1.0000
  N   N3        1.0  0.951078392727233  0.5899843331379844  0.1373651737102791  1.0000
  N   N4        1.0  0.04893069811507185  0.41002704404396434  0.8626446797962829  1.0000
  N   N5        1.0  0.3629311494326188  0.7979493567650664  0.14107928194884786  1.0000
  N   N6        1.0  0.6370637576007284  0.2020477090877222  0.8589216857469708  1.0000
  N   N7        1.0  0.38958877162541944  0.733830135851143  0.8866021247828613  1.0000
  N   N8        1.0  0.6104086130791446  0.2661669077186275  0.11339369342817214  1.0000
  O   O1        1.0  0.1846708776265089  0.3018163989685618  0.1668799916045884  1.0000
  O   O2        1.0  0.8153194415895799  0.6981853007381318  0.8331230192937298  1.0000
  O   O3        1.0  0.18371000421510789  0.37123799317144784  0.3951760259233054  1.0000
  O   O4        1.0  0.8162793710798726  0.6287612844394345  0.6048203344958909  1.0000
  O   O5        1.0  0.5417844791755047  0.4832608395306223  0.8903942252923399  1.0000
  O   O6        1.0  0.45821668316642683  0.5167327514446215  0.1096017371646526  1.0000
  O   O7        1.0  0.7670116966411628  0.8415367404810964  0.3674631880160106  1.0000
  O   O8        1.0  0.232988342780665  0.15846392509087792  0.6325400311713096  1.0000
  O   O9        1.0  0.785497006170445  0.7829379068574909  0.14543317400083577  1.0000
  O   O10       1.0  0.21449871104279342  0.2170579777359265  0.854565606246524  1.0000
