data_image0
_chemical_formula_structural       Cd4H28C20O28
_chemical_formula_sum              "Cd4 H28 C20 O28"
_cell_length_a       6.1510572199817295
_cell_length_b       9.632387945641472
_cell_length_c       15.210490187019124
_cell_angle_alpha    89.99981680435552
_cell_angle_beta     90.00001812975663
_cell_angle_gamma    102.31035469665659

_space_group_name_H-M_alt    "P 1"
_space_group_IT_number       1

loop_
  _space_group_symop_operation_xyz
  'x, y, z'

loop_
  _atom_site_type_symbol
  _atom_site_label
  _atom_site_symmetry_multiplicity
  _atom_site_fract_x
  _atom_site_fract_y
  _atom_site_fract_z
  _atom_site_occupancy
  Cd  Cd1       1.0  0.8272778448416886  0.534425841353965  0.34835509258761727  1.0000
  Cd  Cd2       1.0  0.1727146054413423  0.9655820084597122  0.8483549742868417  1.0000
  Cd  Cd3       1.0  0.17273029239954948  0.4655783768391685  0.6516465053184604  1.0000
  Cd  Cd4       1.0  0.827267699654911  0.034418719088613194  0.15164596618176057  1.0000
  H   H1        1.0  0.02969463451743333  0.7288466130703737  0.23956352751709886  1.0000
  H   H2        1.0  0.9703040972994543  0.7711411637185251  0.739569725000855  1.0000
  H   H3        1.0  0.9703059746826453  0.27114709175801005  0.7604341257536475  1.0000
  H   H4        1.0  0.029689533664189575  0.22884738506679975  0.2604351601262351  1.0000
  H   H5        1.0  0.7853659040254612  0.6987043250639148  0.20007765224123367  1.0000
  H   H6        1.0  0.21462973702085003  0.801288046754017  0.7000772119866381  1.0000
  H   H7        1.0  0.2146303152337339  0.3012905921387273  0.7999292052023887  1.0000
  H   H8        1.0  0.7853595040026135  0.19870171443366047  0.2999257008161819  1.0000
  H   H9        1.0  0.47894803377021583  0.3230318448362722  0.3677485028069256  1.0000
  H   H10       1.0  0.5210498123794451  0.17695986930147709  0.8677483170910988  1.0000
  H   H11       1.0  0.5210582595179291  0.6769638318025528  0.632250465343837  1.0000
  H   H12       1.0  0.47895624406272924  0.8230272154319846  0.13225591059649133  1.0000
  H   H13       1.0  0.46108137167745167  0.34399781073611985  0.2651843969392188  1.0000
  H   H14       1.0  0.5389173502807267  0.15599654156390838  0.7651829391826935  1.0000
  H   H15       1.0  0.5389151605420465  0.655993871943984  0.734814571215608  1.0000
  H   H16       1.0  0.46109717308234366  0.8439913529204401  0.23481997362206636  1.0000
  H   H17       1.0  0.09935021741055287  0.3738908714840078  0.43683103667739687  1.0000
  H   H18       1.0  0.9006390769186793  0.12611151221791767  0.9368329280001075  1.0000
  H   H19       1.0  0.9006657185237116  0.6261045031790288  0.5631633293866258  1.0000
  H   H20       1.0  0.09935663484389318  0.8738941700221261  0.0631712996684826  1.0000
  H   H21       1.0  0.8759112311877003  0.3498832803516834  0.4909338549694268  1.0000
  H   H22       1.0  0.12408033159709218  0.15012843446572788  0.9909356954335065  1.0000
  H   H23       1.0  0.1241040788269245  0.6501185633944147  0.5090611685289943  1.0000
  H   H24       1.0  0.8759181629983175  0.8498760857147616  0.009065902472244099  1.0000
  H   H25       1.0  0.2121857148161084  0.0727146484944043  0.40601971395570047  1.0000
  H   H26       1.0  0.7877985252635256  0.4272794491507099  0.9060117859987074  1.0000
  H   H27       1.0  0.7878958756837805  0.9272700706202526  0.5940048944056427  1.0000
  H   H28       1.0  0.2121115784108979  0.572727839212497  0.09400361816528857  1.0000
  C   C1        1.0  0.2493550182992904  0.803734588921081  0.372567054449604  1.0000
  C   C2        1.0  0.750637936400622  0.6962623741717096  0.8725799786968976  1.0000
  C   C3        1.0  0.750702271050912  0.19625841572472066  0.6274279690578977  1.0000
  C   C4        1.0  0.24929956421782146  0.30373223212615835  0.1274354254800656  1.0000
  C   C5        1.0  0.3861311393453875  0.9063929790832503  0.4360455089055293  1.0000
  C   C6        1.0  0.6138596165634951  0.593626306854965  0.9360553551769256  1.0000
  C   C7        1.0  0.6138255028425021  0.09366874742350721  0.5639225594503756  1.0000
  C   C8        1.0  0.38617030964896776  0.40635143107082417  0.063927834407977  1.0000
  C   C9        1.0  0.34006352675119433  0.0412069411101044  0.4464359322322053  1.0000
  C   C10       1.0  0.6599290228804975  0.4588114160484906  0.9464378012403782  1.0000
  C   C11       1.0  0.6599265855409086  0.9588290140922164  0.5535623784364105  1.0000
  C   C12       1.0  0.3400604549888087  0.5411869370395834  0.05356182434863399  1.0000
  C   C13       1.0  0.45199979248935307  0.13424239728361437  0.5102740167126283  1.0000
  C   C14       1.0  0.5479810891652122  0.36576131999540706  0.010270828167449496  1.0000
  C   C15       1.0  0.5479224660148744  0.8657827840464732  0.48970259841364333  1.0000
  C   C16       1.0  0.4520629119422778  0.6342310259361311  0.989708416756514  1.0000
  C   C17       1.0  0.38107482587514585  0.27170169803047617  0.5253614900096011  1.0000
  C   C18       1.0  0.618937409361031  0.22828698751718685  0.0253802778221441  1.0000
  C   C19       1.0  0.6190218545159212  0.7282760991307453  0.47461841237028307  1.0000
  C   C20       1.0  0.3810147159572351  0.7717275841114384  0.9746410433035279  1.0000
  O   O1        1.0  0.15720700013996947  0.6815144125390871  0.4030474591066451  1.0000
  O   O2        1.0  0.8427889703631096  0.818489827269019  0.9030430405876542  1.0000
  O   O3        1.0  0.8427830698437405  0.31850542029256695  0.5969469069323806  1.0000
  O   O4        1.0  0.1572034848764687  0.1814998332892301  0.09694672339512067  1.0000
  O   O5        1.0  0.2267417733054842  0.8441051509493676  0.294257899875582  1.0000
  O   O6        1.0  0.77327138171934  0.6559098468629186  0.7942597300768098  1.0000
  O   O7        1.0  0.7732567212893784  0.15589936920964928  0.7057522447632747  1.0000
  O   O8        1.0  0.22673742374930572  0.3441040245930366  0.2057550166395714  1.0000
  O   O9        1.0  0.3482292484292344  0.30068328276907147  0.6050991930375601  1.0000
  O   O10       1.0  0.6517743152098133  0.19931172290260693  0.10510226150268658  1.0000
  O   O11       1.0  0.6517943339701302  0.6993269012493851  0.3948813667501837  1.0000
  O   O12       1.0  0.34820583297417323  0.8006836976585416  0.8948861875921775  1.0000
  O   O13       1.0  0.3504929903762958  0.3454302071517502  0.4587632980509325  1.0000
  O   O14       1.0  0.6494878342442405  0.15457125664972438  0.9587454074478925  1.0000
  O   O15       1.0  0.6495141656746029  0.6545675921970399  0.5412744591171261  1.0000
  O   O16       1.0  0.3505103473907881  0.845436498049999  0.0412653946286738  1.0000
  O   O17       1.0  0.9041335229727423  0.6505639178135283  0.21865632696449916  1.0000
  O   O18       1.0  0.09586446716074448  0.8494261371746532  0.7186590753582606  1.0000
  O   O19       1.0  0.09586547911948877  0.34942983733782274  0.7813446135112299  1.0000
  O   O20       1.0  0.9041275566953857  0.15056246194686196  0.28134383744575325  1.0000
  O   O21       1.0  0.5702756553281745  0.333187926879944  0.31179631812540265  1.0000
  O   O22       1.0  0.4297227477425452  0.16680942575423063  0.8117941805981486  1.0000
  O   O23       1.0  0.4297265609793826  0.6668057276106013  0.6882039649094266  1.0000
  O   O24       1.0  0.5702873856801317  0.833179681124207  0.18821004708738084  1.0000
  O   O25       1.0  0.9364224705578083  0.3688491998717324  0.4297806454449499  1.0000
  O   O26       1.0  0.0635643547955027  0.1311511467931865  0.9297772649680026  1.0000
  O   O27       1.0  0.06358625029467657  0.6311324268676586  0.570216350397132  1.0000
  O   O28       1.0  0.9364262226849005  0.8688579210043696  0.07021841596403529  1.0000
