data_image0
_chemical_formula_structural       Hg2H8C12Br4N2
_chemical_formula_sum              "Hg2 H8 C12 Br4 N2"
_cell_length_a       4.05834186809324
_cell_length_b       9.694562271237512
_cell_length_c       11.218190062338566
_cell_angle_alpha    71.2975865990926
_cell_angle_beta     80.12565750539521
_cell_angle_gamma    79.67538132661853

_space_group_name_H-M_alt    "P 1"
_space_group_IT_number       1

loop_
  _space_group_symop_operation_xyz
  'x, y, z'

loop_
  _atom_site_type_symbol
  _atom_site_label
  _atom_site_symmetry_multiplicity
  _atom_site_fract_x
  _atom_site_fract_y
  _atom_site_fract_z
  _atom_site_occupancy
  Hg  Hg1       1.0  0.7081567238170479  0.7895693127957273  0.6365206174234287  1.0000
  Hg  Hg2       1.0  0.29188153117259935  0.21042570730844556  0.36347737071189806  1.0000
  H   H1        1.0  0.7319981534525297  0.45726412360401264  0.7009031367270139  1.0000
  H   H2        1.0  0.2680215627100608  0.5427341580371987  0.2990950993775171  1.0000
  H   H3        1.0  0.7380289436936922  0.9225093365011007  0.0701056234708729  1.0000
  H   H4        1.0  0.26194563771161944  0.077513035361676  0.9298949956589908  1.0000
  H   H5        1.0  0.5427301041258943  0.22004140945329453  0.7235958241560282  1.0000
  H   H6        1.0  0.45725572774416895  0.7799611955237326  0.2764086660309743  1.0000
  H   H7        1.0  0.818937928394469  0.8326308272683535  0.8814964536699602  1.0000
  H   H8        1.0  0.1810633860257056  0.16738610875751195  0.11849777038973028  1.0000
  C   C1        1.0  0.5536225095242672  0.45269376968215624  0.8951334873708133  1.0000
  C   C2        1.0  0.44639546993230533  0.547310003469697  0.10486512241281072  1.0000
  C   C3        1.0  0.596377323753572  0.6336466554320452  0.9826156313779248  1.0000
  C   C4        1.0  0.4036135078997491  0.36635596544761023  0.017384087541905985  1.0000
  C   C5        1.0  0.6069354253411137  0.394785502565263  0.7908069611766207  1.0000
  C   C6        1.0  0.39308533190641287  0.6052094755873654  0.20919747130056268  1.0000
  C   C7        1.0  0.6539054389380894  0.8192265765023663  0.07714496042045481  1.0000
  C   C8        1.0  0.34605220365267547  0.18077817611513325  0.9228571177718194  1.0000
  C   C9        1.0  0.5043920127988673  0.2626523352157477  0.8044674313408251  1.0000
  C   C10       1.0  0.4955942342507101  0.7373568614463011  0.19553966953842658  1.0000
  C   C11       1.0  0.6992141691638168  0.7701760187697533  0.9727075086760094  1.0000
  C   C12       1.0  0.300778120839894  0.2298299093779051  0.027286749352924643  1.0000
  Br  Br1       1.0  0.24502420733803368  0.9815982099155536  0.6831357667191965  1.0000
  Br  Br2       1.0  0.7549580179609878  0.0183603983773608  0.3168891215743912  1.0000
  Br  Br3       1.0  0.21092893722714479  0.6513633627652455  0.5417738023247833  1.0000
  Br  Br4       1.0  0.7890666231690845  0.3486085169291684  0.4582082634222359  1.0000
  N   N1        1.0  0.6438862287869968  0.5849699524845706  0.8803109116019171  1.0000
  N   N2        1.0  0.35614890021004436  0.41503495305393306  0.11968721410745073  1.0000
