data_image0
_chemical_formula_structural       Co2H18C26N2O10
_chemical_formula_sum              "Co2 H18 C26 N2 O10"
_cell_length_a       7.133542879448133
_cell_length_b       10.11013200822118
_cell_length_c       9.979939957918859
_cell_angle_alpha    112.8765494793302
_cell_angle_beta     96.86280000199197
_cell_angle_gamma    107.4875742927377

_space_group_name_H-M_alt    "P 1"
_space_group_IT_number       1

loop_
  _space_group_symop_operation_xyz
  'x, y, z'

loop_
  _atom_site_type_symbol
  _atom_site_label
  _atom_site_symmetry_multiplicity
  _atom_site_fract_x
  _atom_site_fract_y
  _atom_site_fract_z
  _atom_site_occupancy
  Co  Co1       1.0  0.07717617499676525  0.8769808719087492  0.3764235031505192  1.0000
  Co  Co2       1.0  0.922828129919914  0.1230269415379439  0.6235819295122125  1.0000
  H   H1        1.0  0.9479589952658712  0.5961138769203203  0.09102174970411875  1.0000
  H   H2        1.0  0.05205382768249219  0.40389165529554555  0.9089926608995212  1.0000
  H   H3        1.0  0.7387945664133826  0.9534494803243877  0.24830440652302602  1.0000
  H   H4        1.0  0.2612099851172047  0.0465444337279664  0.7517025605398401  1.0000
  H   H5        1.0  0.1178240572407462  0.4216797051249159  0.329043893182515  1.0000
  H   H6        1.0  0.8822010779284711  0.5783138096400009  0.670932921525349  1.0000
  H   H7        1.0  0.38480444140100195  0.34719783643510743  0.6889109439564577  1.0000
  H   H8        1.0  0.6151903589956265  0.6528167287773317  0.31109620315528025  1.0000
  H   H9        1.0  0.4503860912961671  0.8097197435441501  0.7620330198993627  1.0000
  H   H10       1.0  0.549599678837815  0.19028438134760253  0.237964066661597  1.0000
  H   H11       1.0  0.48266653637552553  0.8436407503012759  0.003565744626008931  1.0000
  H   H12       1.0  0.517322781347936  0.15634003360572282  0.9964515203876941  1.0000
  H   H13       1.0  0.7083774632113845  0.473932931429232  0.8357293247210291  1.0000
  H   H14       1.0  0.29162955456902045  0.5260608921302535  0.16428787895978295  1.0000
  H   H15       1.0  0.44001750190739153  0.9965833465606835  0.32767353865304466  1.0000
  H   H16       1.0  0.5599426003039341  0.003419380430884202  0.672307369878929  1.0000
  H   H17       1.0  0.24689399320591585  0.9990864800251343  0.2333254859727346  1.0000
  H   H18       1.0  0.7531235156055375  0.0009144459165071038  0.7666935871679141  1.0000
  C   C1        1.0  0.8429924175103028  0.647291150511535  0.06495789194913473  1.0000
  C   C2        1.0  0.15702148678528266  0.35271573298216197  0.9350431307724135  1.0000
  C   C3        1.0  0.7267930957192874  0.8475789502513678  0.15360535898570035  1.0000
  C   C4        1.0  0.2732056696213334  0.15241725021208202  0.8463959152374868  1.0000
  C   C5        1.0  0.15901774370912852  0.19656823481659563  0.4006853842479146  1.0000
  C   C6        1.0  0.8409675900932285  0.8034381458440052  0.5993155588972668  1.0000
  C   C7        1.0  0.23867989290086208  0.7331710481612957  0.482171521172347  1.0000
  C   C8        1.0  0.7613238997647331  0.26681391964096696  0.5178107760094619  1.0000
  C   C9        1.0  0.20553158594820795  0.4675203525273872  0.445166658964375  1.0000
  C   C10       1.0  0.7944958068053297  0.5324903595042301  0.5548252158445023  1.0000
  C   C11       1.0  0.3563384660692393  0.4269627259919986  0.6486271888266941  1.0000
  C   C12       1.0  0.6436714163425563  0.5730383894227133  0.35136713290300736  1.0000
  C   C13       1.0  0.43687031088023803  0.5864975087999938  0.7441446471944245  1.0000
  C   C14       1.0  0.5631501384501904  0.4135059104397953  0.2558646853767995  1.0000
  C   C15       1.0  0.28051028317717214  0.6272379659850459  0.540536142558672  1.0000
  C   C16       1.0  0.7195006236873313  0.3727770172451628  0.4594607700060536  1.0000
  C   C17       1.0  0.5750292274895229  0.6501790895563813  0.8952422626928537  1.0000
  C   C18       1.0  0.4249779041159769  0.3498147750058749  0.10477196176650946  1.0000
  C   C19       1.0  0.2391626271442108  0.3671690559881854  0.5004848306847691  1.0000
  C   C20       1.0  0.7608392115067134  0.6328238979661976  0.49950344001828023  1.0000
  C   C21       1.0  0.3919365278286266  0.6853430482101005  0.6898139772166516  1.0000
  C   C22       1.0  0.6080757449428873  0.3146545746789258  0.3101852163216208  1.0000
  C   C23       1.0  0.5859715735714348  0.7861491290885994  0.015515487795887852  1.0000
  C   C24       1.0  0.41401339975082146  0.21382963470566102  0.9844734751024263  1.0000
  C   C25       1.0  0.7066447942202673  0.5792595563387055  0.9236890096202969  1.0000
  C   C26       1.0  0.29335941583084246  0.4207390605976046  0.07631176757760018  1.0000
  N   N1        1.0  0.8556025898083348  0.7804554291316919  0.1786256921673298  1.0000
  N   N2        1.0  0.14440292925778664  0.21954654459100445  0.8213855681489263  1.0000
  O   O1        1.0  0.10685189525244711  0.10754211743539338  0.4678058988311022  1.0000
  O   O2        1.0  0.8931254327399573  0.8924676907200109  0.5321875745983318  1.0000
  O   O3        1.0  0.12004571652284575  0.6750570901650761  0.34967031842946034  1.0000
  O   O4        1.0  0.8799525934972651  0.3249288221943729  0.6503208198084705  1.0000
  O   O5        1.0  0.1533509581334087  0.14600947475919668  0.26384046474046835  1.0000
  O   O6        1.0  0.8466287033082551  0.8539944074229949  0.7361669338729084  1.0000
  O   O7        1.0  0.2990045001574374  0.9294646105927669  0.26110647364175316  1.0000
  O   O8        1.0  0.7010061601132661  0.07057439612469808  0.7389109573938908  1.0000
  O   O9        1.0  0.3115197507861398  0.8805099719851484  0.564071203819651  1.0000
  O   O10       1.0  0.6884498749181633  0.1194835971283368  0.43591505749107273  1.0000
