data_image0
_chemical_formula_structural       Cd4H36C40N12O24
_chemical_formula_sum              "Cd4 H36 C40 N12 O24"
_cell_length_a       10.543445990957142
_cell_length_b       11.130870799825402
_cell_length_c       12.971562406546616
_cell_angle_alpha    67.14026544581176
_cell_angle_beta     66.021198996087
_cell_angle_gamma    61.73111526856125

_space_group_name_H-M_alt    "P 1"
_space_group_IT_number       1

loop_
  _space_group_symop_operation_xyz
  'x, y, z'

loop_
  _atom_site_type_symbol
  _atom_site_label
  _atom_site_symmetry_multiplicity
  _atom_site_fract_x
  _atom_site_fract_y
  _atom_site_fract_z
  _atom_site_occupancy
  Cd  Cd1       1.0  0.3375293382424475  0.9182449460727824  0.6893352361187153  1.0000
  Cd  Cd2       1.0  0.9451957267198526  0.5817786969849122  0.8107057107957799  1.0000
  Cd  Cd3       1.0  0.6624708231421509  0.0817560599224478  0.3106648616460177  1.0000
  Cd  Cd4       1.0  0.05480485887961348  0.4182212573319219  0.18929459021849482  1.0000
  H   H1        1.0  0.6147598829698852  0.22193660124499806  0.016170485881708933  1.0000
  H   H2        1.0  0.852916693354544  0.27795467629582044  0.4839887999732185  1.0000
  H   H3        1.0  0.38524377935480913  0.7780612650686719  0.9838290138182161  1.0000
  H   H4        1.0  0.14708578060021457  0.7220442318555982  0.5160112707076081  1.0000
  H   H5        1.0  0.8094389412639202  0.011715155066625  0.7400485827906138  1.0000
  H   H6        1.0  0.5611752075342196  0.48831638705045327  0.7599923442597714  1.0000
  H   H7        1.0  0.1905602242598619  0.9882869352712761  0.25994874132134527  1.0000
  H   H8        1.0  0.43882391392482145  0.5116835617534079  0.24000839033747925  1.0000
  H   H9        1.0  0.8333740195118647  0.24542927120112518  0.9593427000702663  1.0000
  H   H10       1.0  0.03813086116462464  0.25421588461303923  0.5411413482167191  1.0000
  H   H11       1.0  0.16662516611688022  0.7545706917710433  0.04065691964908778  1.0000
  H   H12       1.0  0.9618688329536694  0.7457809134833083  0.4588596554816745  1.0000
  H   H13       1.0  0.14541610968031168  0.14705301605211218  0.8772932865438322  1.0000
  H   H14       1.0  0.16967890144758985  0.35271828403796224  0.6231672712009839  1.0000
  H   H15       1.0  0.8545834359935968  0.85294588107336  0.122707651302953  1.0000
  H   H16       1.0  0.8303221926414184  0.6472785054030582  0.37683441379232363  1.0000
  H   H17       1.0  0.3340109563122695  0.1520138475585853  0.8983178714086152  1.0000
  H   H18       1.0  0.3843778169130798  0.3478490893273047  0.6017636182521927  1.0000
  H   H19       1.0  0.6659880167023927  0.8479882002743938  0.10168279733702684  1.0000
  H   H20       1.0  0.6156224086412223  0.6521519308362329  0.398235364634651  1.0000
  H   H21       1.0  0.38596449609477906  0.1536592958898737  0.506083915622554  1.0000
  H   H22       1.0  0.04558637024616961  0.34630903877985014  0.9938321945260001  1.0000
  H   H23       1.0  0.6140346895339662  0.8463406670822948  0.49391570409679986  1.0000
  H   H24       1.0  0.9544151911091492  0.6536919585600457  0.00616858453364712  1.0000
  H   H25       1.0  0.3282628640299167  0.0864737163917511  0.4536862185032647  1.0000
  H   H26       1.0  0.868325940806713  0.4134881131610014  0.04624532626257862  1.0000
  H   H27       1.0  0.6717384857246176  0.9135262477657236  0.5463133082805671  1.0000
  H   H28       1.0  0.13167534477811663  0.5865118368281657  0.9537553153991496  1.0000
  H   H29       1.0  0.5028967852560415  0.6809894612122632  0.8475515996740699  1.0000
  H   H30       1.0  0.03141463048697112  0.8190132249826688  0.652371488384162  1.0000
  H   H31       1.0  0.49710471294287123  0.31900840391610064  0.1524479929613776  1.0000
  H   H32       1.0  0.9685844909720698  0.18098672382119219  0.34762924621308855  1.0000
  H   H33       1.0  0.37797157584575575  0.6398952668349837  0.8379596828114304  1.0000
  H   H34       1.0  0.8557812724086203  0.860112924883623  0.6620512465076871  1.0000
  H   H35       1.0  0.6220275456132854  0.3601046819688776  0.16204105178581335  1.0000
  H   H36       1.0  0.14421784905042045  0.13988702392023813  0.33794948808956354  1.0000
  C   C1        1.0  0.6018555171741153  0.1820834389923291  0.9580961147597267  1.0000
  C   C2        1.0  0.7420860802042031  0.31777744073864506  0.5420790082444925  1.0000
  C   C3        1.0  0.3981433285144362  0.8179154624608105  0.04190448243959819  1.0000
  C   C4        1.0  0.2579133811950313  0.6822235695842523  0.45792074887278744  1.0000
  C   C5        1.0  0.725404111053713  0.11429281531052028  0.877636367199507  1.0000
  C   C6        1.0  0.7173598247469358  0.38557252696110567  0.6225331142897234  1.0000
  C   C7        1.0  0.27459696293033176  0.8857061014962326  0.1223630221863985  1.0000
  C   C8        1.0  0.28263957248259425  0.6144284691934773  0.3774677577054534  1.0000
  C   C9        1.0  0.7108734864498135  0.061275973814019793  0.8034796160120193  1.0000
  C   C10       1.0  0.5756091960342432  0.43867921762228684  0.6966124742089548  1.0000
  C   C11       1.0  0.2891249149189079  0.9387261066832409  0.19651848233037586  1.0000
  C   C12       1.0  0.42439075374956997  0.561320755190529  0.30338637127997  1.0000
  C   C13       1.0  0.911702405923542  0.16913268573941306  0.9082558048578664  1.0000
  C   C14       1.0  0.9890554710276691  0.33062931846177435  0.5921085863570353  1.0000
  C   C15       1.0  0.08829747969056718  0.8308672729050881  0.09174415550894825  1.0000
  C   C16       1.0  0.010943946306831423  0.6693695503270829  0.4078945812455359  1.0000
  C   C17       1.0  0.5538363084537534  0.012436415273270999  0.7341060111152516  1.0000
  C   C18       1.0  0.300434394584336  0.4875977270753253  0.7659805631909222  1.0000
  C   C19       1.0  0.44616162463535153  0.9875645753683455  0.2658952944629007  1.0000
  C   C20       1.0  0.6995665309553302  0.5124032887605452  0.2340187603433819  1.0000
  C   C21       1.0  0.4594356991413802  0.1973333097364716  0.9643317150851942  1.0000
  C   C22       1.0  0.6211757367884588  0.3025441705672023  0.535817187950478  1.0000
  C   C23       1.0  0.5405655864434493  0.8026666402526956  0.0356689265765341  1.0000
  C   C24       1.0  0.37882448876584385  0.6974568495963354  0.46418179493636563  1.0000
  C   C25       1.0  0.32489211149652425  0.27286191663387876  0.048809649999881806  1.0000
  C   C26       1.0  0.6466957942441169  0.22716442299645928  0.4512116184005991  1.0000
  C   C27       1.0  0.6751128023545122  0.7271380400535745  0.9511904651433412  1.0000
  C   C28       1.0  0.35330366715512423  0.772836587326431  0.5487881387166809  1.0000
  C   C29       1.0  0.06551282302905306  0.1196680619036243  0.8681486338967019  1.0000
  C   C30       1.0  0.053281783027166796  0.3801525262343262  0.6322005085321224  1.0000
  C   C31       1.0  0.93448776257042  0.880331892413217  0.1318516671175729  1.0000
  C   C32       1.0  0.9467168711655629  0.6198432146706594  0.3678011319987888  1.0000
  C   C33       1.0  0.5698076000191178  0.07322468339773282  0.8116695450788853  1.0000
  C   C34       1.0  0.45470603311408564  0.42670487315157846  0.6884179085088604  1.0000
  C   C35       1.0  0.4301914371652559  0.9267773786035534  0.18833000878886008  1.0000
  C   C36       1.0  0.545293768225349  0.5732971986903478  0.3115808711284557  1.0000
  C   C37       1.0  0.4443156586542543  0.14178861993895  0.892118848323193  1.0000
  C   C38       1.0  0.4782220439447186  0.35808258806703464  0.60800382489915  1.0000
  C   C39       1.0  0.555684566900048  0.8582124002245878  0.10788013456365063  1.0000
  C   C40       1.0  0.5217785215497841  0.6419194936155321  0.39199418050772283  1.0000
  N   N1        1.0  0.8709670723566488  0.100267609587597  0.8675747647132895  1.0000
  N   N2        1.0  0.8387810511813284  0.3996397037698357  0.6326354881382344  1.0000
  N   N3        1.0  0.129033301642032  0.8997313115468231  0.13242428402516276  1.0000
  N   N4        1.0  0.16121968286251592  0.6003581515178807  0.36736487872764206  1.0000
  N   N5        1.0  0.9915785036949809  0.012018209474050003  0.8060465502540025  1.0000
  N   N6        1.0  0.8095925703204897  0.48803661431794154  0.694045185293291  1.0000
  N   N7        1.0  0.008422846059552546  0.987981754683425  0.19395297652982887  1.0000
  N   N8        1.0  0.19040886370871854  0.511961236642108  0.30595552222004596  1.0000
  N   N9        1.0  0.10873647711637342  0.0245712479462696  0.807018243450223  1.0000
  N   N10       1.0  0.9402634364234785  0.4754223765362155  0.6931498048025233  1.0000
  N   N11       1.0  0.8912648726381606  0.975428716211205  0.19298128333360867  1.0000
  N   N12       1.0  0.059737657665529416  0.5245744129048048  0.30685188019077714  1.0000
  O   O1        1.0  0.31316895278487067  0.11071292499639179  0.5257645839003758  1.0000
  O   O2        1.0  0.9495166549956477  0.3891591031911971  0.9741811153907848  1.0000
  O   O3        1.0  0.6868302328438814  0.8892870379757766  0.4742350358189782  1.0000
  O   O4        1.0  0.0504842906489813  0.6108397852789409  0.02582050375091429  1.0000
  O   O5        1.0  0.40091494754672397  0.7163146246331564  0.8396938499612078  1.0000
  O   O6        1.0  0.9568743283427136  0.7836935304150076  0.660256618924727  1.0000
  O   O7        1.0  0.59908640220781  0.2836853395243253  0.16030567682262398  1.0000
  O   O8        1.0  0.04312436890145931  0.2163074700672425  0.3397439124229891  1.0000
  O   O9        1.0  0.1961969877567995  0.2808025095396829  0.05506500926795609  1.0000
  O   O10       1.0  0.5321559635714266  0.21945203426046328  0.4447927429390647  1.0000
  O   O11       1.0  0.8038012211028017  0.7191995284526554  0.944936433708115  1.0000
  O   O12       1.0  0.46784574622827063  0.7805468640503221  0.5552081019721911  1.0000
  O   O13       1.0  0.6703944582226454  0.952971528489961  0.6609536844243848  1.0000
  O   O14       1.0  0.2844358408510034  0.547026798843703  0.8391298553240674  1.0000
  O   O15       1.0  0.3296049189019215  0.0470315950303615  0.3390448919633898  1.0000
  O   O16       1.0  0.7155621564078132  0.4529742059662212  0.1608703353761953  1.0000
  O   O17       1.0  0.42118359583925985  0.026234066801471608  0.748454480707885  1.0000
  O   O18       1.0  0.19586842778072372  0.4738822903713782  0.7516475941125336  1.0000
  O   O19       1.0  0.5788177539152743  0.9737658973560026  0.2515450460759467  1.0000
  O   O20       1.0  0.804131097788222  0.5261187341198266  0.24835104812685668  1.0000
  O   O21       1.0  0.3392082880332907  0.3258841741857665  0.11230371520654357  1.0000
  O   O22       1.0  0.7775459897256382  0.1740506260018648  0.3877611250768425  1.0000
  O   O23       1.0  0.660794270196142  0.6741126207682271  0.887697536203781  1.0000
  O   O24       1.0  0.2224545958738276  0.8259493283149695  0.6122391759374325  1.0000
