data_image0
_chemical_formula_structural       Zr6H22C138Br60O32
_chemical_formula_sum              "Zr6 H22 C138 Br60 O32"
_cell_length_a       19.967163845860732
_cell_length_b       20.005173764922894
_cell_length_c       20.036260263020377
_cell_angle_alpha    94.42283395033003
_cell_angle_beta     93.36645097431558
_cell_angle_gamma    94.15772790944484

_space_group_name_H-M_alt    "P 1"
_space_group_IT_number       1

loop_
  _space_group_symop_operation_xyz
  'x, y, z'

loop_
  _atom_site_type_symbol
  _atom_site_label
  _atom_site_symmetry_multiplicity
  _atom_site_fract_x
  _atom_site_fract_y
  _atom_site_fract_z
  _atom_site_occupancy
  Zr  Zr1       1.0  0.8124575726966368  0.9645771126644007  0.8686112066115257  1.0000
  Zr  Zr2       1.0  0.7760300560987545  0.8619414251141323  0.001031310794701294  1.0000
  Zr  Zr3       1.0  0.980017930418299  0.9986328376043546  0.9382001817225004  1.0000
  Zr  Zr4       1.0  0.9132138099065016  0.8312908808477033  0.9021194935895808  1.0000
  Zr  Zr5       1.0  0.8411099907547807  0.03125288048546081  0.0352758381723461  1.0000
  Zr  Zr6       1.0  0.9413469179239369  0.8978055353973535  0.07122687182863535  1.0000
  H   H1        1.0  0.9273856298332103  0.30310958784833997  0.6008863688745407  1.0000
  H   H2        1.0  0.9352027920941595  0.28233972944418184  0.38608211048077834  1.0000
  H   H3        1.0  0.9634750683046177  0.11220482604913685  0.5003793107096328  1.0000
  H   H4        1.0  0.7983047964906475  0.7517093357532901  0.44062388640329436  1.0000
  H   H5        1.0  0.844958835194319  0.5898363429499581  0.5603981343499882  1.0000
  H   H6        1.0  0.8443097406877413  0.5616903621563836  0.34497331565805217  1.0000
  H   H7        1.0  0.24931174986016202  0.5522879382697284  0.9989748110868818  1.0000
  H   H8        1.0  0.21235874722606235  0.3365249152854659  0.9875464811299892  1.0000
  H   H9        1.0  0.0521373641607781  0.4628747136409714  0.030609124970815995  1.0000
  H   H10       1.0  0.5044650342036618  0.31080706953074616  0.9182339350392329  1.0000
  H   H11       1.0  0.5478691614300358  0.5256891706253198  0.9420862805541292  1.0000
  H   H12       1.0  0.7080772652772253  0.3961010088480919  0.9120053651738903  1.0000
  H   H13       1.0  0.4891912917614434  0.8893917448515225  0.3209364092854656  1.0000
  H   H14       1.0  0.2758231714869481  0.9084788744392114  0.3066259849786378  1.0000
  H   H15       1.0  0.39837630211163594  0.9856327950424273  0.1569195045534642  1.0000
  H   H16       1.0  0.25439558586312216  0.8451776079192542  0.5945182466585663  1.0000
  H   H17       1.0  0.4701848217639153  0.856953989327622  0.627487016475108  1.0000
  H   H18       1.0  0.34567409934556537  0.8530454388599507  0.7953712806519847  1.0000
  H   H19       1.0  0.774358634273426  0.8235775972386321  0.8614832636867932  1.0000
  H   H20       1.0  0.8786267924878715  0.08972165435504562  0.9173676378319302  1.0000
  H   H21       1.0  0.037000789592866595  0.8793314475781385  0.9734895816980682  1.0000
  H   H22       1.0  0.8200134513155958  0.931957159669118  0.1270993388263193  1.0000
  C   C1        1.0  0.9487439482646777  0.205206924562205  0.5576919652281873  1.0000
  C   C2        1.0  0.936248006760394  0.27290186489545937  0.5550584385159354  1.0000
  C   C3        1.0  0.9320337571557645  0.3009513745854662  0.49311335040047066  1.0000
  C   C4        1.0  0.9406853264007818  0.26100334426188715  0.4343623780246234  1.0000
  C   C5        1.0  0.9513234786294688  0.19273402574832232  0.4363233116305808  1.0000
  C   C6        1.0  0.9568174816027408  0.1656002792838009  0.49829981125719064  1.0000
  C   C7        1.0  0.8187686723206014  0.6592191406167772  0.3854203792000845  1.0000
  C   C8        1.0  0.8094375012218791  0.699492534478715  0.4440354045314265  1.0000
  C   C9        1.0  0.8192033588292772  0.6750784952613318  0.5070133205680066  1.0000
  C   C10       1.0  0.8358198658554271  0.6088453085784451  0.5113551750101878  1.0000
  C   C11       1.0  0.8438414624948505  0.5675979818487421  0.45315980161911545  1.0000
  C   C12       1.0  0.8354788914572708  0.592894950600126  0.3901457319121847  1.0000
  C   C13       1.0  0.1481199517613163  0.5147379305451949  0.0162666466853025  1.0000
  C   C14       1.0  0.21530193340276327  0.5078659637725025  0.0031447893333975945  1.0000
  C   C15       1.0  0.23850768501268504  0.44364814138803876  0.9929800023367933  1.0000
  C   C16       1.0  0.1944145881739772  0.38642658907257044  0.9964507147181154  1.0000
  C   C17       1.0  0.12735364817006462  0.3932176571996564  0.010802605601597294  1.0000
  C   C18       1.0  0.10472211147835958  0.4573620966395994  0.020939405509004402  1.0000
  C   C19       1.0  0.6088849285489246  0.34591711629268224  0.9137928628205217  1.0000
  C   C20       1.0  0.5405205314774406  0.3545712391326532  0.919912432788486  1.0000
  C   C21       1.0  0.5184392218274353  0.4190311473604567  0.9313351889597004  1.0000
  C   C22       1.0  0.5646931854900358  0.47528481645748144  0.9332575268104578  1.0000
  C   C23       1.0  0.6327413878734588  0.46697153002895675  0.9247652172204968  1.0000
  C   C24       1.0  0.6546902883768767  0.40241964051028845  0.9161577131087599  1.0000
  C   C25       1.0  0.4521319199632785  0.9374818720011291  0.23438415646256774  1.0000
  C   C26       1.0  0.4454916482659499  0.9068801995704379  0.29447655431096825  1.0000
  C   C27       1.0  0.3829119272897116  0.9005049564700801  0.3224340647013194  1.0000
  C   C28       1.0  0.32501942842550596  0.9167490292567636  0.2864334473361724  1.0000
  C   C29       1.0  0.3307195037671704  0.9449430622274595  0.22516793858406467  1.0000
  C   C30       1.0  0.3943302599359058  0.9594310384608491  0.20227233520721916  1.0000
  C   C31       1.0  0.2925514242626548  0.8476235229046127  0.6979052744030626  1.0000
  C   C32       1.0  0.2990170943612114  0.846208222750221  0.6286815904459075  1.0000
  C   C33       1.0  0.3628268689794964  0.8499841353494236  0.603188735978506  1.0000
  C   C34       1.0  0.4203296499523077  0.8523555296689478  0.6469600105906326  1.0000
  C   C35       1.0  0.41392809911552314  0.8521659824309823  0.7160513632967069  1.0000
  C   C36       1.0  0.3502719706403638  0.8502521647515735  0.74130304535948  1.0000
  C   C37       1.0  0.9243741893934966  0.053600354675182905  0.7961192451032134  1.0000
  C   C38       1.0  0.665358223311749  0.8917394901123432  0.8808100817648781  1.0000
  C   C39       1.0  0.8419094958510838  0.8458462795919605  0.7559447221494084  1.0000
  C   C40       1.0  0.7466336305182892  0.1000343092699012  0.930237624055394  1.0000
  C   C41       1.0  0.8323150433679415  0.8039844806574905  0.1416522836994858  1.0000
  C   C42       1.0  0.08757231647573599  0.973733932677682  0.061416742825308304  1.0000
  C   C43       1.0  0.7979719258514563  0.7159904952626874  0.9317075278392934  1.0000
  C   C44       1.0  0.6984769663308299  0.9645213468676348  0.09179469640172042  1.0000
  C   C45       1.0  0.9613217987912889  0.14470834817878142  0.013749807510876583  1.0000
  C   C46       1.0  0.05143182205121383  0.89053934191729  0.8421925756361406  1.0000
  C   C47       1.0  0.9977291422089464  0.7550752261531886  0.01068869778702463  1.0000
  C   C48       1.0  0.9174693455614925  0.027916930554376104  0.17959850332998434  1.0000
  C   C49       1.0  0.14543153821622917  0.8176042210038478  0.8075256407687378  1.0000
  C   C50       1.0  0.11025040018520123  0.8755431865299813  0.8002920634750766  1.0000
  C   C51       1.0  0.131955698498416  0.9202326017323301  0.7535484678642562  1.0000
  C   C52       1.0  0.19053910554811887  0.9106931192676339  0.7196840212173046  1.0000
  C   C53       1.0  0.22688381004289226  0.8538399074346472  0.7281128496175455  1.0000
  C   C54       1.0  0.20178578091983465  0.8062977573278118  0.7705898812715334  1.0000
  C   C55       1.0  0.5049588897857545  0.8062026028303962  0.788433886766434  1.0000
  C   C56       1.0  0.4746522285696031  0.8610691637888336  0.7633220239149098  1.0000
  C   C57       1.0  0.5020965276487955  0.9263557977098531  0.7850898401524378  1.0000
  C   C58       1.0  0.5621714809257199  0.9364846844228512  0.8255011525171768  1.0000
  C   C59       1.0  0.5949020977844909  0.8811355468364254  0.8475059443290719  1.0000
  C   C60       1.0  0.5633619953890943  0.8159125895728536  0.8320219379221073  1.0000
  C   C61       1.0  0.2412998249488395  0.017701884998452  0.18287076720929465  1.0000
  C   C62       1.0  0.2706663133761182  0.9559387451212018  0.18096861953097942  1.0000
  C   C63       1.0  0.24422356023697495  0.9039360007332893  0.13293366542760052  1.0000
  C   C64       1.0  0.1899271475499944  0.9139819013995879  0.08850097848518602  1.0000
  C   C65       1.0  0.1575852471071997  0.9737489999771753  0.0946958345491993  1.0000
  C   C66       1.0  0.18462702313089346  0.0264967096336335  0.1404613310970433  1.0000
  C   C67       1.0  0.6389267236722419  0.9692193024934426  0.200954605320959  1.0000
  C   C68       1.0  0.6358341664681362  0.9658510730640235  0.13092684603124383  1.0000
  C   C69       1.0  0.5728270569873004  0.9501598707362506  0.09604685751212123  1.0000
  C   C70       1.0  0.5163165718946203  0.932331217287185  0.1305892080892619  1.0000
  C   C71       1.0  0.5165836716224561  0.9452643118968284  0.20125329198050682  1.0000
  C   C72       1.0  0.5794417183975895  0.9662416087646337  0.23550000562615037  1.0000
  C   C73       1.0  0.3813296842871949  0.9260346299487239  0.5114346462108728  1.0000
  C   C74       1.0  0.3693079517804562  0.8602132374578204  0.5308238162879846  1.0000
  C   C75       1.0  0.36256357739927836  0.8066583472303108  0.4805377422583349  1.0000
  C   C76       1.0  0.3670593947224319  0.818517816906585  0.4126197833603484  1.0000
  C   C77       1.0  0.3788011032332789  0.8841734632398683  0.393403621708714  1.0000
  C   C78       1.0  0.386092495774271  0.9378025407604227  0.4437542804305323  1.0000
  C   C79       1.0  0.6605371744344309  0.17890743404921491  0.9700261637742004  1.0000
  C   C80       1.0  0.7035871113486891  0.15827381339744306  0.9200484001468967  1.0000
  C   C81       1.0  0.7091455938002298  0.19653498435356911  0.864041026557466  1.0000
  C   C82       1.0  0.6742722755030855  0.2548383071807693  0.8595613113310209  1.0000
  C   C83       1.0  0.6360250428988863  0.27861949134899794  0.9120919880690652  1.0000
  C   C84       1.0  0.6291381204784797  0.23917223568509632  0.9669448461252443  1.0000
  C   C85       1.0  0.7268671912473509  0.5473997143276961  0.9802931569166803  1.0000
  C   C86       1.0  0.6820821619797429  0.5262812078060718  0.9243471226575867  1.0000
  C   C87       1.0  0.6861618391306975  0.5612382683964513  0.8661909366909485  1.0000
  C   C88       1.0  0.7297522890676191  0.619436441033166  0.8658237599611811  1.0000
  C   C89       1.0  0.7681608860358223  0.6441113728746545  0.9244007008456593  1.0000
  C   C90       1.0  0.770423684875844  0.6055085975871747  0.9798077051378943  1.0000
  C   C91       1.0  0.029776252515439697  0.2443895923966295  0.07744256081886651  1.0000
  C   C92       1.0  0.9923585198189854  0.216248722006867  0.019567164421815213  1.0000
  C   C93       1.0  0.9903012829708755  0.25224326757155785  0.962324136350091  1.0000
  C   C94       1.0  0.034223146862046895  0.3095433269215703  0.9589511980848969  1.0000
  C   C95       1.0  0.07889611978135488  0.33345028017071604  0.014299091592086203  1.0000
  C   C96       1.0  0.0738080202835079  0.3019682661897249  0.07444421223829781  1.0000
  C   C97       1.0  0.07641690931259862  0.6810724880204974  0.07418839937728451  1.0000
  C   C98       1.0  0.0341374161164651  0.6916095234920264  0.01698933617558401  1.0000
  C   C99       1.0  0.03170500177382251  0.6425504241607315  0.9609863582096454  1.0000
  C   C100      1.0  0.07705115458470152  0.5922268006058858  0.9593862031025182  1.0000
  C   C101      1.0  0.1160452122825433  0.579731781567027  0.017147692020870398  1.0000
  C   C102      1.0  0.114861920487364  0.6245267012590574  0.074342356087854  1.0000
  C   C103      1.0  0.4290464954914767  0.4361572427472639  0.013074600512247517  1.0000
  C   C104      1.0  0.4468166603696416  0.4264866135273452  0.9461660014556517  1.0000
  C   C105      1.0  0.3950895861521175  0.4224151542254193  0.8948889519895149  1.0000
  C   C106      1.0  0.3276431969804889  0.4274580466786731  0.9098955046110008  1.0000
  C   C107      1.0  0.30993702915578325  0.43685101283937655  0.9767841877169945  1.0000
  C   C108      1.0  0.3616262084207165  0.44098871256309025  0.028113261291288404  1.0000
  C   C109      1.0  0.7699222227242257  0.7193289551565486  0.21228107175285524  1.0000
  C   C110      1.0  0.8229469946750994  0.7691445806098971  0.2056217725074276  1.0000
  C   C111      1.0  0.8716334231926056  0.7830238292933702  0.2606188950467257  1.0000
  C   C112      1.0  0.872123916984819  0.7426368863554201  0.314714349932764  1.0000
  C   C113      1.0  0.8197076292672988  0.6930573553314262  0.32151307274301644  1.0000
  C   C114      1.0  0.7685565183636099  0.682730546590861  0.2697943628215569  1.0000
  C   C115      1.0  0.7636245269531158  0.7400621468107006  0.5999327243294205  1.0000
  C   C116      1.0  0.8216143492710017  0.7224587757143441  0.5683431534295951  1.0000
  C   C117      1.0  0.8844753551720288  0.7531536859185125  0.5945710059802922  1.0000
  C   C118      1.0  0.8889075394793123  0.7999438660359887  0.6504511680125447  1.0000
  C   C119      1.0  0.8315808584509553  0.8121141832847131  0.6855677443041729  1.0000
  C   C120      1.0  0.7684005681641891  0.7842574740689942  0.6585209140811373  1.0000
  C   C121      1.0  0.9957378280182212  0.10917679708408201  0.34987100703082774  1.0000
  C   C122      1.0  0.9448143593146409  0.1485964675121139  0.3726118189361359  1.0000
  C   C123      1.0  0.8840038005761596  0.14523782726353576  0.33262797575967085  1.0000
  C   C124      1.0  0.8775209110373082  0.11196788027185528  0.2679219501593977  1.0000
  C   C125      1.0  0.927142618651672  0.0684907356004771  0.24695844648428536  1.0000
  C   C126      1.0  0.9853037683496595  0.0659895315413337  0.2906028739765106  1.0000
  C   C127      1.0  0.8910960753547954  0.12049061419148899  0.623953248430567  1.0000
  C   C128      1.0  0.9444578328072167  0.16985144348038264  0.6202810686536468  1.0000
  C   C129      1.0  0.9932389642633337  0.1793704350585799  0.6742585070302028  1.0000
  C   C130      1.0  0.9888342554220698  0.14192566087926653  0.7310335812898359  1.0000
  C   C131      1.0  0.9359088257225777  0.09091227928730922  0.7338546783412881  1.0000
  C   C132      1.0  0.8892911012712258  0.07849259806047122  0.676829902718957  1.0000
  C   C133      1.0  0.9343216751202023  0.4859689706861375  0.45763771939232367  1.0000
  C   C134      1.0  0.8661624153070447  0.4989578312188385  0.4613578691753162  1.0000
  C   C135      1.0  0.8206610405415872  0.446609398555623  0.47773416428963605  1.0000
  C   C136      1.0  0.8424872266605093  0.3833299082649405  0.4904087848173617  1.0000
  C   C137      1.0  0.9105846849250625  0.3701360941262166  0.4861067562260504  1.0000
  C   C138      1.0  0.9560916064436495  0.4225403634212554  0.46983986661884825  1.0000
  Br  Br1       1.0  0.24546964465901766  0.7254871633232015  0.7763931128816496  1.0000
  Br  Br2       1.0  0.11882042695153669  0.7543289201567519  0.8684884765844388  1.0000
  Br  Br3       1.0  0.22372174305709788  0.9777274203377148  0.6652982140435741  1.0000
  Br  Br4       1.0  0.08073073026263698  0.9927870294064364  0.7335622283650169  1.0000
  Br  Br5       1.0  0.5988924018916606  0.7404158454776067  0.8682892162998499  1.0000
  Br  Br6       1.0  0.46489766957954964  0.7186715242229129  0.7617039015663069  1.0000
  Br  Br7       1.0  0.5962478920751834  0.025657031760012196  0.8527198355085162  1.0000
  Br  Br8       1.0  0.45583607288114075  0.0005519398108688996  0.7590154123110437  1.0000
  Br  Br9       1.0  0.1409600224469685  0.10724912447602723  0.14556835397308282  1.0000
  Br  Br10      1.0  0.2781052705082274  0.0885183557971772  0.2455189757023177  1.0000
  Br  Br11      1.0  0.1599483067276282  0.8486521596135579  0.01672261375877332  1.0000
  Br  Br12      1.0  0.2802930264740056  0.8187977012521586  0.13110377659963043  1.0000
  Br  Br13      1.0  0.5858611748782251  0.9943761559344253  0.3285914009341796  1.0000
  Br  Br14      1.0  0.7244478703839334  0.9696369070932604  0.24807479458468862  1.0000
  Br  Br15      1.0  0.4425736014148853  0.883143594471683  0.08009879473871712  1.0000
  Br  Br16      1.0  0.5653887358295223  0.95227181149982  0.002066989052799798  1.0000
  Br  Br17      1.0  0.4018130717164324  0.0267480569087581  0.41837941994222666  1.0000
  Br  Br18      1.0  0.39073122584900943  0.9990864726428655  0.5781833094676545  1.0000
  Br  Br19      1.0  0.3572466159270107  0.7466770853018191  0.344481615543856  1.0000
  Br  Br20      1.0  0.34763328644360303  0.7180820157220112  0.5068179816691157  1.0000
  Br  Br21      1.0  0.5810195712619546  0.270839326949293  0.04056875038296681  1.0000
  Br  Br22      1.0  0.6428081201024867  0.12537010327707074  0.04142471293025811  1.0000
  Br  Br23      1.0  0.6778408795794205  0.30332487058695534  0.7817981660859418  1.0000
  Br  Br24      1.0  0.7668397212099193  0.17261536275756842  0.7954106226140142  1.0000
  Br  Br25      1.0  0.8355572174160099  0.6330720517560097  0.051160032689082896  1.0000
  Br  Br26      1.0  0.7259549973858697  0.49771090344486885  0.057033831742998614  1.0000
  Br  Br27      1.0  0.7373069466022883  0.6658798372281467  0.7874269748114388  1.0000
  Br  Br28      1.0  0.6317587666355848  0.5286730028380263  0.7881318947678154  1.0000
  Br  Br29      1.0  0.12784581516211796  0.33821663308075495  0.1514263479016478  1.0000
  Br  Br30      1.0  0.017047197728253104  0.205390529833629  0.15945639451105362  1.0000
  Br  Br31      1.0  0.03486516881397251  0.3550093533251442  0.8796189226577767  1.0000
  Br  Br32      1.0  0.9217264005728579  0.22424206508543426  0.8935961953412672  1.0000
  Br  Br33      1.0  0.16692030210334252  0.6052873730564984  0.1518852383258888  1.0000
  Br  Br34      1.0  0.0821491993263592  0.7393941862034978  0.15373654997824102  1.0000
  Br  Br35      1.0  0.08764422607983138  0.5387888922274301  0.8787576432963891  1.0000
  Br  Br36      1.0  0.9639346917714917  0.6336246497719316  0.8898678493532444  1.0000
  Br  Br37      1.0  0.33786545316404215  0.4523770906380521  0.11830244451137871  1.0000
  Br  Br38      1.0  0.49800912464395714  0.4422570721716711  0.08302578997489722  1.0000
  Br  Br39      1.0  0.2585000734312999  0.4224492891131108  0.8402743601508791  1.0000
  Br  Br40      1.0  0.4188301423640439  0.41124377118247685  0.8046678741296562  1.0000
  Br  Br41      1.0  0.6963253949260135  0.6182875557760499  0.28105809983149754  1.0000
  Br  Br42      1.0  0.6973329216565743  0.7009235914022584  0.14670236089470737  1.0000
  Br  Br43      1.0  0.9450646668484665  0.7536747429856661  0.38084251371862626  1.0000
  Br  Br44      1.0  0.9330711964566802  0.860663872682224  0.26978152955468465  1.0000
  Br  Br45      1.0  0.6898476623388632  0.8057444497499449  0.7021160461042301  1.0000
  Br  Br46      1.0  0.6788981322109392  0.7008738915302715  0.5631720513603327  1.0000
  Br  Br47      1.0  0.9702987320911658  0.8515845449037869  0.6773268101454378  1.0000
  Br  Br48      1.0  0.9644536332319543  0.7284808490936215  0.5560563076416756  1.0000
  Br  Br49      1.0  0.0528155878457994  0.006880331341690703  0.2706949196716053  1.0000
  Br  Br50      1.0  0.0793945485477678  0.11632234855961342  0.40092716288904745  1.0000
  Br  Br51      1.0  0.8010922303062314  0.13100816982733224  0.21375850809346283  1.0000
  Br  Br52      1.0  0.8087483676031154  0.18484244519171264  0.36877204104506234  1.0000
  Br  Br53      1.0  0.8275119949901962  0.0016784413682202994  0.6638954258269437  1.0000
  Br  Br54      1.0  0.8197601392080925  0.1125343922946342  0.5558507870119486  1.0000
  Br  Br55      1.0  0.0568771469118659  0.16219353994583235  0.8011043342096118  1.0000
  Br  Br56      1.0  0.06647423398567298  0.2439738292131466  0.667367025766282  1.0000
  Br  Br57      1.0  0.04811725423984109  0.4057992884084172  0.46577609633410333  1.0000
  Br  Br58      1.0  0.996695865334402  0.556279943710429  0.43697127483737586  1.0000
  Br  Br59      1.0  0.7798396827050452  0.3139387450973814  0.5128322473221729  1.0000
  Br  Br60      1.0  0.7286020034077223  0.46342128391563625  0.48155813867217034  1.0000
  O   O1        1.0  0.9727090156120466  0.047707346408572  0.8388081114854062  1.0000
  O   O2        1.0  0.67948933188611  0.8640141428799312  0.9339632877331214  1.0000
  O   O3        1.0  0.8151593881491833  0.8998865192633756  0.77123122369985  1.0000
  O   O4        1.0  0.7528509493141016  0.057140006599581704  0.8815770208433236  1.0000
  O   O5        1.0  0.7753342885940737  0.1001348884978057  0.9888465144809547  1.0000
  O   O6        1.0  0.8771485237968049  0.8129636933573537  0.795134591457142  1.0000
  O   O7        1.0  0.7061143815051948  0.9274993007233688  0.8489045111162669  1.0000
  O   O8        1.0  0.8635666901030843  0.0315757124052638  0.8020754449749818  1.0000
  O   O9        1.0  0.792315475676915  0.9577250212006307  0.9681404305687737  1.0000
  O   O10       1.0  0.9077625046630187  0.9318074736078047  0.8863006750655132  1.0000
  O   O11       1.0  0.8033408478891174  0.8542246285921211  0.8925207253958336  1.0000
  O   O12       1.0  0.8785851797578271  0.0446405968128687  0.9325749393203681  1.0000
  O   O13       1.0  0.783349299609192  0.8079646114387701  0.09937614824902141  1.0000
  O   O14       1.0  0.0761513344011178  0.0031440644809422004  0.008898423729334602  1.0000
  O   O15       1.0  0.8501056085203231  0.7326753127659347  0.902560241284917  1.0000
  O   O16       1.0  0.738500209644414  0.0159823018674459  0.08948419133599832  1.0000
  O   O17       1.0  0.9064030991686636  0.1307129430619227  0.03925650423499152  1.0000
  O   O18       1.0  0.005266855146842895  0.8438123204757347  0.8440769614577307  1.0000
  O   O19       1.0  0.99216462056647  0.7965118975617714  0.06073181492591571  1.0000
  O   O20       1.0  0.9421933148736982  0.9718405878738071  0.16941466238196065  1.0000
  O   O21       1.0  0.9767213802169152  0.7641316484058439  0.9508479229864408  1.0000
  O   O22       1.0  0.8819272322923979  0.05506114622493641  0.13579027653663195  1.0000
  O   O23       1.0  0.7631768292334015  0.7545254627879033  0.9672059884377194  1.0000
  O   O24       1.0  0.053511287410785306  0.9487651252028756  0.8732027723796849  1.0000
  O   O25       1.0  0.9964866910589905  0.10455741870666908  0.9804492794791316  1.0000
  O   O26       1.0  0.7042616747288051  0.9057909514472159  0.06393191407511979  1.0000
  O   O27       1.0  0.8924664503838784  0.8274098990030369  0.13409641397118582  1.0000
  O   O28       1.0  0.04498672844862741  0.9391546573248065  0.09269713773753101  1.0000
  O   O29       1.0  0.9311547952106737  0.9868311941181602  0.025272657900998818  1.0000
  O   O30       1.0  0.8768959847266302  0.8477236085446761  0.9966411601588948  1.0000
  O   O31       1.0  0.9916925911985643  0.8946876129018619  0.9720620216854955  1.0000
  O   O32       1.0  0.836860881991015  0.931356038599013  0.08253639160619743  1.0000
