data_image0
_chemical_formula_structural       Zn2H20C32N6Cl2O4
_chemical_formula_sum              "Zn2 H20 C32 N6 Cl2 O4"
_cell_length_a       6.187054742564694
_cell_length_b       8.523817862151443
_cell_length_c       13.097088164051938
_cell_angle_alpha    90.18608432724339
_cell_angle_beta     90.14811247724253
_cell_angle_gamma    102.54598359018014

_space_group_name_H-M_alt    "P 1"
_space_group_IT_number       1

loop_
  _space_group_symop_operation_xyz
  'x, y, z'

loop_
  _atom_site_type_symbol
  _atom_site_label
  _atom_site_symmetry_multiplicity
  _atom_site_fract_x
  _atom_site_fract_y
  _atom_site_fract_z
  _atom_site_occupancy
  Zn  Zn1       1.0  0.7990821628328463  0.7467622275755873  0.24747353493828683  1.0000
  Zn  Zn2       1.0  0.20208831540237068  0.25260019153461855  0.7481364423588489  1.0000
  H   H1        1.0  0.21920139207130518  0.6304844652299268  0.3185091320708082  1.0000
  H   H2        1.0  0.7820371147454922  0.36902539117716077  0.8190482775497685  1.0000
  H   H3        1.0  0.7733054744698717  0.37233513217087494  0.678497180551517  1.0000
  H   H4        1.0  0.22639021514071092  0.627841483182742  0.17757993089656313  1.0000
  H   H5        1.0  0.3954344410694333  0.5923911085065684  0.4816178475095327  1.0000
  H   H6        1.0  0.6047444912399058  0.4057745747246458  0.9819735639193112  1.0000
  H   H7        1.0  0.5979417775511634  0.4087048688666216  0.514642627576464  1.0000
  H   H8        1.0  0.4019008169865614  0.5929888601776272  0.013590609952913701  1.0000
  H   H9        1.0  0.2392520003197376  0.6765688716680958  0.6452287977607939  1.0000
  H   H10       1.0  0.7611914511517097  0.3209459638819824  0.1453776594240352  1.0000
  H   H11       1.0  0.7573216536742537  0.3246408371815691  0.35194212260366  1.0000
  H   H12       1.0  0.24153694341351434  0.6780065178785862  0.8514452000478981  1.0000
  H   H13       1.0  0.7541452225921502  0.8409681665777383  0.4596600105446456  1.0000
  H   H14       1.0  0.2468764035407105  0.1576964521114733  0.9601034385868132  1.0000
  H   H15       1.0  0.24034192306813654  0.16086757635525833  0.5392887266419919  1.0000
  H   H16       1.0  0.7580006969199572  0.8395143937344118  0.0392528533887742  1.0000
  H   H17       1.0  0.6452878781715513  0.9377046987654015  0.5865536338662451  1.0000
  H   H18       1.0  0.3559275399860055  0.060907895644803006  0.088277968541  1.0000
  H   H19       1.0  0.34985834908216157  0.06620063996999191  0.4144095983857099  1.0000
  H   H20       1.0  0.6485700895591293  0.9356463824275  0.9127632854545739  1.0000
  C   C1        1.0  0.15403657636476709  0.6702845471411154  0.3886771550969144  1.0000
  C   C2        1.0  0.8468347072061703  0.32884164363549934  0.8891608545035012  1.0000
  C   C3        1.0  0.8391150734591476  0.33219061172324876  0.6086131656890288  1.0000
  C   C4        1.0  0.16050821422889783  0.6683683639788571  0.107841271271873  1.0000
  C   C5        1.0  0.2528559078450527  0.6480384957894076  0.4815126909200913  1.0000
  C   C6        1.0  0.7475543688518513  0.35038731282669744  0.9818309786708853  1.0000
  C   C7        1.0  0.7409515787731636  0.3534530100471615  0.5155165556832841  1.0000
  C   C8        1.0  0.2587919401736727  0.6481017556184343  0.014770376022390501  1.0000
  C   C9        1.0  0.16750007653176627  0.6957403943644993  0.5714744496384441  1.0000
  C   C10       1.0  0.8330502506954928  0.3023728953937735  0.0716452964778043  1.0000
  C   C11       1.0  0.8280859087321774  0.30583642109220216  0.4259796058706371  1.0000
  C   C12       1.0  0.1710566749171889  0.6961499295128847  0.9255389905400764  1.0000
  C   C13       1.0  0.982896024168589  0.7666573551771593  0.5662970373676544  1.0000
  C   C14       1.0  0.018110598491851683  0.2318450865865174  0.0665745017945412  1.0000
  C   C15       1.0  0.01295290897652991  0.2354292212038161  0.4317937317203686  1.0000
  C   C16       1.0  0.9856375338040877  0.7659400319553387  0.9314654762913294  1.0000
  C   C17       1.0  0.8955000546845399  0.7863422408730046  0.4699915797911842  1.0000
  C   C18       1.0  0.10551578785982228  0.21240803422501398  0.9703521663753492  1.0000
  C   C19       1.0  0.0990741004602782  0.2158679573182526  0.5284849834130796  1.0000
  C   C20       1.0  0.8995902171359093  0.7848099091900452  0.0281842244468962  1.0000
  C   C21       1.0  0.8820219080319732  0.8162863998878581  0.6603687216820902  1.0000
  C   C22       1.0  0.1185143858791449  0.18277131670424754  0.1610112689351126  1.0000
  C   C23       1.0  0.1146867949678878  0.18557825695843636  0.3382399440973032  1.0000
  C   C24       1.0  0.8841289068321386  0.8153202960842522  0.83765988574347  1.0000
  C   C25       1.0  0.7112040170542356  0.9014470906514308  0.6577270192639588  1.0000
  C   C26       1.0  0.2895104383574322  0.09763358220732245  0.15921468785452222  1.0000
  C   C27       1.0  0.284948083743302  0.10130114092073232  0.3427613511055441  1.0000
  C   C28       1.0  0.713784485378568  0.8997141512776711  0.8413648403634113  1.0000
  C   C29       1.0  0.6268002232245989  0.9436179301244326  0.7500701093454794  1.0000
  C   C30       1.0  0.37310420585355086  0.05651591569828442  0.2520162881103758  1.0000
  C   C31       1.0  0.4531757487754006  0.0420794886751779  0.7550746265088578  1.0000
  C   C32       1.0  0.5472518604385996  0.958587101173592  0.2595230794864491  1.0000
  N   N1        1.0  0.9781572247673865  0.7394873729710841  0.38248250848295123  1.0000
  N   N2        1.0  0.02272302093963669  0.259714258363232  0.882979517712414  1.0000
  N   N3        1.0  0.01537270803066092  0.263613013374922  0.6154424221588002  1.0000
  N   N4        1.0  0.9839413002649168  0.7365148261274755  0.114841978200559  1.0000
  N   N5        1.0  0.9654416508606048  0.7753367161415031  0.7486548890451489  1.0000
  N   N6        1.0  0.03418795107627658  0.22468333250250797  0.2488439448251256  1.0000
  Cl  Cl1       1.0  0.5460274487086282  0.5108647533504751  0.2498585821997281  1.0000
  Cl  Cl2       1.0  0.45416339999064803  0.48893962089204734  0.7513923106696581  1.0000
  O   O1        1.0  0.39123070852732406  0.07995302310958154  0.8419055949484147  1.0000
  O   O2        1.0  0.6064827086137541  0.9236108924316969  0.3471307782461537  1.0000
  O   O3        1.0  0.6246426641597438  0.9079725377304303  0.1778389581909963  1.0000
  O   O4        1.0  0.37845818066509207  0.09082221160978322  0.6725120117184743  1.0000
