data_image0
_chemical_formula_structural       Zn2H36C44N8O8
_chemical_formula_sum              "Zn2 H36 C44 N8 O8"
_cell_length_a       8.579025890388396
_cell_length_b       11.159039824468184
_cell_length_c       11.159047279367416
_cell_angle_alpha    107.10336034322171
_cell_angle_beta     93.57333660277547
_cell_angle_gamma    93.57365665171673

_space_group_name_H-M_alt    "P 1"
_space_group_IT_number       1

loop_
  _space_group_symop_operation_xyz
  'x, y, z'

loop_
  _atom_site_type_symbol
  _atom_site_label
  _atom_site_symmetry_multiplicity
  _atom_site_fract_x
  _atom_site_fract_y
  _atom_site_fract_z
  _atom_site_occupancy
  Zn  Zn1       1.0  0.5968576093649178  0.9142611106364459  0.3076084539779275  1.0000
  Zn  Zn2       1.0  0.09685959071698849  0.30760858735890656  0.9142616624068509  1.0000
  H   H1        1.0  0.10840394006005032  0.9404687701861861  0.9731352464697594  1.0000
  H   H2        1.0  0.6084012024220442  0.9731342469548994  0.9404675338811119  1.0000
  H   H3        1.0  0.02565899475189331  0.7815903975832441  0.9167293319612285  1.0000
  H   H4        1.0  0.5256592119001767  0.9167271815642694  0.781588993739085  1.0000
  H   H5        1.0  0.8825248519287713  0.2668707381368804  0.4607328236550785  1.0000
  H   H6        1.0  0.3825274825478359  0.4607334979216517  0.2668699837086664  1.0000
  H   H7        1.0  0.171755631139817  0.021975648495605106  0.8133005316902172  1.0000
  H   H8        1.0  0.6717514133202299  0.8132986341410202  0.021974228256660067  1.0000
  H   H9        1.0  0.3015166384243173  0.008799789201596301  0.6162528369517233  1.0000
  H   H10       1.0  0.8015131456570118  0.6162522303673654  0.008799670688588938  1.0000
  H   H11       1.0  0.17204952428986794  0.6116473551977395  0.9868301467562333  1.0000
  H   H12       1.0  0.6720550965365746  0.9868274682101446  0.6116454747221598  1.0000
  H   H13       1.0  0.043421841917940206  0.46704053219711034  0.4924989494124646  1.0000
  H   H14       1.0  0.5434213293750432  0.4924993940275685  0.4670398506610597  1.0000
  H   H15       1.0  0.7465680924477809  0.6593385904585676  0.337652131846184  1.0000
  H   H16       1.0  0.24657263215502923  0.33765622058702144  0.6593406891130726  1.0000
  H   H17       1.0  0.1851763956964234  0.8282494950694783  0.2885064423576297  1.0000
  H   H18       1.0  0.6851790661301466  0.2885064406194077  0.828248319741867  1.0000
  H   H19       1.0  0.37909813999140596  0.6228017635430518  0.5750115186170958  1.0000
  H   H20       1.0  0.879100269053595  0.5750115995471533  0.6228023132745548  1.0000
  H   H21       1.0  0.866615758815982  0.47817365446378113  0.12558664033031172  1.0000
  H   H22       1.0  0.3666161249585684  0.1255846871723207  0.478170657539252  1.0000
  H   H23       1.0  0.37500761089048495  0.988656339452028  0.10176751695811252  1.0000
  H   H24       1.0  0.875003817002849  0.10176784293025783  0.9886556773800379  1.0000
  H   H25       1.0  0.42271370710925993  0.6379997897167942  0.16679952766620693  1.0000
  H   H26       1.0  0.922722016972095  0.1667998837754538  0.6379985086465751  1.0000
  H   H27       1.0  0.7047204281967794  0.27681404427572437  0.09585982665294784  1.0000
  H   H28       1.0  0.2047222188398905  0.0958606625427691  0.2768141011074832  1.0000
  H   H29       1.0  0.2509001044344217  0.6349255056231515  0.7717127305433851  1.0000
  H   H30       1.0  0.7509042775980107  0.7717121954809234  0.6349260520537714  1.0000
  H   H31       1.0  0.9503616834591427  0.9867200192858904  0.27384795225168557  1.0000
  H   H32       1.0  0.4503638524135454  0.27384963698533243  0.9867187099531947  1.0000
  H   H33       1.0  0.13727922684010005  0.6322080549860728  0.4213792892165389  1.0000
  H   H34       1.0  0.6372806530917857  0.42137931414055874  0.6322056973459597  1.0000
  H   H35       1.0  0.15573070412800402  0.5849905517390257  0.2570847882781494  1.0000
  H   H36       1.0  0.6557322311263576  0.2570844188901233  0.5849884013036615  1.0000
  C   C1        1.0  0.20378333282624086  0.8301949037989191  0.8059870623367902  1.0000
  C   C2        1.0  0.7037826775057  0.8059849850535274  0.8301937943907306  1.0000
  C   C3        1.0  0.13406110524127973  0.8428939229100154  0.9296401312160185  1.0000
  C   C4        1.0  0.634061481510102  0.9296392374039188  0.842892275400189  1.0000
  C   C5        1.0  0.8777826029407692  0.31377272843548093  0.38791219275870503  1.0000
  C   C6        1.0  0.3777834720419905  0.3879127496565575  0.31377299601766856  1.0000
  C   C7        1.0  0.34967348233679024  0.8151321753720709  0.5839688686287731  1.0000
  C   C8        1.0  0.8496734346482597  0.5839682517996677  0.8151323927487155  1.0000
  C   C9        1.0  0.21553655830601315  0.9340873373247476  0.7599665261831278  1.0000
  C   C10       1.0  0.7155338931130402  0.759964687835897  0.9340865153637878  1.0000
  C   C11       1.0  0.2877487724451697  0.9267737995231331  0.6498413264284795  1.0000
  C   C12       1.0  0.7877468834437877  0.6498405907874415  0.9267737215609699  1.0000
  C   C13       1.0  0.2541027285167985  0.6918949622267477  0.03529638764368315  1.0000
  C   C14       1.0  0.7541091916134876  0.03529697521175021  0.6918944875123287  1.0000
  C   C15       1.0  0.9673963635376025  0.42725151210381546  0.4058160886716067  1.0000
  C   C16       1.0  0.4673979553894443  0.4058163282873296  0.42725307549581265  1.0000
  C   C17       1.0  0.8331558161815166  0.7265014117538585  0.3213411979639745  1.0000
  C   C18       1.0  0.3331596182020036  0.3213444648357395  0.7265029257668445  1.0000
  C   C19       1.0  0.7835011055627844  0.25915650283953084  0.2757866725434824  1.0000
  C   C20       1.0  0.2835015150316594  0.2757871541840943  0.25915710889995586  1.0000
  C   C21       1.0  0.9636024848120074  0.48773397213694386  0.31248415586560446  1.0000
  C   C22       1.0  0.4636035517164104  0.3124847019779367  0.4877326149957  1.0000
  C   C23       1.0  0.05998531202118331  0.8177428560351387  0.29531428479216265  1.0000
  C   C24       1.0  0.5599872195149443  0.29531520427465824  0.8177426036072717  1.0000
  C   C25       1.0  0.3322478973040218  0.7095650237804989  0.6275018942967989  1.0000
  C   C26       1.0  0.8322486893280258  0.6275009602391324  0.7095662432209835  1.0000
  C   C27       1.0  0.8670717747618397  0.43388255863227704  0.20070465242763197  1.0000
  C   C28       1.0  0.36707140951715894  0.20070401486100317  0.4338807435545817  1.0000
  C   C29       1.0  0.3552262034477067  0.890287616950502  0.09644664686031489  1.0000
  C   C30       1.0  0.8552252410599052  0.09644574225890783  0.890287803294676  1.0000
  C   C31       1.0  0.3770379203900802  0.7059412727690316  0.12462965803961626  1.0000
  C   C32       1.0  0.8770400475352602  0.12462497877838534  0.7059430121665073  1.0000
  C   C33       1.0  0.4424097400289142  0.8095003942384409  0.47276501462069126  1.0000
  C   C34       1.0  0.9424092314820882  0.47276567590817825  0.8095063745821136  1.0000
  C   C35       1.0  0.6943627202193882  0.133129472157627  0.25027348406280947  1.0000
  C   C36       1.0  0.19436271193099236  0.25027573477866133  0.13313087289582634  1.0000
  C   C37       1.0  0.778072550830558  0.3208597375913342  0.1829196768892984  1.0000
  C   C38       1.0  0.27807306928233544  0.18291902509812266  0.3208588921019313  1.0000
  C   C39       1.0  0.2603078187152263  0.717031244059058  0.7375371089582927  1.0000
  C   C40       1.0  0.7603089833526724  0.7375367538762915  0.7170310292112347  1.0000
  C   C41       1.0  0.9434596158153639  0.8948770786655444  0.2886804763108231  1.0000
  C   C42       1.0  0.44346232254428486  0.28868245621630717  0.8948771303081885  1.0000
  C   C43       1.0  0.07080406707125063  0.6040987850484643  0.3288160099999474  1.0000
  C   C44       1.0  0.5708049853811161  0.32881542099002564  0.6040966120950202  1.0000
  N   N1        1.0  0.988344963683808  0.7115982201627135  0.3152573495225541  1.0000
  N   N2        1.0  0.48834725691929753  0.3152597538560685  0.7115980087019693  1.0000
  N   N3        1.0  0.24193578511275143  0.8094311591717513  0.019384986089711724  1.0000
  N   N4        1.0  0.741936028825485  0.019383036939345302  0.8094293682129532  1.0000
  N   N5        1.0  0.4387962608693172  0.8302639434053136  0.1622947859058571  1.0000
  N   N6        1.0  0.9387991537495993  0.16229479319186174  0.830264557634962  1.0000
  N   N7        1.0  0.8025909543452486  0.8367638247779752  0.30478537611553963  1.0000
  N   N8        1.0  0.3025954324170073  0.3047896518081714  0.8367650079396611  1.0000
  O   O1        1.0  0.47983096962364874  0.7064291082804888  0.40450703111395836  1.0000
  O   O2        1.0  0.9798324877655276  0.40450579681478166  0.7064296695715129  1.0000
  O   O3        1.0  0.481303371339159  0.9186171105964083  0.45775922585720974  1.0000
  O   O4        1.0  0.9813006263099311  0.45775959193020554  0.9186175808639305  1.0000
  O   O5        1.0  0.6839771025015295  0.09088010866592101  0.3463812031697344  1.0000
  O   O6        1.0  0.18397859670284333  0.34638346544738857  0.09088068184636461  1.0000
  O   O7        1.0  0.6392217395785948  0.0744634719175465  0.140316806016223  1.0000
  O   O8        1.0  0.1392184073708123  0.14031798484507624  0.074464450054343  1.0000
