data_image0
_chemical_formula_structural       H8Rh4C32N4O16F24
_chemical_formula_sum              "H8 Rh4 C32 N4 O16 F24"
_cell_length_a       8.29040890047719
_cell_length_b       12.858015331097082
_cell_length_c       12.858009302714244
_cell_angle_alpha    81.85516738302661
_cell_angle_beta     71.48908075362203
_cell_angle_gamma    71.48965788336128

_space_group_name_H-M_alt    "P 1"
_space_group_IT_number       1

loop_
  _space_group_symop_operation_xyz
  'x, y, z'

loop_
  _atom_site_type_symbol
  _atom_site_label
  _atom_site_symmetry_multiplicity
  _atom_site_fract_x
  _atom_site_fract_y
  _atom_site_fract_z
  _atom_site_occupancy
  H   H1        1.0  0.7500043303281388  0.1560759376274419  0.843931595921454  1.0000
  H   H2        1.0  0.25000071432987886  0.8439329291638982  0.15607791354705117  1.0000
  H   H3        1.0  0.7083454571727826  0.8314875322013576  0.9638086277675414  1.0000
  H   H4        1.0  0.7916529736062541  0.036187817295328294  0.16852141235445126  1.0000
  H   H5        1.0  0.29165433812197256  0.16851890210710246  0.036187524815638  1.0000
  H   H6        1.0  0.2083416891470622  0.9638079243900108  0.8314881829943843  1.0000
  H   H7        1.0  0.750000591671871  0.8599596501501235  0.14003926004890124  1.0000
  H   H8        1.0  0.25000002016378176  0.1400369282529894  0.859960440411868  1.0000
  Rh  Rh1       1.0  0.4499728020139742  0.010410639210647298  0.4180938006206034  1.0000
  Rh  Rh2       1.0  0.05002412378073734  0.5819026595177732  0.9895955872018334  1.0000
  Rh  Rh3       1.0  0.5500312260597583  0.9895949533157163  0.5819117106714486  1.0000
  Rh  Rh4       1.0  0.9499622797911799  0.4180889853042302  0.010413169145259433  1.0000
  C   C1        1.0  0.21758739751701486  0.1533385679473795  0.5902408801600387  1.0000
  C   C2        1.0  0.2824091146134294  0.4097574259946697  0.8466675120293274  1.0000
  C   C3        1.0  0.7824050585005935  0.84666456867388  0.40976502046630253  1.0000
  C   C4        1.0  0.717580719889135  0.5902350390862381  0.15334042421291363  1.0000
  C   C5        1.0  0.3244110780868896  0.8588694631364788  0.5856313463930433  1.0000
  C   C6        1.0  0.17559278723722122  0.4143664916206761  0.14113543387841787  1.0000
  C   C7        1.0  0.675596002556766  0.14113776602694367  0.4143756412146756  1.0000
  C   C8        1.0  0.824410833624455  0.5856128451889617  0.8588668444493521  1.0000
  C   C9        1.0  0.042531258510003125  0.24144958864675906  0.643437476780747  1.0000
  C   C10       1.0  0.4574599187741343  0.3565673649710988  0.7585549109707727  1.0000
  C   C11       1.0  0.9574573668403445  0.7585535579654418  0.3565645432713395  1.0000
  C   C12       1.0  0.5425272779378362  0.6434415299490366  0.2414458186173931  1.0000
  C   C13       1.0  0.21286079608742647  0.7788108557562053  0.6416051755974621  1.0000
  C   C14       1.0  0.2871484942538771  0.3583858152107241  0.2211865389325922  1.0000
  C   C15       1.0  0.787146111873028  0.22119394763998912  0.3583835223022334  1.0000
  C   C16       1.0  0.7128752835119058  0.6416074765143519  0.7788080842899987  1.0000
  C   C17       1.0  0.6829901277303566  0.9813364952365332  0.7978897541865067  1.0000
  C   C18       1.0  0.8170124277579305  0.2021143181144467  0.018664170009465388  1.0000
  C   C19       1.0  0.3169973796054748  0.0186609051044684  0.20211330164654126  1.0000
  C   C20       1.0  0.1830034374269332  0.7978904496391479  0.9813398022076072  1.0000
  C   C21       1.0  0.7500012290378353  0.09151747995646527  0.9084810599775179  1.0000
  C   C22       1.0  0.2499995056039382  0.9084815565811795  0.09152060362546166  1.0000
  C   C23       1.0  0.7224101686184387  0.9928465487788783  0.8946018515597771  1.0000
  C   C24       1.0  0.777589545370965  0.10539797229591835  0.007154058520711667  1.0000
  C   C25       1.0  0.2775855907734979  0.007154953049351298  0.1053997109084648  1.0000
  C   C26       1.0  0.2224133551878681  0.8946018801244477  0.9928493787302342  1.0000
  C   C27       1.0  0.7746775542819505  0.022627669776866803  0.0915039076821884  1.0000
  C   C28       1.0  0.7253210887045255  0.9084976670444078  0.9773722424102189  1.0000
  C   C29       1.0  0.22532052277632925  0.9773689029564704  0.9084994253731934  1.0000
  C   C30       1.0  0.27467759807611714  0.0915030148276514  0.022628055775967885  1.0000
  C   C31       1.0  0.7500007763079566  0.9245296429694531  0.07546777867713672  1.0000
  C   C32       1.0  0.2499985657639101  0.0754669341400742  0.9245329606254202  1.0000
  N   N1        1.0  0.6409381454164276  0.9758996395690785  0.7210245395542927  1.0000
  N   N2        1.0  0.8590597944847218  0.2789777563250695  0.024091828663621636  1.0000
  N   N3        1.0  0.35904919750251446  0.0240846074821093  0.2789897278126007  1.0000
  N   N4        1.0  0.1409507536000164  0.7210139007446656  0.9759034093335187  1.0000
  O   O1        1.0  0.2326171228534051  0.1318382190757532  0.4939399666216744  1.0000
  O   O2        1.0  0.26738298701782537  0.5060591689948736  0.868164204977731  1.0000
  O   O3        1.0  0.7673657467746579  0.8681690409963353  0.506058770581582  1.0000
  O   O4        1.0  0.7326284235268119  0.4939415088587466  0.13183425680119143  1.0000
  O   O5        1.0  0.6776230928370025  0.8881426403486401  0.3512918609008224  1.0000
  O   O6        1.0  0.8223685597168212  0.6487075956089184  0.11186582351067649  1.0000
  O   O7        1.0  0.322379355291055  0.11186626084672466  0.6487010673189174  1.0000
  O   O8        1.0  0.17761817145479616  0.3512996344353353  0.8881469011885272  1.0000
  O   O9        1.0  0.31731371676395553  0.8967236831972228  0.4902601573179481  1.0000
  O   O10       1.0  0.1826917393116219  0.5097408504901821  0.103284683007594  1.0000
  O   O11       1.0  0.6826727184763683  0.1032868475618116  0.5097436102002392  1.0000
  O   O12       1.0  0.8173276336910077  0.49024831896762316  0.8967207563426457  1.0000
  O   O13       1.0  0.5918367832298657  0.1216014107367585  0.35551263103008074  1.0000
  O   O14       1.0  0.908170411484633  0.6444811337683802  0.8783970858245524  1.0000
  O   O15       1.0  0.4081716567323142  0.8784082994329906  0.6444843965008502  1.0000
  O   O16       1.0  0.09182366415629423  0.3555212062639228  0.1215961500732945  1.0000
  F   F1        1.0  0.03093663652478546  0.261056178694588  0.7467728624505057  1.0000
  F   F2        1.0  0.46905313060530324  0.2532330191136509  0.7389469041455783  1.0000
  F   F3        1.0  0.9690599952694259  0.7389461531357853  0.2532237379523536  1.0000
  F   F4        1.0  0.5309307627323395  0.746777510599507  0.26105816360068695  1.0000
  F   F5        1.0  0.9020734471548835  0.20523457441888837  0.6491870094715965  1.0000
  F   F6        1.0  0.5979222262535088  0.3508156049818183  0.7947653778195374  1.0000
  F   F7        1.0  0.09791330345949958  0.7947644586784078  0.350820639202496  1.0000
  F   F8        1.0  0.4020801014435308  0.6491908365377127  0.2052263647135035  1.0000
  F   F9        1.0  0.02807353561853889  0.33746953111650413  0.5832849549065884  1.0000
  F   F10       1.0  0.4719111143427456  0.41671814066709356  0.6625357797440756  1.0000
  F   F11       1.0  0.9719114951763789  0.6625385479209028  0.4167140010336112  1.0000
  F   F12       1.0  0.5280535456042302  0.5832899531228364  0.33746191618797644  1.0000
  F   F13       1.0  0.12792602607267173  0.7593105813194257  0.5764846530283164  1.0000
  F   F14       1.0  0.37208649312313485  0.42349977857761434  0.24069435230758532  1.0000
  F   F15       1.0  0.8720775642628594  0.24069586611759058  0.423503718296395  1.0000
  F   F16       1.0  0.6279352486570106  0.5764951507753792  0.7593027927757915  1.0000
  F   F17       1.0  0.08821648080365925  0.8241989261769193  0.7349241671493729  1.0000
  F   F18       1.0  0.41179281990891065  0.2650725080398145  0.17578314899703432  1.0000
  F   F19       1.0  0.9118032563091064  0.1757894361505379  0.2650743110472575  1.0000
  F   F20       1.0  0.5882160444248185  0.7349199872339794  0.8242037624297112  1.0000
  F   F21       1.0  0.3171345680160514  0.6818793091836425  0.6710611978077026  1.0000
  F   F22       1.0  0.18288548679466748  0.32891166038226055  0.3181132504943988  1.0000
  F   F23       1.0  0.6828863073461094  0.31812550844199444  0.3289160728322713  1.0000
  F   F24       1.0  0.8171434302877004  0.6710652287515656  0.6818740624104435  1.0000
