data_image0
_chemical_formula_structural       CuH14C8N2O6
_chemical_formula_sum              "Cu1 H14 C8 N2 O6"
_cell_length_a       5.163149257140706
_cell_length_b       7.270156183962001
_cell_length_c       7.5005575000773685
_cell_angle_alpha    105.82577331407228
_cell_angle_beta     99.45905859044362
_cell_angle_gamma    100.7227660665926

_space_group_name_H-M_alt    "P 1"
_space_group_IT_number       1

loop_
  _space_group_symop_operation_xyz
  'x, y, z'

loop_
  _atom_site_type_symbol
  _atom_site_label
  _atom_site_symmetry_multiplicity
  _atom_site_fract_x
  _atom_site_fract_y
  _atom_site_fract_z
  _atom_site_occupancy
  Cu  Cu1       1.0  0.5000178379667234  0.4999970737143542  0.49999760735985893  1.0000
  H   H1        1.0  0.3942191893246161  0.12899478828163782  0.9605306459664292  1.0000
  H   H2        1.0  0.6057513807872398  0.8710041930368461  0.03945748066058024  1.0000
  H   H3        1.0  0.5815054082485959  0.378874444524179  0.05456240239121972  1.0000
  H   H4        1.0  0.4184630377299003  0.6211245355638725  0.9454108283315322  1.0000
  H   H5        1.0  0.08097232670414914  0.3448742739465446  0.9812824243215346  1.0000
  H   H6        1.0  0.9189911245497271  0.6551262469546373  0.018724007056206915  1.0000
  H   H7        1.0  0.04127853541697849  0.20519006641439566  0.1381107758180704  1.0000
  H   H8        1.0  0.9587044487370308  0.7948044263236793  0.8618975009824154  1.0000
  H   H9        1.0  0.05298205659313035  0.515989049772017  0.3203525171713508  1.0000
  H   H10       1.0  0.9470397104654468  0.484009636126615  0.6796637304507485  1.0000
  H   H11       1.0  0.2998567626988304  0.6291458626561807  0.2482266968898799  1.0000
  H   H12       1.0  0.7001452610291707  0.3708470309389966  0.7517792138257137  1.0000
  H   H13       1.0  0.47690187764249  0.1127023445359399  0.26930730205960884  1.0000
  H   H14       1.0  0.5231137420979979  0.8873022576417996  0.7306791853021153  1.0000
  C   C1        1.0  0.4426553958805003  0.2627855739427361  0.08462500004763034  1.0000
  C   C2        1.0  0.5573161765305344  0.7372163539790291  0.9153626832988522  1.0000
  C   C3        1.0  0.18181558129773384  0.3236639057070008  0.1130016681500265  1.0000
  C   C4        1.0  0.8181682549901907  0.6763276197496636  0.8869979139866118  1.0000
  C   C5        1.0  0.9073472473771602  0.8506059783426353  0.46360401247702754  1.0000
  C   C6        1.0  0.09270392785954583  0.14943830758014798  0.5364208439082319  1.0000
  C   C7        1.0  0.1297666823776424  0.9664380502388638  0.4082778784139194  1.0000
  C   C8        1.0  0.8702479062213372  0.03356807208719201  0.5917462323488749  1.0000
  N   N1        1.0  0.23094116154415192  0.5016741825861998  0.2789782849372103  1.0000
  N   N2        1.0  0.7690657831160908  0.4983216332960225  0.7210275996024933  1.0000
  O   O1        1.0  0.5862268948227793  0.23339970842140192  0.2507953048109499  1.0000
  O   O2        1.0  0.41377782082065556  0.7665960977103978  0.7491863373278137  1.0000
  O   O3        1.0  0.8009529012552363  0.6678432132707426  0.41327227011738177  1.0000
  O   O4        1.0  0.19903971366924372  0.3321335001482879  0.5867376643571589  1.0000
  O   O5        1.0  0.281791030769874  0.9229795178631975  0.29665083006548093  1.0000
  O   O6        1.0  0.7182500747370784  0.07701902576277322  0.7033448044449956  1.0000
