data_image0
_chemical_formula_structural       Cd4H36C60N20O16
_chemical_formula_sum              "Cd4 H36 C60 N20 O16"
_cell_length_a       10.266858783447367
_cell_length_b       11.71712769800194
_cell_length_c       18.399660137221556
_cell_angle_alpha    90.00001128075559
_cell_angle_beta     90.88874127722669
_cell_angle_gamma    89.99993496935369

_space_group_name_H-M_alt    "P 1"
_space_group_IT_number       1

loop_
  _space_group_symop_operation_xyz
  'x, y, z'

loop_
  _atom_site_type_symbol
  _atom_site_label
  _atom_site_symmetry_multiplicity
  _atom_site_fract_x
  _atom_site_fract_y
  _atom_site_fract_z
  _atom_site_occupancy
  Cd  Cd1       1.0  0.4577807926243765  0.3333673949223694  0.5540830899123321  1.0000
  Cd  Cd2       1.0  0.04221835063163581  0.8333673330638828  0.9459175985006922  1.0000
  Cd  Cd3       1.0  0.542221015515672  0.6666307521481585  0.4459165250711337  1.0000
  Cd  Cd4       1.0  0.9577785901545965  0.166631667460706  0.054083065884817906  1.0000
  H   H1        1.0  0.45567762542514617  0.1683208964826974  0.0493383335241546  1.0000
  H   H2        1.0  0.0443216012437802  0.6683216874483834  0.4506620254927967  1.0000
  H   H3        1.0  0.5443173654805663  0.8316798109457367  0.9506617723192504  1.0000
  H   H4        1.0  0.9556802085246904  0.3316824337826035  0.5493381329926805  1.0000
  H   H5        1.0  0.6748701871069402  0.2887018547557005  0.23533363472883911  1.0000
  H   H6        1.0  0.8251292605753945  0.7887014561817837  0.26466597022674426  1.0000
  H   H7        1.0  0.32512772127205386  0.7112997061225242  0.7646648631704238  1.0000
  H   H8        1.0  0.1748735249522468  0.2112975443399137  0.7353347392803684  1.0000
  H   H9        1.0  0.2534990384592177  0.29477863862922493  0.23617799919937707  1.0000
  H   H10       1.0  0.24650197115803252  0.794780024768542  0.2638218458592689  1.0000
  H   H11       1.0  0.7464998489418664  0.7052203618943196  0.763822136725004  1.0000
  H   H12       1.0  0.7535027577204334  0.2052181223004581  0.7361772481833384  1.0000
  H   H13       1.0  0.5492341511674611  0.6291787124866701  0.2849027893035156  1.0000
  H   H14       1.0  0.9507645321166579  0.1291779774404631  0.2150978768402183  1.0000
  H   H15       1.0  0.4507666877442348  0.3708219949390354  0.7150984486648184  1.0000
  H   H16       1.0  0.049234355283871906  0.8708218765345637  0.7849022590842054  1.0000
  H   H17       1.0  0.4621223853005745  0.5414405197325962  0.22103336977421154  1.0000
  H   H18       1.0  0.037877976440619014  0.0414410677628041  0.27896589520840814  1.0000
  H   H19       1.0  0.5378784519793811  0.4585593342415494  0.7789673246924095  1.0000
  H   H20       1.0  0.9621209093276237  0.9585587862121372  0.7210336972143523  1.0000
  H   H21       1.0  0.6306158935643823  0.5173833482190843  0.23735835567447336  1.0000
  H   H22       1.0  0.8693839085328039  0.017382708616828797  0.2626423051682991  1.0000
  H   H23       1.0  0.36938494534731353  0.48261735920662124  0.7626428822938607  1.0000
  H   H24       1.0  0.1306149756036987  0.9826162919065454  0.7373567437527484  1.0000
  H   H25       1.0  0.3089423571991148  0.9528468999892041  0.3331123304314758  1.0000
  H   H26       1.0  0.19105747534992193  0.45284726141462545  0.1668880687365402  1.0000
  H   H27       1.0  0.6910565302014151  0.047152953985822386  0.6668878054929479  1.0000
  H   H28       1.0  0.8089443327901267  0.5471508856559026  0.8331115462469327  1.0000
  H   H29       1.0  0.2855189803845164  0.9073716234098937  0.46668470009093704  1.0000
  H   H30       1.0  0.21448480914519058  0.40737448080037114  0.0333162674446328  1.0000
  H   H31       1.0  0.7144799053837261  0.09262823056504739  0.5333148923318234  1.0000
  H   H32       1.0  0.7855199213622442  0.5926287869776061  0.9666833700999362  1.0000
  H   H33       1.0  0.35377940220849524  0.06358375235758731  0.5564449155475941  1.0000
  H   H34       1.0  0.14622398507211193  0.5635852934090552  0.9435552285048273  1.0000
  H   H35       1.0  0.6462214350720147  0.9364152481650763  0.44355577891897724  1.0000
  H   H36       1.0  0.8537778198005982  0.4364171209187191  0.0564432994755535  1.0000
  C   C1        1.0  0.7058334460840358  0.20075535065250696  0.1028189412911473  1.0000
  C   C2        1.0  0.7941661154212057  0.7007558770782298  0.39718065357836  1.0000
  C   C3        1.0  0.29416348980478096  0.7992445033233154  0.8971800925894158  1.0000
  C   C4        1.0  0.20583472022590857  0.2992448303473125  0.6028194973866546  1.0000
  C   C5        1.0  0.21144439343938612  0.21438180227362844  0.1016294675548934  1.0000
  C   C6        1.0  0.2885547719842948  0.7143814811855121  0.398370353242818  1.0000
  C   C7        1.0  0.788553514940162  0.7856189051531075  0.8983690303443197  1.0000
  C   C8        1.0  0.711447039419781  0.28561751933666824  0.6016303487440311  1.0000
  C   C9        1.0  0.45841493199812805  0.2048460665987548  0.10386381202882689  1.0000
  C   C10       1.0  0.04158522315393041  0.7048476969436595  0.3961371021989848  1.0000
  C   C11       1.0  0.5415810346639917  0.7951537873777993  0.8961368448364623  1.0000
  C   C12       1.0  0.9584175623726098  0.2951530104809946  0.6038636073082202  1.0000
  C   C13       1.0  0.5781318639582196  0.22536383963635842  0.1388713182841315  1.0000
  C   C14       1.0  0.9218676673296644  0.7253650816166227  0.3611288229093006  1.0000
  C   C15       1.0  0.42186604605306144  0.774637721241945  0.8611277231167945  1.0000
  C   C16       1.0  0.0781360923193404  0.2746373327105189  0.6388718941182744  1.0000
  C   C17       1.0  0.3417774444223554  0.23123484969491412  0.1387042959359803  1.0000
  C   C18       1.0  0.1582207266970528  0.7312363535024533  0.3612960627760203  1.0000
  C   C19       1.0  0.6582194930976472  0.7687667111839573  0.8612952814463384  1.0000
  C   C20       1.0  0.8417801122146358  0.2687643539232525  0.638705175192321  1.0000
  C   C21       1.0  0.5809920233870827  0.2719221877184523  0.20900620822959579  1.0000
  C   C22       1.0  0.919008420135164  0.7719225574902565  0.2909934023219236  1.0000
  C   C23       1.0  0.4190058849930127  0.7280776662568087  0.7909922896695747  1.0000
  C   C24       1.0  0.08099436539192342  0.22807729648291541  0.7090073071852387  1.0000
  C   C25       1.0  0.34480121867508023  0.2764234081151216  0.2091518681410349  1.0000
  C   C26       1.0  0.1551968988576675  0.7764231863297086  0.2908501262583059  1.0000
  C   C27       1.0  0.655195722110058  0.7235772993124312  0.7908487962445676  1.0000
  C   C28       1.0  0.8448058915662955  0.2235766676437124  0.7091522137538533  1.0000
  C   C29       1.0  0.46446356149476037  0.2963522995053083  0.24317306377012218  1.0000
  C   C30       1.0  0.0355345237149649  0.7963538929599495  0.2568267589082112  1.0000
  C   C31       1.0  0.5355333760263437  0.7036475544705996  0.7568265136121042  1.0000
  C   C32       1.0  0.9644663119321495  0.20364681446559277  0.7431733920568036  1.0000
  C   C33       1.0  0.5391513667888647  0.5425311989772509  0.2631978841897649  1.0000
  C   C34       1.0  0.9608474286364627  0.042532167506188  0.23680277201690808  1.0000
  C   C35       1.0  0.460849468858804  0.4574686549968092  0.736802266775193  1.0000
  C   C36       1.0  0.0391514587640671  0.9574676864688383  0.7631973639075156  1.0000
  C   C37       1.0  0.5067718606693249  0.46299039953623833  0.3227306182167879  1.0000
  C   C38       1.0  0.9932283355662295  0.9629898071444674  0.17726901424730812  1.0000
  C   C39       1.0  0.49322800248705795  0.5370094544383903  0.6772700687295696  1.0000
  C   C40       1.0  0.0067734758378464  0.0370091933777132  0.8227316877395339  1.0000
  C   C41       1.0  0.44758384281137614  0.3089194022575299  0.381505830532582  1.0000
  C   C42       1.0  0.05241520025771961  0.8089200829040877  0.11849400110721581  1.0000
  C   C43       1.0  0.5524160170815406  0.6910787448139644  0.6184937694103497  1.0000
  C   C44       1.0  0.9475836871433644  0.19107891761945683  0.8815061348171581  1.0000
  C   C45       1.0  0.4060689381073176  0.19405595150191612  0.4026651015908556  1.0000
  C   C46       1.0  0.09393122774686452  0.694054877509103  0.0973347243960134  1.0000
  C   C47       1.0  0.5939318975397967  0.805944755923626  0.5973350493741592  1.0000
  C   C48       1.0  0.9060686321465995  0.3059424161109092  0.9026648755468686  1.0000
  C   C49       1.0  0.3323013494415576  0.0161514620273877  0.3747678851030756  1.0000
  C   C50       1.0  0.16770099654078763  0.516152883734037  0.1252324790231825  1.0000
  C   C51       1.0  0.6676975363277863  0.9838466850445898  0.6252317073195854  1.0000
  C   C52       1.0  0.8323008132304468  0.48384697023954004  0.874767679462046  1.0000
  C   C53       1.0  0.3201216374680201  0.9902852683596067  0.4484286447486738  1.0000
  C   C54       1.0  0.17988204148838352  0.49028645882567884  0.0515712452924078  1.0000
  C   C55       1.0  0.6798811431622057  0.0097145856133238  0.5515704342534917  1.0000
  C   C56       1.0  0.8201197699145839  0.5097142485994653  0.9484294566945337  1.0000
  C   C57       1.0  0.35818091394647683  0.07477675729905542  0.49759076916528505  1.0000
  C   C58       1.0  0.14181940628204612  0.5747773134308289  0.0024090431421655  1.0000
  C   C59       1.0  0.6418199217017388  0.9252222432235232  0.5024093817996302  1.0000
  C   C60       1.0  0.8581814261004866  0.4252233939945426  0.9975900208195227  1.0000
  N   N1        1.0  0.47002724272036306  0.3512087549762556  0.3131157778028353  1.0000
  N   N2        1.0  0.029971747247486708  0.8512111858690903  0.1868846021886768  1.0000
  N   N3        1.0  0.5299716430478797  0.6487910989986858  0.6868838146199252  1.0000
  N   N4        1.0  0.9700300608914534  0.1487886681044017  0.8131150127948885  1.0000
  N   N5        1.0  0.506478889337572  0.4861931960249705  0.39352052575512897  1.0000
  N   N6        1.0  0.9935203011117013  0.9861934349961957  0.1064785583480869  1.0000
  N   N7        1.0  0.4935219430466164  0.5138049510459624  0.606478538206403  1.0000
  N   N8        1.0  0.006478584657095602  0.0138055655272638  0.8935210340746238  1.0000
  N   N9        1.0  0.4695299566499217  0.39104276765273493  0.4297240414563888  1.0000
  N   N10       1.0  0.0304689817655586  0.8910417483392765  0.07027634310328068  1.0000
  N   N11       1.0  0.5304708822628754  0.608956232870014  0.5702771965118529  1.0000
  N   N12       1.0  0.9695289298802195  0.10895639873318431  0.9297232417991097  1.0000
  N   N13       1.0  0.3734739818704896  0.11818241609924483  0.3512146190157921  1.0000
  N   N14       1.0  0.12652531621650814  0.6181864462953682  0.1487879082578729  1.0000
  N   N15       1.0  0.6265258796547145  0.8818157309723348  0.6487855244288028  1.0000
  N   N16       1.0  0.8734745453070404  0.3818142611306571  0.8512122351868712  1.0000
  N   N17       1.0  0.40314445189743964  0.17563677419006749  0.47491189441998216  1.0000
  N   N18       1.0  0.09685671355026672  0.6756373819494499  0.0250884804765192  1.0000
  N   N19       1.0  0.5968563821195972  0.8243605194294686  0.5250877130431705  1.0000
  N   N20       1.0  0.9031441204645606  0.32436332547600705  0.9749111269868322  1.0000
  O   O1        1.0  0.7084428797642489  0.14226062937412823  0.0453363092799819  1.0000
  O   O2        1.0  0.7915557849556694  0.642261176091651  0.4546638148624638  1.0000
  O   O3        1.0  0.2915540577574093  0.8577383711502975  0.9546632681022019  1.0000
  O   O4        1.0  0.20844602318383215  0.35773782443036595  0.5453358001210518  1.0000
  O   O5        1.0  0.8080779464813193  0.2428517990904808  0.1342692104843124  1.0000
  O   O6        1.0  0.691919612294001  0.7428524173519833  0.365730374172486  1.0000
  O   O7        1.0  0.1919180169167731  0.757147201434421  0.8657303593775936  1.0000
  O   O8        1.0  0.3080821958449392  0.2571474366215086  0.6342692408110793  1.0000
  O   O9        1.0  0.20563379592940126  0.187380296924772  0.0351044822377702  1.0000
  O   O10       1.0  0.2943663785641563  0.6873799905514988  0.46489534298354585  1.0000
  O   O11       1.0  0.7943641108178598  0.8126204105018857  0.9648934721597797  1.0000
  O   O12       1.0  0.7056393309659301  0.3126198634203092  0.5351059325860846  1.0000
  O   O13       1.0  0.110695555578765  0.23125032685222638  0.1407138893592546  1.0000
  O   O14       1.0  0.38929871576301184  0.7312498936972956  0.35928535227000685  1.0000
  O   O15       1.0  0.8893004045536446  0.7687503805754761  0.8592845934994244  1.0000
  O   O16       1.0  0.6106982233903866  0.2687499602786901  0.6407147686138828  1.0000
