data_image0
_chemical_formula_structural       Sm2H26C38S2N4O16
_chemical_formula_sum              "Sm2 H26 C38 S2 N4 O16"
_cell_length_a       8.750035459157905
_cell_length_b       10.614898566988515
_cell_length_c       11.039027846962638
_cell_angle_alpha    81.01991205226216
_cell_angle_beta     69.21068835379863
_cell_angle_gamma    88.86416101695269

_space_group_name_H-M_alt    "P 1"
_space_group_IT_number       1

loop_
  _space_group_symop_operation_xyz
  'x, y, z'

loop_
  _atom_site_type_symbol
  _atom_site_label
  _atom_site_symmetry_multiplicity
  _atom_site_fract_x
  _atom_site_fract_y
  _atom_site_fract_z
  _atom_site_occupancy
  Sm  Sm1       1.0  0.15720470485810267  0.0752410965228307  0.19373418046809832  1.0000
  Sm  Sm2       1.0  0.8427978583775159  0.9247521764871393  0.80626082912579  1.0000
  H   H1        1.0  0.24321566239855494  0.7825799918144369  0.3109283161266274  1.0000
  H   H2        1.0  0.7567910270957157  0.21742285241872136  0.6890722242654801  1.0000
  H   H3        1.0  0.7219014119465257  0.6249511433196488  0.6326653378218623  1.0000
  H   H4        1.0  0.2781028626904174  0.37505263766811237  0.3673303073393157  1.0000
  H   H5        1.0  0.597487063135972  0.4105351991926155  0.7395778513554916  1.0000
  H   H6        1.0  0.40251962184099443  0.5894676408576701  0.26042087918873585  1.0000
  H   H7        1.0  0.7485749871518478  0.017888476710069802  0.3440594115480024  1.0000
  H   H8        1.0  0.2514207060372939  0.9821143505663699  0.6559469570853763  1.0000
  H   H9        1.0  0.4601640805305394  0.049830317136930105  0.2645033236499117  1.0000
  H   H10       1.0  0.5398403526813526  0.9501763523450251  0.7355027078902976  1.0000
  H   H11       1.0  0.3147568875241191  0.0126139207808009  0.3957974498796446  1.0000
  H   H12       1.0  0.6852463208645502  0.9873927440284973  0.6042080226776747  1.0000
  H   H13       1.0  0.48935346903507343  0.12012153911688021  0.4743259381956546  1.0000
  H   H14       1.0  0.5106434769904452  0.8798822326578346  0.5256744973836475  1.0000
  H   H15       1.0  0.48349706387390506  0.35424097203583227  0.454132536593356  1.0000
  H   H16       1.0  0.5164974347638278  0.6457627924850015  0.5458676859441169  1.0000
  H   H17       1.0  0.6306392685514692  0.5684274930675457  0.35298254802954426  1.0000
  H   H18       1.0  0.36935766618078947  0.43157626824999795  0.6470133629300818  1.0000
  H   H19       1.0  0.879393990580496  0.6940622769963767  0.2034241552248447  1.0000
  H   H20       1.0  0.12060535223313448  0.30594054129225867  0.7965739361938873  1.0000
  H   H21       1.0  0.1673038867155796  0.6995049975248762  0.0439241155239145  1.0000
  H   H22       1.0  0.832697693401883  0.3004930640550754  0.9560785964794218  1.0000
  H   H23       1.0  0.4086044599347147  0.5776779209924213  0.9263790101287268  1.0000
  H   H24       1.0  0.5913909635362203  0.42231917321574736  0.0736255891492732  1.0000
  H   H25       1.0  0.3983100335935106  0.33866282871385067  0.9866922622467909  1.0000
  H   H26       1.0  0.6016866472310908  0.6613352141754659  0.013308213825013186  1.0000
  C   C1        1.0  0.1879312065626308  0.6889011233015125  0.35978617942938473  1.0000
  C   C2        1.0  0.8120742513324756  0.3111017099846833  0.6402110872080229  1.0000
  C   C3        1.0  0.02917918473698929  0.6768864647293426  0.4479748875140857  1.0000
  C   C4        1.0  0.970822647029479  0.323117313187403  0.5520223544531363  1.0000
  C   C5        1.0  0.9530855932403384  0.5554884991871846  0.51492559965682  1.0000
  C   C6        1.0  0.04691854992547921  0.4445124184035977  0.4850705182125735  1.0000
  C   C7        1.0  0.7908269448553042  0.5404843486900646  0.6080169975586998  1.0000
  C   C8        1.0  0.20917356992322308  0.4595175114398345  0.3919781907165784  1.0000
  C   C9        1.0  0.7218453147316451  0.42112988182392297  0.6680488067770652  1.0000
  C   C10       1.0  0.27816014542210604  0.5788729535537059  0.33194936478428616  1.0000
  C   C11       1.0  0.9479030467873172  0.946317761030251  0.05404502166362593  1.0000
  C   C12       1.0  0.0520764449472111  0.053679264067611095  0.9459486911411401  1.0000
  C   C13       1.0  0.46292624713586145  0.9324840023872696  0.003783768872686762  1.0000
  C   C14       1.0  0.5370900037563757  0.06751409016738559  0.9962147918380282  1.0000
  C   C15       1.0  0.7419916985523969  0.12123964394680092  0.3408743629048345  1.0000
  C   C16       1.0  0.2580051272952488  0.8787612748881058  0.6591310700023669  1.0000
  C   C17       1.0  0.5978949632775752  0.17774689503100663  0.4113483108624862  1.0000
  C   C18       1.0  0.40210185127681086  0.8222540133467223  0.5886525974250386  1.0000
  C   C19       1.0  0.5948920545343909  0.30906731902900475  0.4010308015578871  1.0000
  C   C20       1.0  0.40510361832689057  0.6909354894245255  0.5989674227600615  1.0000
  C   C21       1.0  0.7359658801965664  0.3840985747156865  0.3204410127534558  1.0000
  C   C22       1.0  0.2640298803121368  0.615906142669161  0.6795568964256873  1.0000
  C   C23       1.0  0.7404505120508134  0.520542539593812  0.30139581210008254  1.0000
  C   C24       1.0  0.25954275498775564  0.47946121398005903  0.6986011366826969  1.0000
  C   C25       1.0  0.8777047246571215  0.5900053908550973  0.21893335011727544  1.0000
  C   C26       1.0  0.1222907729093237  0.4099935997357847  0.7810655044782989  1.0000
  C   C27       1.0  0.021921377878378195  0.527116675186832  0.15131244671489696  1.0000
  C   C28       1.0  0.9780789313335063  0.4728804251633676  0.8486889589510296  1.0000
  C   C29       1.0  0.1642849231383821  0.595398415588683  0.061420106768565574  1.0000
  C   C30       1.0  0.8357130195571898  0.40460058016465444  0.9385780559449015  1.0000
  C   C31       1.0  0.29810102933077326  0.5283356632058087  0.9983622669466212  1.0000
  C   C32       1.0  0.7018981472226216  0.47166334558592365  0.0016400744454828245  1.0000
  C   C33       1.0  0.2925216936727182  0.3944174869504805  0.030406727570443992  1.0000
  C   C34       1.0  0.7074725004576976  0.6055795984021585  0.9695955028767996  1.0000
  C   C35       1.0  0.025160878925170497  0.39151667191553935  0.17310997834790243  1.0000
  C   C36       1.0  0.9748345815935195  0.6084813704839932  0.8268917485888847  1.0000
  C   C37       1.0  0.8780327027510211  0.31855825758682954  0.2558798547957791  1.0000
  C   C38       1.0  0.12196410728606108  0.6814426466080407  0.7441192436438655  1.0000
  S   S1        1.0  0.9165360586354083  0.8170457907406927  0.4754164152591684  1.0000
  S   S2        1.0  0.0834644213540159  0.1829551232892825  0.5245825502812591  1.0000
  N   N1        1.0  0.878933513351974  0.18916051262604583  0.2666023191648038  1.0000
  N   N2        1.0  0.12106444515416108  0.8108384977673352  0.7334021780162202  1.0000
  N   N3        1.0  0.1616370088593655  0.32721497624874735  0.11665496669274937  1.0000
  N   N4        1.0  0.8383584954830353  0.67278402061644  0.8833466026746349  1.0000
  O   O1        1.0  0.03141432201444869  0.9233863434450383  0.39603085845403996  1.0000
  O   O2        1.0  0.9685836712807898  0.0766136130482593  0.6039698614618344  1.0000
  O   O3        1.0  0.7728016381301046  0.8063091395310451  0.43979372103643033  1.0000
  O   O4        1.0  0.22719871490549787  0.19368891528481674  0.5602075270600864  1.0000
  O   O5        1.0  0.8690738254118885  0.8197472132467996  0.617925007118714  1.0000
  O   O6        1.0  0.1309323246459542  0.18024416484982447  0.3820719945626364  1.0000
  O   O7        1.0  0.8544243604673484  0.8776615512765318  0.02389678187404342  1.0000
  O   O8        1.0  0.14556482322694111  0.12233267081140303  0.9761118296653134  1.0000
  O   O9        1.0  0.9650188753316653  0.9352692999083202  0.1641909348999491  1.0000
  O   O10       1.0  0.03497727734976759  0.0647172873016331  0.8358105270807811  1.0000
  O   O11       1.0  0.5565083330762306  0.8585347252187746  0.932118876205514  1.0000
  O   O12       1.0  0.4435016970179007  0.1414614266755265  0.067873585033837  1.0000
  O   O13       1.0  0.3165517165484246  0.9072325600724299  0.07888952338172574  1.0000
  O   O14       1.0  0.6834681604724435  0.09276458785167559  0.9211090619991749  1.0000
  O   O15       1.0  0.36657237012401817  0.9899825951031501  0.3084245257651403  1.0000
  O   O16       1.0  0.6334414166605455  0.010014560829169702  0.6915848385603879  1.0000
