data_image0
_chemical_formula_structural       Co2H16C24N8
_chemical_formula_sum              "Co2 H16 C24 N8"
_cell_length_a       5.7336546408798075
_cell_length_b       7.209494790517307
_cell_length_c       12.763328980603328
_cell_angle_alpha    92.65594004854651
_cell_angle_beta     102.98859328048718
_cell_angle_gamma    90.04776108172871

_space_group_name_H-M_alt    "P 1"
_space_group_IT_number       1

loop_
  _space_group_symop_operation_xyz
  'x, y, z'

loop_
  _atom_site_type_symbol
  _atom_site_label
  _atom_site_symmetry_multiplicity
  _atom_site_fract_x
  _atom_site_fract_y
  _atom_site_fract_z
  _atom_site_occupancy
  Co  Co1       1.0  0.4522585636689271  0.2500949991024015  0.9999812255953768  1.0000
  Co  Co2       1.0  0.5477361237740793  0.7498984324312163  2.036884265522731e-05  1.0000
  H   H1        1.0  0.11080461418570313  0.368166697519179  0.39706544687520295  1.0000
  H   H2        1.0  0.7158527715727844  0.13288093468260345  0.6033325483536842  1.0000
  H   H3        1.0  0.8892000025988979  0.6318308491354189  0.6029264347360693  1.0000
  H   H4        1.0  0.284141381989329  0.8671222598291595  0.39667706018368415  1.0000
  H   H5        1.0  0.22512385856250466  0.342067581706516  0.5925375186801813  1.0000
  H   H6        1.0  0.6333938536690765  0.15918540242021353  0.407931485165129  1.0000
  H   H7        1.0  0.7748694201741841  0.6579244339280098  0.40745917209236626  1.0000
  H   H8        1.0  0.366584430306915  0.8408149820702135  0.5920730586323301  1.0000
  H   H9        1.0  0.46614000329579136  0.19895475629137152  0.7585480385137016  1.0000
  H   H10       1.0  0.7058778196121906  0.3011031382672656  0.24173694546559688  1.0000
  H   H11       1.0  0.5338744924063334  0.8010386859744544  0.2414543104494768  1.0000
  H   H12       1.0  0.2941159750320849  0.6988931300715606  0.758275589514035  1.0000
  H   H13       1.0  0.784580896827215  0.7489498410190054  0.8024960795442764  1.0000
  H   H14       1.0  0.9811199182626636  0.7516544855500417  0.19750754091978706  1.0000
  H   H15       1.0  0.2153883589343408  0.2510684917014602  0.19749059130926125  1.0000
  H   H16       1.0  0.018889192786943503  0.24833756283294411  0.8024941430035779  1.0000
  C   C1        1.0  0.2826487111031284  0.4251210290220017  0.4413173136097227  1.0000
  C   C2        1.0  0.8425970760799474  0.0754665182785814  0.5588824468866278  1.0000
  C   C3        1.0  0.7173649632721606  0.5748751292355581  0.5586740282416186  1.0000
  C   C4        1.0  0.15741333996907514  0.9245241729829419  0.4411248454668594  1.0000
  C   C5        1.0  0.3485327355368071  0.4097160849245186  0.5522874606821161  1.0000
  C   C6        1.0  0.796853273046068  0.09119086116534454  0.4479691617941056  1.0000
  C   C7        1.0  0.6514680462816996  0.5902870340397687  0.4477080263792529  1.0000
  C   C8        1.0  0.20314672450305687  0.9087984097053765  0.5520329545055489  1.0000
  C   C9        1.0  0.5671525885280388  0.48412692250873596  0.6133401095503997  1.0000
  C   C10       1.0  0.9533070875439339  0.016154687414378102  0.3866391762644739  1.0000
  C   C11       1.0  0.4328466411928248  0.5158789592226968  0.3866529102903938  1.0000
  C   C12       1.0  0.0467085908140987  0.9838332360729897  0.6133694500989362  1.0000
  C   C13       1.0  0.6209077035753482  0.4738210020751766  0.7307164187084466  1.0000
  C   C14       1.0  0.8891534236961363  0.02652593065192121  0.2693977778280754  1.0000
  C   C15       1.0  0.37908962324272716  0.5261862750485023  0.26927797988597746  1.0000
  C   C16       1.0  0.11083875241678239  0.9734731047063507  0.7306130662847321  1.0000
  C   C17       1.0  0.5409817098087117  0.3345964306985466  0.7880935500124762  1.0000
  C   C18       1.0  0.751459054839799  0.16561096388723237  0.21215931884839984  1.0000
  C   C19       1.0  0.4590337240780328  0.6654025108329977  0.21189884953012944  1.0000
  C   C20       1.0  0.24852420707377118  0.8343852812018472  0.787849628579444  1.0000
  C   C21       1.0  0.7112971217655968  0.612736091891428  0.8106764406791312  1.0000
  C   C22       1.0  0.8993482083810207  0.8876948176292463  0.18937379203180166  1.0000
  C   C23       1.0  0.2886967127788367  0.38727256611877453  0.18931679785924868  1.0000
  C   C24       1.0  0.10066583039782974  0.11230421320080101  0.8106349109395694  1.0000
  N   N1        1.0  0.5705096452520877  0.38956796142860384  0.8928572546119964  1.0000
  N   N2        1.0  0.67577233068328  0.11068847822868122  0.10748747821148188  1.0000
  N   N3        1.0  0.42950219265411244  0.6104295879689019  0.10713468963921707  1.0000
  N   N4        1.0  0.32423476082150415  0.889316091647274  0.8925189762368927  1.0000
  N   N5        1.0  0.6741948338821189  0.5640578450265538  0.9070178304436564  1.0000
  N   N6        1.0  0.7654497603880087  0.9362170557085325  0.0931677419563997  1.0000
  N   N7        1.0  0.32579760247990913  0.4359452269229322  0.09296962069185348  1.0000
  N   N8        1.0  0.23457148898853566  0.06378614802603272  0.9068419073923122  1.0000
