data_image0
_chemical_formula_structural       Cs4P4H16C8O24
_chemical_formula_sum              "Cs4 P4 H16 C8 O24"
_cell_length_a       5.12499278300111
_cell_length_b       9.03373260104921
_cell_length_c       15.139544611079199
_cell_angle_alpha    90.00037065955132
_cell_angle_beta     89.99999976319235
_cell_angle_gamma    90.00007533867392

_space_group_name_H-M_alt    "P 1"
_space_group_IT_number       1

loop_
  _space_group_symop_operation_xyz
  'x, y, z'

loop_
  _atom_site_type_symbol
  _atom_site_label
  _atom_site_symmetry_multiplicity
  _atom_site_fract_x
  _atom_site_fract_y
  _atom_site_fract_z
  _atom_site_occupancy
  Cs  Cs1       1.0  0.7805436575050636  0.10633160931335787  0.5859260187301344  1.0000
  Cs  Cs2       1.0  0.7194557056782784  0.8936667699990507  0.08592703017612281  1.0000
  Cs  Cs3       1.0  0.21945661483534448  0.6063335881564598  0.9140735782385718  1.0000
  Cs  Cs4       1.0  0.28054328715094107  0.3936679754149068  0.4140739805351643  1.0000
  P   P1        1.0  0.2867621722992908  0.6884244123224335  0.6348718115734189  1.0000
  P   P2        1.0  0.21323968450004577  0.3115730172954939  0.13487189706215472  1.0000
  P   P3        1.0  0.7132382901124004  0.18842651717270092  0.8651281022919621  1.0000
  P   P4        1.0  0.786761069478871  0.8115748891281455  0.36512813622847073  1.0000
  H   H1        1.0  0.5127157957291145  0.8040084627566627  0.5254664980493545  1.0000
  H   H2        1.0  0.9872816170110994  0.1959903680325468  0.0254661369987019  1.0000
  H   H3        1.0  0.48728298307302953  0.3040093710793172  0.974533861993784  1.0000
  H   H4        1.0  0.012716918134124499  0.6959917410109354  0.4745334501163044  1.0000
  H   H5        1.0  0.6048151276914596  0.5373323701429982  0.7128791501099273  1.0000
  H   H6        1.0  0.8951803314089306  0.46266295768738513  0.2128791580812006  1.0000
  H   H7        1.0  0.3951791312282822  0.0373356056841274  0.7871208410306849  1.0000
  H   H8        1.0  0.10481491872837272  0.9626679024034744  0.287121458456042  1.0000
  H   H9        1.0  0.799193953337806  0.5498415009546276  0.5798830998224248  1.0000
  H   H10       1.0  0.7008054099258557  0.45015902676153263  0.07988305977249148  1.0000
  H   H11       1.0  0.20080618820773566  0.0498416053842448  0.920116939600163  1.0000
  H   H12       1.0  0.2991956649217755  0.9501589167426588  0.4201168479651968  1.0000
  H   H13       1.0  0.014609181045763399  0.3324436559839227  0.7564586655974425  1.0000
  H   H14       1.0  0.48539072296575364  0.6675539848694783  0.2564594643698896  1.0000
  H   H15       1.0  0.9853916148175513  0.8324465718711805  0.7435404831720263  1.0000
  H   H16       1.0  0.5146096975641042  0.1675568371184752  0.24354133402092512  1.0000
  C   C1        1.0  0.48627054856609664  0.5180409722475474  0.6530417781278004  1.0000
  C   C2        1.0  0.013725454327556001  0.48195222652162056  0.15304384263350101  1.0000
  C   C3        1.0  0.5137256169135611  0.0180471589621547  0.8469568175057418  1.0000
  C   C4        1.0  0.9862717916943496  0.9819584781881114  0.3469581694108186  1.0000
  C   C5        1.0  0.29959891929472354  0.39126173800642045  0.6719952080111682  1.0000
  C   C6        1.0  0.20040098580344076  0.6087349871421421  0.17199842219488204  1.0000
  C   C7        1.0  0.7004000615298621  0.8912653567798611  0.8280015257231028  1.0000
  C   C8        1.0  0.7995973473206207  0.1087389679131903  0.32800479123113047  1.0000
  O   O1        1.0  0.20500017169224796  0.7457201232588914  0.7248772714513549  1.0000
  O   O2        1.0  0.2950016839491242  0.2542782821598805  0.2248771356598169  1.0000
  O   O3        1.0  0.7950004233763011  0.24572131336468317  0.7751228635864109  1.0000
  O   O4        1.0  0.705000888596473  0.7542802240981954  0.27512267646056193  1.0000
  O   O5        1.0  0.48071965326960964  0.8045180167503005  0.5924962562940197  1.0000
  O   O6        1.0  0.0192822040761982  0.1954800604090607  0.0924958938931724  1.0000
  O   O7        1.0  0.5192830291585793  0.3045204361866494  0.9075047662408764  1.0000
  O   O8        1.0  0.9807202323333046  0.6954825365020908  0.4075036912540568  1.0000
  O   O9        1.0  0.06921840759463291  0.6502891306811519  0.5694595988800373  1.0000
  O   O10       1.0  0.43077954760430975  0.3497098036881922  0.06945983129494951  1.0000
  O   O11       1.0  0.9307800152978489  0.1502898932300383  0.9305401677721008  1.0000
  O   O12       1.0  0.5692193434505767  0.8497111152800798  0.4305403492110571  1.0000
  O   O13       1.0  0.6426102414342338  0.48352112038566014  0.5787415901650307  1.0000
  O   O14       1.0  0.8573930242860613  0.5164771810368618  0.07874246643717701  1.0000
  O   O15       1.0  0.3573928554431943  0.9835232801202731  0.9212574812736423  1.0000
  O   O16       1.0  0.14261094889774742  0.01648057526459469  0.4212584092865583  1.0000
  O   O17       1.0  0.2730875394381088  0.28472077453623956  0.6212372009037352  1.0000
  O   O18       1.0  0.22691041508826265  0.7152731863921673  0.1212408263188465  1.0000
  O   O19       1.0  0.7269111947119598  0.7847260703679949  0.8787597820838684  1.0000
  O   O20       1.0  0.773088164706479  0.21527769766235139  0.37876279836926596  1.0000
  O   O21       1.0  0.16598704731132596  0.41195452706752167  0.7449749860949312  1.0000
  O   O22       1.0  0.3340148080689005  0.5880418823322415  0.24497745970093382  1.0000
  O   O23       1.0  0.8340158838686947  0.9119585613639386  0.7550218275188881  1.0000
  O   O24       1.0  0.6659873795874988  0.08804497211151838  0.25502435279968694  1.0000
