data_image0
_chemical_formula_structural       Hg4H16C20S8N12
_chemical_formula_sum              "Hg4 H16 C20 S8 N12"
_cell_length_a       9.384978980654289
_cell_length_b       9.38489977090413
_cell_length_c       11.1740332127531
_cell_angle_alpha    70.0673880100332
_cell_angle_beta     70.06725610363841
_cell_angle_gamma    72.14206854010686

_space_group_name_H-M_alt    "P 1"
_space_group_IT_number       1

loop_
  _space_group_symop_operation_xyz
  'x, y, z'

loop_
  _atom_site_type_symbol
  _atom_site_label
  _atom_site_symmetry_multiplicity
  _atom_site_fract_x
  _atom_site_fract_y
  _atom_site_fract_z
  _atom_site_occupancy
  Hg  Hg1       1.0  0.6484088617481092  0.8203588324942218  0.8968831031758452  1.0000
  Hg  Hg2       1.0  0.17963629432773592  0.35158997606996695  0.6031223694275382  1.0000
  Hg  Hg3       1.0  0.3515885414240715  0.17963882203504514  0.10312134989489148  1.0000
  Hg  Hg4       1.0  0.8203639801647851  0.6484099936825987  0.3968761078372793  1.0000
  H   H1        1.0  0.6265586270470536  0.45121641537870977  0.11521505997298204  1.0000
  H   H2        1.0  0.5487886914880065  0.3734398423018845  0.38478532226375245  1.0000
  H   H3        1.0  0.37344165838307924  0.5487835653231488  0.8847860957871629  1.0000
  H   H4        1.0  0.4512182728835441  0.626555515757417  0.6152152383504512  1.0000
  H   H5        1.0  0.7433115089439681  0.26712678802850587  0.09611069225210389  1.0000
  H   H6        1.0  0.7328802130536047  0.2566894244899133  0.40388599303571476  1.0000
  H   H7        1.0  0.25669052984084567  0.7328755184682835  0.9038883879783058  1.0000
  H   H8        1.0  0.2671276225264805  0.7433070909922108  0.5961121905659681  1.0000
  H   H9        1.0  0.6946088026906876  0.415487957469452  0.958156050379763  1.0000
  H   H10       1.0  0.58451615035721  0.30538888605139664  0.5418452924413728  1.0000
  H   H11       1.0  0.3053921071908263  0.5845143486496696  0.04184425163151661  1.0000
  H   H12       1.0  0.4154899282223211  0.6946052999860372  0.45815407385825996  1.0000
  H   H13       1.0  0.9986366289035403  0.7716546031282406  0.8894223300051392  1.0000
  H   H14       1.0  0.2283496377238308  0.0013726227357580007  0.6105703700389569  1.0000
  H   H15       1.0  0.0013640232832087852  0.22834886003604285  0.1105768167744827  1.0000
  H   H16       1.0  0.7716540271244482  0.9986273517995631  0.38942533471502827  1.0000
  C   C1        1.0  0.726039094049014  0.39229838209305273  0.05000334867475691  1.0000
  C   C2        1.0  0.6077068887725048  0.2739633897736127  0.4499954842697562  1.0000
  C   C3        1.0  0.27396156178360087  0.6077050847209978  0.9499966909366435  1.0000
  C   C4        1.0  0.3922975491600765  0.7260331136262368  0.5500036861792026  1.0000
  C   C5        1.0  0.9999717514313246  0.6489843359240127  0.9391722197454371  1.0000
  C   C6        1.0  0.35102096928962817  3.022359818059978e-05  0.5608229070343  1.0000
  C   C7        1.0  2.9162096062392368e-05  0.3510179738448756  0.060828975097621196  1.0000
  C   C8        1.0  0.6489863363174209  0.9999685913752004  0.439169394776968  1.0000
  C   C9        1.0  0.8677148845849915  0.45000880543945254  0.023508067511535544  1.0000
  C   C10       1.0  0.5499957642577015  0.13228454649708976  0.4764880919023823  1.0000
  C   C11       1.0  0.1322860216506498  0.5499934970299095  0.9764913416679732  1.0000
  C   C12       1.0  0.45000953394578863  0.8677131033762823  0.5235060230387275  1.0000
  C   C13       1.0  0.5721953403081129  0.6922713437920649  0.20280876947946067  1.0000
  C   C14       1.0  0.30772860524884044  0.42779864179937743  0.2971914585014872  1.0000
  C   C15       1.0  0.427799017389674  0.3077297665182855  0.797191090130937  1.0000
  C   C16       1.0  0.692270906563479  0.5721943338302183  0.7028038940701647  1.0000
  C   C17       1.0  0.9121612435638435  0.8394378669188003  0.6267592684007967  1.0000
  C   C18       1.0  0.16056555010255377  0.08783659354696742  0.8732462541674693  1.0000
  C   C19       1.0  0.0878356478646651  0.160562105350543  0.37324376703839585  1.0000
  C   C20       1.0  0.8394280709696601  0.9121680243965002  0.12675906806570947  1.0000
  S   S1        1.0  0.45023943418057394  0.7830993513207292  0.10909017715195542  1.0000
  S   S2        1.0  0.21689763486801183  0.5497563864274824  0.3909126228185399  1.0000
  S   S3        1.0  0.5497543100034576  0.21689944452165125  0.8909132147026355  1.0000
  S   S4        1.0  0.7831008716863508  0.45024124293109946  0.6090843586489071  1.0000
  S   S5        1.0  0.8050713943681272  0.9770020153262139  0.7023918796265181  1.0000
  S   S6        1.0  0.022997606153033697  0.19492598744446352  0.7976171881990337  1.0000
  S   S7        1.0  0.1949243645112162  0.0229979529157021  0.29761148476177357  1.0000
  S   S8        1.0  0.9769968897735806  0.8050797915715866  0.2023866498533947  1.0000
  N   N1        1.0  0.8711131258096784  0.6004464763751187  0.9619513690958853  1.0000
  N   N2        1.0  0.39955786673579047  0.12889040831679216  0.5380437572932308  1.0000
  N   N3        1.0  0.1288877840718357  0.3995558297440028  0.03804893291539458  1.0000
  N   N4        1.0  0.6004463025644068  0.8711072411789192  0.4619515794287491  1.0000
  N   N5        1.0  0.6544817333910585  0.6237359013770603  0.2728943144800482  1.0000
  N   N6        1.0  0.3762653595103629  0.34551417702002857  0.2271091267522181  1.0000
  N   N7        1.0  0.3455154120863497  0.37626291019736174  0.727108983359031  1.0000
  N   N8        1.0  0.6237309001750261  0.6544834625325184  0.7728929767722902  1.0000
  N   N9        1.0  0.9913119134939096  0.7454388975328573  0.5700562472134789  1.0000
  N   N10       1.0  0.25456311358470873  0.008686611822462002  0.9299437417905948  1.0000
  N   N11       1.0  0.008683333641769781  0.25456338844914234  0.4299456995432677  1.0000
  N   N12       1.0  0.7454271025482554  0.9913179867391975  0.07006078162631715  1.0000
