data_image0
_chemical_formula_structural       Al4H56C84O20F8
_chemical_formula_sum              "Al4 H56 C84 O20 F8"
_cell_length_a       6.667204009013552
_cell_length_b       21.599519498322437
_cell_length_c       25.436870906021962
_cell_angle_alpha    95.59987248525088
_cell_angle_beta     89.99977459080054
_cell_angle_gamma    90.0002169162696

_space_group_name_H-M_alt    "P 1"
_space_group_IT_number       1

loop_
  _space_group_symop_operation_xyz
  'x, y, z'

loop_
  _atom_site_type_symbol
  _atom_site_label
  _atom_site_symmetry_multiplicity
  _atom_site_fract_x
  _atom_site_fract_y
  _atom_site_fract_z
  _atom_site_occupancy
  Al  Al1       1.0  0.2173425220479999  0.2503335230543442  0.24830090746955588  1.0000
  Al  Al2       1.0  0.7826774704127646  0.749654335997853  0.7517044466128836  1.0000
  Al  Al3       1.0  0.7173496881423989  0.24965696110431418  0.2517055089324955  1.0000
  Al  Al4       1.0  0.2826703043465884  0.7503326051559612  0.748298651591412  1.0000
  H   H1        1.0  0.015086050644818303  0.460501381063267  0.2719489585895474  1.0000
  H   H2        1.0  0.9849039444265275  0.5394939603918516  0.7280417375065226  1.0000
  H   H3        1.0  0.5150932640491633  0.039497167468127294  0.2280402434550908  1.0000
  H   H4        1.0  0.4849087301214895  0.9605019553396726  0.7719472733660736  1.0000
  H   H5        1.0  0.9492336282625617  0.37093321642727517  0.4913136642286631  1.0000
  H   H6        1.0  0.050642376101350806  0.6290702624414024  0.5086754135045198  1.0000
  H   H7        1.0  0.4493591912418395  0.1290739977929078  0.008673855049636399  1.0000
  H   H8        1.0  0.5506862995236901  0.8709361986425392  0.9913171677870736  1.0000
  H   H9        1.0  0.68548573881548  0.15956114412611563  0.38676935883600555  1.0000
  H   H10       1.0  0.3145462527330309  0.8404352995798446  0.6132418841306516  1.0000
  H   H11       1.0  0.18547960784293596  0.34042882812264  0.11323669824125912  1.0000
  H   H12       1.0  0.8145043875982768  0.6595699770822209  0.88677492909774  1.0000
  H   H13       1.0  0.27543060312638096  0.026454672185558102  0.409568860997915  1.0000
  H   H14       1.0  0.7246103876961743  0.9735412130139666  0.5904415940774469  1.0000
  H   H15       1.0  0.77539874633316  0.4735421966499303  0.09043667438393038  1.0000
  H   H16       1.0  0.2245897487370385  0.5264533533004396  0.9095710156523964  1.0000
  H   H17       1.0  0.07732874643418342  0.388929909287043  0.6776051657129469  1.0000
  H   H18       1.0  0.9565505581117295  0.4372689540432476  0.7286531714128798  1.0000
  H   H19       1.0  0.8146844254223853  0.3978815981501853  0.6764244694253706  1.0000
  H   H20       1.0  0.9226582490421507  0.6110678084311301  0.32236694361220236  1.0000
  H   H21       1.0  0.18528907104878561  0.6021185937776962  0.32356422817438363  1.0000
  H   H22       1.0  0.04346793464841881  0.5627221109297906  0.2713328016138234  1.0000
  H   H23       1.0  0.5773377126028408  0.11106819492228229  0.8223662802086552  1.0000
  H   H24       1.0  0.4565252719035443  0.0627208056341999  0.7713329324821955  1.0000
  H   H25       1.0  0.31469977063351007  0.10211954842895919  0.823564102710982  1.0000
  H   H26       1.0  0.42266128193762864  0.8889340225373347  0.17760857498443983  1.0000
  H   H27       1.0  0.6853007237633053  0.8978859883822421  0.17641903701886713  1.0000
  H   H28       1.0  0.5434632233109299  0.9372729398818008  0.2286522377463172  1.0000
  H   H29       1.0  0.6735916398097148  0.1022923800172748  0.5102087734373767  1.0000
  H   H30       1.0  0.5109468131076937  0.11778102005241213  0.45734538949078996  1.0000
  H   H31       1.0  0.5762730821060842  0.04002820364647868  0.4679804619851992  1.0000
  H   H32       1.0  0.32644785121215864  0.8977138928289817  0.4898071669898271  1.0000
  H   H33       1.0  0.4237709085226273  0.9599786918034637  0.5320406135634383  1.0000
  H   H34       1.0  0.4891121763365903  0.882221949647082  0.5426662186163255  1.0000
  H   H35       1.0  0.17357530319580416  0.3977093524590386  0.9898001013022791  1.0000
  H   H36       1.0  0.010908172410381702  0.382214433657829  0.042656478566264894  1.0000
  H   H37       1.0  0.07624237197612871  0.4599717848706534  0.0320319876087183  1.0000
  H   H38       1.0  0.826396693327375  0.6023002390168273  0.010212662024358101  1.0000
  H   H39       1.0  0.923734124173855  0.540039163081474  0.9679843265362817  1.0000
  H   H40       1.0  0.9890578246145196  0.6177942161706227  0.9573523368007812  1.0000
  H   H41       1.0  0.28487092434532  0.0863662480850849  0.286913261779695  1.0000
  H   H42       1.0  0.4135638152331111  0.1384039975990206  0.33204264360139035  1.0000
  H   H43       1.0  0.4328512898493742  0.056893923989655114  0.33752504918058435  1.0000
  H   H44       1.0  0.7151670666648188  0.9136238928865623  0.713095638849026  1.0000
  H   H45       1.0  0.5671912008904983  0.9431040353542599  0.6624834201839177  1.0000
  H   H46       1.0  0.5864471780296088  0.8615925735798909  0.6679658321771669  1.0000
  H   H47       1.0  0.7848689008384896  0.41362511637004207  0.2130926842451686  1.0000
  H   H48       1.0  0.9135747633000122  0.36158893562054567  0.1679607883157104  1.0000
  H   H49       1.0  0.9328416811666644  0.443100908792303  0.16247874891715242  1.0000
  H   H50       1.0  0.21513609293550934  0.5863748854292724  0.7869173566472156  1.0000
  H   H51       1.0  0.06714381421949163  0.5569011192583987  0.8375289112659061  1.0000
  H   H52       1.0  0.0864167316054463  0.6384113211252398  0.8320437181854743  1.0000
  H   H53       1.0  0.46063480484865954  0.2838627151403443  0.3152686043600568  1.0000
  H   H54       1.0  0.5393851876797626  0.7161300422775413  0.684735146226906  1.0000
  H   H55       1.0  0.9606376863803876  0.21613389007684702  0.18473831815374103  1.0000
  H   H56       1.0  0.03939130539922791  0.7838593462670643  0.8152693825237164  1.0000
  C   C1        1.0  0.4705803973702843  0.31974827878826056  0.18082018632296126  1.0000
  C   C2        1.0  0.5293990984116308  0.6802435531858891  0.8191835685503008  1.0000
  C   C3        1.0  0.9705909899225775  0.18024095497846562  0.31918320261567595  1.0000
  C   C4        1.0  0.029429002580563704  0.8197506058453924  0.6808221344068456  1.0000
  C   C5        1.0  0.4699499498056313  0.15291991883862008  0.1936048184735455  1.0000
  C   C6        1.0  0.5300445449220563  0.8470818852331661  0.8063933572112275  1.0000
  C   C7        1.0  0.9699720383511876  0.34708259014718823  0.30639732425213856  1.0000
  C   C8        1.0  0.030053953758375905  0.6529145550224698  0.6936044299591514  1.0000
  C   C9        1.0  0.0216241715320606  0.5913793384645203  0.6607029125311927  1.0000
  C   C10       1.0  0.9783928214286279  0.40862323116849797  0.33929012162046485  1.0000
  C   C11       1.0  0.5216126863269467  0.9086234675590817  0.8392901114152379  1.0000
  C   C12       1.0  0.4783773088633936  0.0913842877945825  0.16070368931229237  1.0000
  C   C13       1.0  0.9797007008897156  0.4790433617117176  0.6560291636887214  1.0000
  C   C14       1.0  0.0202997934642823  0.5209624786593636  0.34396029832599595  1.0000
  C   C15       1.0  0.47968539659943604  0.020961732812466497  0.8439611926890577  1.0000
  C   C16       1.0  0.5202836003356809  0.9790478093296289  0.15602825228232578  1.0000
  C   C17       1.0  0.9944689536317031  0.5364708515406988  0.6850648905389464  1.0000
  C   C18       1.0  0.005510542366494101  0.46353026583022233  0.3149238027926772  1.0000
  C   C19       1.0  0.49449417740500934  0.9635299312577246  0.814926063973644  1.0000
  C   C20       1.0  0.5055138163374908  0.036476052791258005  0.18506458306569581  1.0000
  C   C21       1.0  0.0308937878800961  0.5884330035500583  0.6064644166589163  1.0000
  C   C22       1.0  0.9691112060535476  0.4115683053917181  0.39352585669737294  1.0000
  C   C23       1.0  0.5308860753882387  0.9115680794381474  0.8935258388554105  1.0000
  C   C24       1.0  0.46908592126809623  0.08844050557289758  0.10646716759757881  1.0000
  C   C25       1.0  0.010792015830901404  0.5324613251862971  0.5727602427047386  1.0000
  C   C26       1.0  0.9891874801838014  0.46754173885561573  0.4272292321159696  1.0000
  C   C27       1.0  0.5107835879907301  0.9675418790213185  0.9272284432766256  1.0000
  C   C28       1.0  0.4891839090482578  0.0324674398622093  0.07276297887565869  1.0000
  C   C29       1.0  0.9862885584252795  0.47691322843195394  0.5996443645631045  1.0000
  C   C30       1.0  0.013689437715612504  0.5230902983313898  0.40034510812590435  1.0000
  C   C31       1.0  0.48629497531563726  0.023089361182975682  0.900344415490565  1.0000
  C   C32       1.0  0.5136650223383229  0.9769186012242272  0.0996434558449337  1.0000
  C   C33       1.0  0.011447846163214601  0.529220596880009  0.5153719373955353  1.0000
  C   C34       1.0  0.9885436488555969  0.4707824833665342  0.48462148964657803  1.0000
  C   C35       1.0  0.5114296527240114  0.9707848892731618  0.9846202944561284  1.0000
  C   C36       1.0  0.488531844787346  0.029222945660706004  0.015370344077730597  1.0000
  C   C37       1.0  0.9667315898649493  0.4168005686521711  0.5120364317451943  1.0000
  C   C38       1.0  0.033225407973205306  0.5832051442446584  0.4879557974915727  1.0000
  C   C39       1.0  0.4667680941387148  0.08320781228840698  0.9879543183438955  1.0000
  C   C40       1.0  0.5332264007524474  0.9168032138037462  0.012035910235646  1.0000
  C   C41       1.0  0.9666487489125971  0.4208063443023918  0.5657605884828526  1.0000
  C   C42       1.0  0.03333224694420521  0.5791957626084425  0.43423244782024983  1.0000
  C   C43       1.0  0.4666724494442391  0.0791981432925652  0.9342285987220366  1.0000
  C   C44       1.0  0.533310046407543  0.9208113030646389  0.06576005622319771  1.0000
  C   C45       1.0  0.8112479816571894  0.09112029119670241  0.43308555555059053  1.0000
  C   C46       1.0  0.1887645114841163  0.9088780033946904  0.566925678896375  1.0000
  C   C47       1.0  0.3112410919080731  0.4088764995151735  0.06692310431103009  1.0000
  C   C48       1.0  0.6887564024485897  0.5911210928915409  0.9330861572287006  1.0000
  C   C49       1.0  0.8147059443331417  0.13014511031919082  0.3926831231102952  1.0000
  C   C50       1.0  0.18531854787863014  0.8698546999101922  0.6073253377337267  1.0000
  C   C51       1.0  0.3146975719362786  0.3698501803793732  0.1073207972615577  1.0000
  C   C52       1.0  0.6852924231107453  0.630153650664667  0.8926864593796537  1.0000
  C   C53       1.0  0.9804188801739928  0.1342343074146228  0.3591075621452901  1.0000
  C   C54       1.0  0.0195861135564002  0.865760875599797  0.6409009200338928  1.0000
  C   C55       1.0  0.4804234216202446  0.36575599587276736  0.14089699720018697  1.0000
  C   C56       1.0  0.5195725728301995  0.6342387244200082  0.8591114871162231  1.0000
  C   C57       1.0  0.15091626527011212  0.09612348529765309  0.3644070052279105  1.0000
  C   C58       1.0  0.8490962279239227  0.9038725907510639  0.635593568226895  1.0000
  C   C59       1.0  0.6509151537829397  0.4038722931495045  0.13559352826024454  1.0000
  C   C60       1.0  0.3490778409934664  0.5961292721798942  0.8644141340513514  1.0000
  C   C61       1.0  0.14696633806622122  0.05658799883595831  0.4045841387605904  1.0000
  C   C62       1.0  0.8530551543437428  0.943406992608459  0.5954227633718149  1.0000
  C   C63       1.0  0.6469442193608188  0.4434072533522766  0.0954235154668055  1.0000
  C   C64       1.0  0.3530442757123282  0.5565888072121297  0.9045845674465623  1.0000
  C   C65       1.0  0.9839750904337026  0.0541926002061643  0.43958130888786673  1.0000
  C   C66       1.0  0.016065900528950305  0.9458152678586487  0.5604286957332433  1.0000
  C   C67       1.0  0.48394964063211904  0.4458111383518713  0.06042713711423182  1.0000
  C   C68       1.0  0.516037354640794  0.5541913045277339  0.9395801259260282  1.0000
  C   C69       1.0  0.9950689519475162  0.015817036524680386  0.48139408486140667  1.0000
  C   C70       1.0  0.0050365338835618  0.9842037405702156  0.5186269266801772  1.0000
  C   C71       1.0  0.4950104934734086  0.4841952871373892  0.0186202383667577  1.0000
  C   C72       1.0  0.5049735020112324  0.5158037730142054  0.9813858545739365  1.0000
  C   C73       1.0  0.9556507755089572  0.4226684976088393  0.68609962060588  1.0000
  C   C74       1.0  0.044339219654638405  0.5773300983802868  0.3138835511168381  1.0000
  C   C75       1.0  0.45565069766016114  0.07733156937793952  0.813883670109469  1.0000
  C   C76       1.0  0.5443407974637468  0.9226733610338651  0.18609828672904172  1.0000
  C   C77       1.0  0.6332375316458824  0.08797079621977841  0.46885941042560125  1.0000
  C   C78       1.0  0.3668019593660078  0.9120351096901941  0.5311573221531347  1.0000
  C   C79       1.0  0.13321623887404854  0.4120293699802033  0.031150606990060205  1.0000
  C   C80       1.0  0.866761757173201  0.5879806363246587  0.9688617591914052  1.0000
  C   C81       1.0  0.33070251659658123  0.0943264785707427  0.32850694397235713  1.0000
  C   C82       1.0  0.6693249753121793  0.9056677311086291  0.671501147450435  1.0000
  C   C83       1.0  0.8306994205070171  0.4056646961779649  0.17149737375422802  1.0000
  C   C84       1.0  0.1692935742434969  0.5943351140507787  0.8285110871063779  1.0000
  O   O1        1.0  0.6384570148251001  0.1754081135393903  0.20860679088838202  1.0000
  O   O2        1.0  0.36153597978600527  0.8245825542497655  0.7914064548687846  1.0000
  O   O3        1.0  0.13846591169964031  0.3245794798133588  0.2914064408011541  1.0000
  O   O4        1.0  0.8615525809191029  0.6754116182890045  0.7085988983546513  1.0000
  O   O5        1.0  0.2972645607370908  0.3016808436256682  0.19445559251517613  1.0000
  O   O6        1.0  0.7027239343430126  0.6983127913419125  0.8055477588138658  1.0000
  O   O7        1.0  0.7972802651985518  0.1983159782061747  0.305549524840913  1.0000
  O   O8        1.0  0.20274872662093205  0.8016764439637997  0.6944514606746495  1.0000
  O   O9        1.0  0.2987104411593081  0.17641976683733424  0.2044069384445848  1.0000
  O   O10       1.0  0.7012915529303926  0.8235798673050708  0.7955924329272648  1.0000
  O   O11       1.0  0.7987066533387621  0.3235807406201872  0.2955942081116092  1.0000
  O   O12       1.0  0.20131333925368014  0.6764135641236423  0.7044032116605267  1.0000
  O   O13       1.0  0.1366315531775086  0.19956636299139058  0.30220006704678337  1.0000
  O   O14       1.0  0.8633944387937763  0.8004204748328477  0.6978045012784262  1.0000
  O   O15       1.0  0.636615169679736  0.3004138577109359  0.19779818180624892  1.0000
  O   O16       1.0  0.3633793248548685  0.6995713362809894  0.8022004656576699  1.0000
  O   O17       1.0  0.46520037860941  0.25753662662044263  0.2821720118546551  1.0000
  O   O18       1.0  0.5348271133245392  0.7424564977338832  0.7178309465768251  1.0000
  O   O19       1.0  0.965195877226016  0.2424589575541986  0.21783412010140074  1.0000
  O   O20       1.0  0.034809116456088404  0.7575315024604876  0.7821735933836323  1.0000
  F   F1        1.0  0.944463248792083  0.3659452125465776  0.5878751976640615  1.0000
  F   F2        1.0  0.05542625454103962  0.6340668030833214  0.412119373943021  1.0000
  F   F3        1.0  0.4445905176564865  0.13406626286265322  0.9121143758698408  1.0000
  F   F4        1.0  0.5554639724160071  0.8659449864892538  0.08787387549799769  1.0000
  F   F5        1.0  0.9434144894770995  0.3554213789563149  0.4135623443582261  1.0000
  F   F6        1.0  0.05659500412514262  0.6445844297267485  0.5864306748699518  1.0000
  F   F7        1.0  0.44337878108691353  0.1445881169430123  0.0864287276883005  1.0000
  F   F8        1.0  0.5565827164621311  0.8554235155476774  0.9135626838046915  1.0000
