data_image0
_chemical_formula_structural       Mg3H60C78N30
_chemical_formula_sum              "Mg3 H60 C78 N30"
_cell_length_a       10.25957205276897
_cell_length_b       16.013911226395035
_cell_length_c       16.01142819142713
_cell_angle_alpha    115.57313523148669
_cell_angle_beta     102.2991580823809
_cell_angle_gamma    102.35314407778213

_space_group_name_H-M_alt    "P 1"
_space_group_IT_number       1

loop_
  _space_group_symop_operation_xyz
  'x, y, z'

loop_
  _atom_site_type_symbol
  _atom_site_label
  _atom_site_symmetry_multiplicity
  _atom_site_fract_x
  _atom_site_fract_y
  _atom_site_fract_z
  _atom_site_occupancy
  Mg  Mg1       1.0  0.999998409190418  0.4999999442895414  1.0927606978810428e-06  1.0000
  Mg  Mg2       1.0  0.5000015966896852  0.4999991863400197  0.5000011400115127  1.0000
  Mg  Mg3       1.0  0.9999995990398527  0.9999981529508303  0.49999937410857576  1.0000
  H   H1        1.0  0.9935293846322463  0.5905575254098349  0.8575079406742528  1.0000
  H   H2        1.0  0.4024617331007789  0.26698172782299406  0.4094703079659466  1.0000
  H   H3        1.0  0.13557222351163026  0.14233738891816466  0.7329882059346744  1.0000
  H   H4        1.0  0.00647775591873765  0.409446752576869  0.1424986779039229  1.0000
  H   H5        1.0  0.5975434625662783  0.733016644988865  0.5905297494029182  1.0000
  H   H6        1.0  0.864427357373394  0.8576617218316611  0.267010772496654  1.0000
  H   H7        1.0  0.8511273244888286  0.6789362483567203  0.8009194292426967  1.0000
  H   H8        1.0  0.17152727229461104  0.12205869036063888  0.3209749133192047  1.0000
  H   H9        1.0  0.04963927788762846  0.19859719784365376  0.8779947046065499  1.0000
  H   H10       1.0  0.14888145097887656  0.32106729161332465  0.1990839732928719  1.0000
  H   H11       1.0  0.8284739399771225  0.8779396823460954  0.6790220976821643  1.0000
  H   H12       1.0  0.9503632958389047  0.8014019130246409  0.12200468568144625  1.0000
  H   H13       1.0  0.6665721353904313  0.7217213158103487  0.8749779805356607  1.0000
  H   H14       1.0  0.9443858840147711  0.153418196633325  0.2779865199096959  1.0000
  H   H15       1.0  0.7909807852056615  0.12463681438300259  0.8466564457105007  1.0000
  H   H16       1.0  0.33343464837961523  0.27828222410713005  0.12502389881615972  1.0000
  H   H17       1.0  0.05561807058161596  0.8465816525418502  0.7220083822954135  1.0000
  H   H18       1.0  0.20902278260469112  0.8753622964983591  0.15334433047568988  1.0000
  H   H19       1.0  0.7282711409046524  0.3993334577506146  0.2244349250522075  1.0000
  H   H20       1.0  0.32952509445166084  0.8254779946963139  0.6009053142687858  1.0000
  H   H21       1.0  0.5042167227523463  0.775348644987268  0.17465554976027392  1.0000
  H   H22       1.0  0.2717326482588759  0.6006700820351866  0.7755671667492617  1.0000
  H   H23       1.0  0.6704734958795412  0.17452111606686313  0.3990910296517071  1.0000
  H   H24       1.0  0.4957788623823091  0.22465046556496293  0.8253447524477975  1.0000
  H   H25       1.0  0.6191371137317104  0.3817006700899411  0.34399021210128916  1.0000
  H   H26       1.0  0.2378592692065168  0.9625584823845941  0.6185941892391253  1.0000
  H   H27       1.0  0.27558716905615904  0.6558332441276135  0.03751310379001877  1.0000
  H   H28       1.0  0.3808664540786423  0.6182984407914275  0.6560105640849015  1.0000
  H   H29       1.0  0.762130112421957  0.03743619905268499  0.3814027250276908  1.0000
  H   H30       1.0  0.7244057906079531  0.3441666044546351  0.9624877799498249  1.0000
  H   H31       1.0  0.4646111422697528  0.608536205465185  0.3762194088077492  1.0000
  H   H32       1.0  0.85661731692889  0.7677191566341502  0.39170500258718693  1.0000
  H   H33       1.0  0.08862577861073342  0.6238687416057329  0.23225173473436894  1.0000
  H   H34       1.0  0.5353880553592486  0.3914621670172521  0.6237841949920264  1.0000
  H   H35       1.0  0.14337683671061535  0.23227109613578276  0.6082894095731675  1.0000
  H   H36       1.0  0.911372534728528  0.3761318453092457  0.7677514531280067  1.0000
  H   H37       1.0  0.5640239996029803  0.6331722135373068  0.25522598292413057  1.0000
  H   H38       1.0  0.9314785955300733  0.6222069071178564  0.3671450659279924  1.0000
  H   H39       1.0  0.30890492178500023  0.7449374238173334  0.3778367209357254  1.0000
  H   H40       1.0  0.4359723149785991  0.3668283732722698  0.7447781789797713  1.0000
  H   H41       1.0  0.06852539176001211  0.37778703682934617  0.6328497927021173  1.0000
  H   H42       1.0  0.6910980140174771  0.25506242515982075  0.6221655356596684  1.0000
  H   H43       1.0  0.5867074586002584  0.6625970338140018  0.06514479692284396  1.0000
  H   H44       1.0  0.9239990921270331  0.40271202075396656  0.3373724046931768  1.0000
  H   H45       1.0  0.5211614845004104  0.9348614107667925  0.5972786118782946  1.0000
  H   H46       1.0  0.41329644035735663  0.33740872041740727  0.934858264839434  1.0000
  H   H47       1.0  0.07600521925029102  0.5972885664904338  0.662627236738295  1.0000
  H   H48       1.0  0.4788395693984953  0.06514065260341079  0.4027230914941525  1.0000
  H   H49       1.0  0.4919172464366423  0.6544597990666713  0.9531179566809979  1.0000
  H   H50       1.0  0.8373408688823929  0.29879604496255047  0.3455337879423581  1.0000
  H   H51       1.0  0.5383934885878573  0.04689343139474289  0.7012081992799466  1.0000
  H   H52       1.0  0.5080872827638387  0.34554521705574354  0.04688424897839372  1.0000
  H   H53       1.0  0.1626624466460951  0.701204542255567  0.6544650918972363  1.0000
  H   H54       1.0  0.46161328988716827  0.9531101084831093  0.29879555299083177  1.0000
  H   H55       1.0  0.6227305238057564  0.7679821641575371  0.04913824152772124  1.0000
  H   H56       1.0  0.8546088383375192  0.28129237433318366  0.23198458734189123  1.0000
  H   H57       1.0  0.5730053411781025  0.9508302782133808  0.7186581861355985  1.0000
  H   H58       1.0  0.37727437276569725  0.2320235901133571  0.9508649575201031  1.0000
  H   H59       1.0  0.14539148434945984  0.7187082127664649  0.7680138806410423  1.0000
  H   H60       1.0  0.42699634119866653  0.04917104703461208  0.2813432854402862  1.0000
  C   C1        1.0  0.9119577670546943  0.6117790428387335  0.8874242133832978  1.0000
  C   C2        1.0  0.29976382774701443  0.27573083923838476  0.3882496964537764  1.0000
  C   C3        1.0  0.024086205035757768  0.11241251068477706  0.724277635599165  1.0000
  C   C4        1.0  0.08804937526129196  0.38822523516117957  0.11258178088855417  1.0000
  C   C5        1.0  0.7002403720712136  0.7242675335471986  0.6117495993232109  1.0000
  C   C6        1.0  0.9759169936386269  0.8875858620348892  0.2757227715049096  1.0000
  C   C7        1.0  0.8331402715594078  0.6606066942687504  0.8565101248744611  1.0000
  C   C8        1.0  0.17204270157021276  0.19599180958785203  0.339309983083396  1.0000
  C   C9        1.0  0.976111669628885  0.14316068690090583  0.8040402083742106  1.0000
  C   C10       1.0  0.16686887127926286  0.33939758384978075  0.14349427104954052  1.0000
  C   C11       1.0  0.8279581433305477  0.804005824970396  0.6606860345295329  1.0000
  C   C12       1.0  0.023891532575504304  0.8568376858451782  0.19595895011721587  1.0000
  C   C13       1.0  0.7307909429839652  0.6840267848079403  0.8979527573922393  1.0000
  C   C14       1.0  0.04639751120563313  0.21406804348568892  0.31581217635242337  1.0000
  C   C15       1.0  0.8323053934035584  0.10175707915593787  0.7859822640476324  1.0000
  C   C16       1.0  0.26921620815705427  0.31597749325802466  0.10205011534802098  1.0000
  C   C17       1.0  0.9536060671947547  0.7859310674749408  0.6841848539958446  1.0000
  C   C18       1.0  0.16770116548330066  0.8982420318306905  0.21401954830154293  1.0000
  C   C19       1.0  0.7068329764743522  0.6595662877398495  0.9688542475147484  1.0000
  C   C20       1.0  0.047085472034218846  0.30947688490923037  0.3403902096339308  1.0000
  C   C21       1.0  0.73751288938967  0.03106502453731249  0.6905666761334075  1.0000
  C   C22       1.0  0.2931721776739805  0.34043799023393007  0.03114897496071471  1.0000
  C   C23       1.0  0.9529171052223259  0.6905222259854892  0.6596079320414244  1.0000
  C   C24       1.0  0.2624896772768323  0.9689340862781394  0.3094352113798705  1.0000
  C   C25       1.0  0.7908319745895154  0.6096324521822681  0.9955724742276144  1.0000
  C   C26       1.0  0.1811000601125342  0.386126245914518  0.3904824862704998  1.0000
  C   C27       1.0  0.7948895826637992  0.004466750681991998  0.6139046290952521  1.0000
  C   C28       1.0  0.209169815816331  0.3903710874981312  0.004430591615388686  1.0000
  C   C29       1.0  0.8189048797426466  0.6138736032076721  0.6095169233644029  1.0000
  C   C30       1.0  0.20511324334459838  0.9955308838495539  0.38609665753934025  1.0000
  C   C31       1.0  0.7791846694420598  0.5750380109357491  0.06590002095611405  1.0000
  C   C32       1.0  0.20429721114642505  0.49109418302511887  0.4252255539837505  1.0000
  C   C33       1.0  0.7130963181961005  0.9342144658433184  0.5089514832464131  1.0000
  C   C34       1.0  0.22081575421397293  0.42496479054345565  0.9341025385192194  1.0000
  C   C35       1.0  0.7957087245575847  0.5089056661233541  0.5747746172430297  1.0000
  C   C36       1.0  0.2869045143496293  0.06578316862245967  0.4910489045107481  1.0000
  C   C37       1.0  0.7236181810025427  0.5331721280313104  0.16490434430446027  1.0000
  C   C38       1.0  0.19094709204492935  0.6320225309409722  0.46714056580582025  1.0000
  C   C39       1.0  0.55881492510953  0.8351211120999192  0.36806556450276384  1.0000
  C   C40       1.0  0.27638335006141534  0.46683288793300176  0.8350993224172283  1.0000
  C   C41       1.0  0.809057116598332  0.3679758419106562  0.5328556084395684  1.0000
  C   C42       1.0  0.4411839122085296  0.1648765222868746  0.6319345486832899  1.0000
  C   C43       1.0  0.6564734301198242  0.519022636655613  0.23134973677353785  1.0000
  C   C44       1.0  0.13804053122395724  0.7126145686953574  0.48128538577725494  1.0000
  C   C45       1.0  0.4253280209614869  0.7686323638675815  0.287476989955813  1.0000
  C   C46       1.0  0.34352736090717423  0.480980902972078  0.7686538160902285  1.0000
  C   C47       1.0  0.8619636809493157  0.28738380418269566  0.5187095398555002  1.0000
  C   C48       1.0  0.5746671932721907  0.23136600850973812  0.7125235674764595  1.0000
  C   C49       1.0  0.6694155186254988  0.44629237258882154  0.2561310019424282  1.0000
  C   C50       1.0  0.22366995871615084  0.8101570559068277  0.5539870484758963  1.0000
  C   C51       1.0  0.41359503344433063  0.7437167986031522  0.18993548607199504  1.0000
  C   C52       1.0  0.33058653465224797  0.5537096908340828  0.7438702144092486  1.0000
  C   C53       1.0  0.7763265283583038  0.1898398403449661  0.44600742660637127  1.0000
  C   C54       1.0  0.5863981908566912  0.2562815737348174  0.8100629238702053  1.0000
  C   C55       1.0  0.609100860969015  0.43667765156460076  0.3225049194063131  1.0000
  C   C56       1.0  0.1728790448883257  0.8860826706909888  0.5635984752277421  1.0000
  C   C57       1.0  0.28695200569099183  0.6773470862640208  0.11398546164937061  1.0000
  C   C58       1.0  0.39090144988561776  0.5633229355611816  0.6774963203730023  1.0000
  C   C59       1.0  0.827115439898428  0.11391422542898508  0.43639822250869276  1.0000
  C   C60       1.0  0.7130439468146361  0.32265276243670366  0.8860158339471338  1.0000
  C   C61       1.0  0.5226000907986046  0.5627820117650584  0.3401994145984444  1.0000
  C   C62       1.0  0.9603455176856738  0.7775466883508029  0.43749454771974394  1.0000
  C   C63       1.0  0.18265409009838143  0.6598350558400056  0.222479771730569  1.0000
  C   C64       1.0  0.4773998468673496  0.4372178370539927  0.6598043030592391  1.0000
  C   C65       1.0  0.03965211302040925  0.22244651718453665  0.5624997424212309  1.0000
  C   C66       1.0  0.8173438558699072  0.3401647929264869  0.7775224227433666  1.0000
  C   C67       1.0  0.5780340905862075  0.5767951931859371  0.273382333287145  1.0000
  C   C68       1.0  0.0018148145770096674  0.6967788133061672  0.42350271982281357  1.0000
  C   C69       1.0  0.3048218206244113  0.7266650841874946  0.30326999731393284  1.0000
  C   C70       1.0  0.42196422098804476  0.42320539371583266  0.7266214788815473  1.0000
  C   C71       1.0  0.9981838190379262  0.3032143923082983  0.5764898346847571  1.0000
  C   C72       1.0  0.6951767555867504  0.27333402646999616  0.6967313410571235  1.0000
  C   C73       1.0  0.595915112064489  0.6873266927321282  0.012105676384585602  1.0000
  C   C74       1.0  0.9084500130246624  0.32495771360927955  0.31263487192691736  1.0000
  C   C75       1.0  0.5833302797013997  0.9878648097041135  0.6750526182844039  1.0000
  C   C76       1.0  0.40409015187793046  0.31267979968725956  0.987898516051679  1.0000
  C   C77       1.0  0.09155492859552058  0.6750421355261195  0.6873639134016682  1.0000
  C   C78       1.0  0.41667239852419863  0.012136515570162498  0.3249496148833515  1.0000
  N   N1        1.0  0.8913699693087125  0.5871755604457218  0.9548399197589601  1.0000
  N   N2        1.0  0.30398920508277866  0.36778418162266746  0.4129324654379046  1.0000
  N   N3        1.0  0.9361683738695277  0.0451859772866996  0.632210314315266  1.0000
  N   N4        1.0  0.1086334454238268  0.41282724113874264  0.045163675879358156  1.0000
  N   N5        1.0  0.6960149947354491  0.6322141911629086  0.5870668303390827  1.0000
  N   N6        1.0  0.0638324622062142  0.9548116572054964  0.3677888248292615  1.0000
  N   N7        1.0  0.8594341670191735  0.5208732090844421  0.0788123866727018  1.0000
  N   N8        1.0  0.33878076053276357  0.5581186900929751  0.47943634127319956  1.0000
  N   N9        1.0  0.7806377833039588  0.921221333329349  0.44193157462152033  1.0000
  N   N10       1.0  0.1405635231372456  0.4791281159923812  0.9211891600672782  1.0000
  N   N11       1.0  0.661221807898748  0.44188042073568545  0.5205649219337543  1.0000
  N   N12       1.0  0.21935931989332147  0.07877482470776437  0.5580670388084242  1.0000
  N   N13       1.0  0.8236480723803368  0.49322798749949465  0.14147374174213195  1.0000
  N   N14       1.0  0.33087627191161295  0.6484685337485769  0.507097331449472  1.0000
  N   N15       1.0  0.68235453865244  0.858482630515617  0.3515985809705666  1.0000
  N   N16       1.0  0.17635072165398902  0.5067755520360107  0.858530160856844  1.0000
  N   N17       1.0  0.6691275605356494  0.35152910088851286  0.4929009709390754  1.0000
  N   N18       1.0  0.3176436719527658  0.1415157420065967  0.6484011397057259  1.0000
  N   N19       1.0  0.693429052995121  0.5852743738330017  0.12007029446549194  1.0000
  N   N20       1.0  0.1084916779211297  0.5351079145210489  0.41501408600138473  1.0000
  N   N21       1.0  0.5732155415901019  0.8800651305779751  0.4649777450326692  1.0000
  N   N22       1.0  0.30657284543980967  0.41473138027979656  0.8799343656446293  1.0000
  N   N23       1.0  0.8915135336309774  0.4648904584097052  0.5849803526106002  1.0000
  N   N24       1.0  0.42678466247776464  0.11993324201001337  0.5350228745210613  1.0000
  N   N25       1.0  0.5385889908353503  0.4948424702155376  0.3661678125097153  1.0000
  N   N26       1.0  0.04419248444595049  0.8714873421233233  0.5054263099790786  1.0000
  N   N27       1.0  0.1727545317917957  0.6337738777919808  0.12855006529083096  1.0000
  N   N28       1.0  0.4614112097025041  0.5051559023460255  0.6338340556566491  1.0000
  N   N29       1.0  0.9558021481236095  0.1285058632539204  0.49456944122419333  1.0000
  N   N30       1.0  0.8272421589857828  0.3662274472321413  0.8714519684699126  1.0000
