data_image0
_chemical_formula_structural       Zn4H24C16S4N4
_chemical_formula_sum              "Zn4 H24 C16 S4 N4"
_cell_length_a       6.1548721210404675
_cell_length_b       6.442316865226723
_cell_length_c       12.769868688374467
_cell_angle_alpha    104.58719641691287
_cell_angle_beta     90.00016965068704
_cell_angle_gamma    90.0003714565772

_space_group_name_H-M_alt    "P 1"
_space_group_IT_number       1

loop_
  _space_group_symop_operation_xyz
  'x, y, z'

loop_
  _atom_site_type_symbol
  _atom_site_label
  _atom_site_symmetry_multiplicity
  _atom_site_fract_x
  _atom_site_fract_y
  _atom_site_fract_z
  _atom_site_occupancy
  Zn  Zn1       1.0  0.7856107996730158  0.9257605503929867  0.5618583359297986  1.0000
  Zn  Zn2       1.0  0.28561315288781935  0.07424080615673741  0.4381390144366648  1.0000
  Zn  Zn3       1.0  0.7857382962386338  0.3639033301811451  0.43818283260129215  1.0000
  Zn  Zn4       1.0  0.2857391140819273  0.6361012256539169  0.5618157166521414  1.0000
  H   H1        1.0  0.7160485703468423  0.12387102619701548  0.9999784174301636  1.0000
  H   H2        1.0  0.2160612002620254  0.8761266637498223  1.6822818054194788e-05  1.0000
  H   H3        1.0  0.09787515402719996  0.1003632407604726  0.6834525241716702  1.0000
  H   H4        1.0  0.5978803965276711  0.8996399687350448  0.3165503664107021  1.0000
  H   H5        1.0  0.09796091177730659  0.4170454590152702  0.31646778213019633  1.0000
  H   H6        1.0  0.597968484778498  0.5829577981132417  0.6835311991907531  1.0000
  H   H7        1.0  0.9121673829269877  0.2915051531882754  0.6988554726491286  1.0000
  H   H8        1.0  0.41216662121829006  0.7084954401843221  0.30114425075635143  1.0000
  H   H9        1.0  0.9120709922764545  0.5926260689667585  0.3010220301563109  1.0000
  H   H10       1.0  0.41207291857442374  0.4073793543013339  0.6989767544520474  1.0000
  H   H11       1.0  0.8664207557031387  0.9038138255599935  0.7815049086220753  1.0000
  H   H12       1.0  0.3664296255532092  0.09618647255332043  0.21849316579848474  1.0000
  H   H13       1.0  0.8661216601897263  0.12231427952293931  0.2186850740464337  1.0000
  H   H14       1.0  0.3661373196902744  0.8776891867535284  0.7813165441281312  1.0000
  H   H15       1.0  0.6883510480061615  0.1235920507203119  0.809528938497479  1.0000
  H   H16       1.0  0.18836033359944074  0.8764054584447506  0.19046546826332636  1.0000
  H   H17       1.0  0.6882663771625273  0.31416532925150886  0.19048544195030098  1.0000
  H   H18       1.0  0.18827928212029116  0.6858401518645253  0.8095139159949909  1.0000
  H   H19       1.0  0.28136664594661903  0.24513670083764794  0.8259833372602401  1.0000
  H   H20       1.0  0.7813697216443667  0.7548565599810004  0.17401687270804436  1.0000
  H   H21       1.0  0.2814312574595305  0.41845703645304877  0.17409527298184457  1.0000
  H   H22       1.0  0.7814432121232567  0.5815394232549168  0.8259061357659546  1.0000
  H   H23       1.0  0.4697918147104757  0.3926818650989432  5.749914105729537e-05  1.0000
  H   H24       1.0  0.9697939747000953  0.6073142463619802  0.9999471796630884  1.0000
  C   C1        1.0  0.8822756800632302  0.18325679382491702  2.2562826912990157e-06  1.0000
  C   C2        1.0  0.3822861642754134  0.8167435943430162  0.9999974114459462  1.0000
  C   C3        1.0  0.9845202184911553  0.17463596185523758  0.901076212423753  1.0000
  C   C4        1.0  0.48453003358667956  0.8253603354256286  0.0989214568640264  1.0000
  C   C5        1.0  0.9845011018088953  0.2731586636350158  0.09894568803998278  1.0000
  C   C6        1.0  0.484516655708745  0.726840813135027  0.9010547436377434  1.0000
  C   C7        1.0  0.8610806754781846  0.08017121694399519  0.7979079035310547  1.0000
  C   C8        1.0  0.3610887365055858  0.9198290445003252  0.20209016094034377  1.0000
  C   C9        1.0  0.8609522708399024  0.282195961618065  0.20215389801749234  1.0000
  C   C10       1.0  0.3609653081454951  0.7178074973768817  0.7978453648701984  1.0000
  C   C11       1.0  0.19747408282350415  0.2508916103551329  0.9020047843006365  1.0000
  C   C12       1.0  0.697478132695636  0.7491075277150899  0.09799297537301042  1.0000
  C   C13       1.0  0.19748745021200872  0.34849148503477073  0.09806676921412821  1.0000
  C   C14       1.0  0.6974956351438163  0.6515012092748833  0.9019325026098953  1.0000
  C   C15       1.0  0.3038466506803558  0.33459328366668467  5.0979222528695484e-05  1.0000
  C   C16       1.0  0.8038524707619243  0.6654049244334244  0.9999514615465087  1.0000
  S   S1        1.0  0.9152002142750674  0.009938600597941204  0.4077844544599926  1.0000
  S   S2        1.0  0.41520215316503334  0.9900668535633843  0.5922135540933482  1.0000
  S   S3        1.0  0.915298906142233  0.6022087958443267  0.5921888656017416  1.0000
  S   S4        1.0  0.41529680406693353  0.39779664957353594  0.4078099250163731  1.0000
  N   N1        1.0  0.9348350433052345  0.13338373948567286  0.6984653138572269  1.0000
  N   N2        1.0  0.43483865182618325  0.8666186228617222  0.3015338782798977  1.0000
  N   N3        1.0  0.9348962563531555  0.43495718441138115  0.30147298863227684  1.0000
  N   N4        1.0  0.43490254292125025  0.5650468010911852  0.698524848235131  1.0000
