data_image0
_chemical_formula_structural       Na12H78C90N6O30
_chemical_formula_sum              "Na12 H78 C90 N6 O30"
_cell_length_a       8.45468400403119
_cell_length_b       18.260250076998634
_cell_length_c       18.259438333140412
_cell_angle_alpha    120.00680777063927
_cell_angle_beta     90.0002966113645
_cell_angle_gamma    89.99992630396542

_space_group_name_H-M_alt    "P 1"
_space_group_IT_number       1

loop_
  _space_group_symop_operation_xyz
  'x, y, z'

loop_
  _atom_site_type_symbol
  _atom_site_label
  _atom_site_symmetry_multiplicity
  _atom_site_fract_x
  _atom_site_fract_y
  _atom_site_fract_z
  _atom_site_occupancy
  Na  Na1       1.0  0.8251933006924685  0.7235788720725865  0.36070475778771555  1.0000
  Na  Na2       1.0  0.15879075314521882  0.6370848595140615  0.27636701460322416  1.0000
  Na  Na3       1.0  0.4920609303519753  0.6392926477878474  0.3630672474191955  1.0000
  Na  Na4       1.0  0.3251909565286723  0.27641914352720687  0.639294350595293  1.0000
  Na  Na5       1.0  0.6587933664501546  0.3629137399419093  0.7236298123605281  1.0000
  Na  Na6       1.0  0.9920554922207853  0.36070377355610367  0.6369318681756229  1.0000
  Na  Na7       1.0  0.8237251634998232  0.5078111565043457  0.2516140669327954  1.0000
  Na  Na8       1.0  0.1567751706628258  0.7437641590109862  0.49218961521992105  1.0000
  Na  Na9       1.0  0.4901464593623359  0.7483979368682228  0.25641923579473785  1.0000
  Na  Na10      1.0  0.3237210773612844  0.4921890487126603  0.748387228167367  1.0000
  Na  Na11      1.0  0.6567685850501589  0.25623513344073257  0.5078097977602811  1.0000
  Na  Na12      1.0  0.9901519612624838  0.2516019383844893  0.743580800521386  1.0000
  H   H1        1.0  0.894586281254476  0.48900793776767426  0.4254421524399491  1.0000
  H   H2        1.0  0.2281177145297448  0.9366177117996984  0.5108909101491507  1.0000
  H   H3        1.0  0.5617154216886746  0.5747326052517038  0.06364651989652975  1.0000
  H   H4        1.0  0.394587314458235  0.510995231864719  0.5745597207553887  1.0000
  H   H5        1.0  0.7281007998283683  0.0633835570077964  0.4891024025605903  1.0000
  H   H6        1.0  0.061694675636069  0.42526890891389274  0.9363492317511234  1.0000
  H   H7        1.0  0.546744044506795  0.6170933009854238  0.7514878498688236  1.0000
  H   H8        1.0  0.8793913980340021  0.13412337061371457  0.38262263763201093  1.0000
  H   H9        1.0  0.21362332461603728  0.24876218979976966  0.8657797313655566  1.0000
  H   H10       1.0  0.04675127425438319  0.3828995402941047  0.2485099485526021  1.0000
  H   H11       1.0  0.3794014052142103  0.8658784599359278  0.6173772334219196  1.0000
  H   H12       1.0  0.7136207183818897  0.7512380742702263  0.13422329744284406  1.0000
  H   H13       1.0  0.6607956962144215  0.7617333450185342  0.5878464356986586  1.0000
  H   H14       1.0  0.9943720756764305  0.8258860699500944  0.23808878521844434  1.0000
  H   H15       1.0  0.32831427197705654  0.4123145272960826  0.17401682746194783  1.0000
  H   H16       1.0  0.1607933040365879  0.23826866680682468  0.412160131369376  1.0000
  H   H17       1.0  0.49439265782604735  0.17411631564137764  0.7619131376957217  1.0000
  H   H18       1.0  0.8283103130876697  0.5876993564203657  0.8259861409810016  1.0000
  H   H19       1.0  0.45457274429060124  0.762338678625099  0.8037464909669441  1.0000
  H   H20       1.0  0.7870218037231423  0.04092395810675243  0.2374600448145047  1.0000
  H   H21       1.0  0.12150574318594211  0.19657803164324855  0.9588367243578093  1.0000
  H   H22       1.0  0.9545745842734733  0.2376587235105418  0.19625479450959202  1.0000
  H   H23       1.0  0.28703553225420825  0.9590767877934284  0.7625372904076574  1.0000
  H   H24       1.0  0.6214877708518003  0.8034295326891652  0.041169624831923136  1.0000
  H   H25       1.0  0.5086972123786566  0.8355962417325812  0.7208084986105876  1.0000
  H   H26       1.0  0.841813548737235  0.8848088378585218  0.1641943161639008  1.0000
  H   H27       1.0  0.17597017015317107  0.27944001738373464  0.11500220530385265  1.0000
  H   H28       1.0  0.008694729901435496  0.16440864080337994  0.2791968381077298  1.0000
  H   H29       1.0  0.34183629235447194  0.11519030877440165  0.8358015303423728  1.0000
  H   H30       1.0  0.6759523114644495  0.7205742921781209  0.8850008814972342  1.0000
  H   H31       1.0  0.8465897735901391  0.4169063335988454  0.5080007760481423  1.0000
  H   H32       1.0  0.18009735844646704  0.09125858552386751  0.5828069301570268  1.0000
  H   H33       1.0  0.5134877821310084  0.49219650157510847  0.9089856545288557  1.0000
  H   H34       1.0  0.3465849651951131  0.5830925629720768  0.4919986241563026  1.0000
  H   H35       1.0  0.6800797190529622  0.9087431079503006  0.4171879750270834  1.0000
  H   H36       1.0  0.013475186043144996  0.5078059225031596  0.09100901264812226  1.0000
  H   H37       1.0  0.802144441678898  0.41232961315841987  0.053548992726568684  1.0000
  H   H38       1.0  0.13546930571120439  0.6410556114302252  0.587534800458748  1.0000
  H   H39       1.0  0.4688910861583507  0.9464765608593951  0.35904782528493967  1.0000
  H   H40       1.0  0.3021422914249142  0.587667181652968  0.9464545395438793  1.0000
  H   H41       1.0  0.6354661160123738  0.358941366232358  0.4124679458969568  1.0000
  H   H42       1.0  0.9689137297781014  0.05352563510545146  0.6409563860059537  1.0000
  H   H43       1.0  0.6059834848439819  0.2620506726265506  0.8940186081482582  1.0000
  H   H44       1.0  0.9382748435167371  0.6323897222809903  0.7378022004535583  1.0000
  H   H45       1.0  0.2732634379121563  0.10587819065678158  0.3678351417413169  1.0000
  H   H46       1.0  0.1059858064102386  0.7379489576554406  0.10598356960192491  1.0000
  H   H47       1.0  0.4382810836531803  0.36761175457844797  0.2621993328217159  1.0000
  H   H48       1.0  0.7732730587331531  0.8941220811632673  0.632160426894707  1.0000
  H   H49       1.0  0.8081860933796604  0.23169254733031144  0.8686547920645682  1.0000
  H   H50       1.0  0.1403634578598201  0.6367133366128712  0.7681283806014039  1.0000
  H   H51       1.0  0.4754802781647882  0.1313383575911899  0.36306633594474397  1.0000
  H   H52       1.0  0.30818743087180417  0.7683045908094288  0.13134403686855484  1.0000
  H   H53       1.0  0.6403677173031568  0.36328781734813737  0.23187349318862271  1.0000
  H   H54       1.0  0.9754852898120489  0.8686636344334602  0.6369326258078731  1.0000
  H   H55       1.0  0.7534189594550538  0.34120803378311854  0.9208425204908794  1.0000
  H   H56       1.0  0.08552941852412492  0.579593144508074  0.6586142145787264  1.0000
  H   H57       1.0  0.42040468771836703  0.07923045319897434  0.4204643713412538  1.0000
  H   H58       1.0  0.25341410184192625  0.6587886597660244  0.07915765036980824  1.0000
  H   H59       1.0  0.5855347366207295  0.42040724865086077  0.34138931714949905  1.0000
  H   H60       1.0  0.920417201374377  0.9207749502140173  0.579535361309013  1.0000
  H   H61       1.0  0.6266766627584273  0.1746943052089164  0.964003288508863  1.0000
  H   H62       1.0  0.9608129176415118  0.7895736033994609  0.8252668393718425  1.0000
  H   H63       1.0  0.2948885433273176  0.0357546859526892  0.21048258320006857  1.0000
  H   H64       1.0  0.12667560620567286  0.8253038054859091  0.03599172013922212  1.0000
  H   H65       1.0  0.46082216324791136  0.2104231937422938  0.17473069189926355  1.0000
  H   H66       1.0  0.794890255447825  0.9642437061950843  0.7895149435025388  1.0000
  H   H67       1.0  0.7051642177131895  0.22923518555366232  0.06960171640890422  1.0000
  H   H68       1.0  0.03974204856764629  0.840438340977343  0.7706198606419365  1.0000
  H   H69       1.0  0.37359844676606  0.930195717659366  0.15965667774612052  1.0000
  H   H70       1.0  0.2051661239345464  0.7707570878190284  0.9303939367554439  1.0000
  H   H71       1.0  0.5397503813856588  0.159559994016611  0.22937899101091835  1.0000
  H   H72       1.0  0.8735996002684698  0.06980421128826449  0.8403450741034107  1.0000
  H   H73       1.0  0.833707568078651  0.17010289279168925  0.9817399200256889  1.0000
  H   H74       1.0  0.1680535379625779  0.8114325692835465  0.829627641849797  1.0000
  H   H75       1.0  0.5021025770660045  0.01815382521501619  0.18859401425843464  1.0000
  H   H76       1.0  0.3337086680785575  0.8298930234508576  0.01825584140777883  1.0000
  H   H77       1.0  0.66806468652873  0.18856892298801853  0.17037399379723445  1.0000
  H   H78       1.0  0.0021014092731589996  0.9818446265840067  0.8114067753008316  1.0000
  C   C1        1.0  0.8055764360808124  0.6440094119815641  0.4609493171063265  1.0000
  C   C2        1.0  0.1387606336228373  0.8169090099824244  0.356013073098737  1.0000
  C   C3        1.0  0.4726128613305036  0.5392915345565257  0.18322527025045335  1.0000
  C   C4        1.0  0.305582227413133  0.35598919791944894  0.5390535078057825  1.0000
  C   C5        1.0  0.6387652177005804  0.1830866657163669  0.6439833190318824  1.0000
  C   C6        1.0  0.9725996826250591  0.4607124367563317  0.8167706061695699  1.0000
  C   C7        1.0  0.7765254343166319  0.6034321890752138  0.5142034822087993  1.0000
  C   C8        1.0  0.1097708830279842  0.9107691998578602  0.3964808704272898  1.0000
  C   C9        1.0  0.4437432091428875  0.4860114206863031  0.08935241000778403  1.0000
  C   C10       1.0  0.27653170820364176  0.39656694528861175  0.4857998085466592  1.0000
  C   C11       1.0  0.6097717249516279  0.08923077194751973  0.6035165976256353  1.0000
  C   C12       1.0  0.9437226467361269  0.5139936229292915  0.910644480469863  1.0000
  C   C13       1.0  0.6584980585210471  0.6032560138911478  0.6386923733345925  1.0000
  C   C14       1.0  0.9916654678099731  0.03529570962222559  0.3964646577632963  1.0000
  C   C15       1.0  0.3254918865830234  0.361549321991255  0.9647178601716038  1.0000
  C   C16       1.0  0.15849822128558336  0.39674553302319987  0.36131245945534124  1.0000
  C   C17       1.0  0.49166913960442576  0.9647000167975579  0.6035318650201379  1.0000
  C   C18       1.0  0.8254849415737054  0.6384581962934419  0.035283795824845865  1.0000
  C   C19       1.0  0.6921134286953573  0.6464278883105122  0.592319071977876  1.0000
  C   C20       1.0  0.025352302727405598  0.9457537449639021  0.3533756972104528  1.0000
  C   C21       1.0  0.3593815998745099  0.4078881740576961  0.05425121722481658  1.0000
  C   C22       1.0  0.19213432964374275  0.3535702523964872  0.4076805252950849  1.0000
  C   C23       1.0  0.5253454377948682  0.054245063923090815  0.6466204374943844  1.0000
  C   C24       1.0  0.8593458384402621  0.5921174120659883  0.9457492072852391  1.0000
  C   C25       1.0  0.8305498748033528  0.5219839134116314  0.485145703065328  1.0000
  C   C26       1.0  0.1638939243833946  0.9632309882232877  0.47788861455703846  1.0000
  C   C27       1.0  0.49758285723490286  0.5150825698726181  0.03694435971442539  1.0000
  C   C28       1.0  0.3305491530747632  0.47801802498302964  0.5148560743236248  1.0000
  C   C29       1.0  0.6638798131749938  0.03676588758978028  0.5221077637142885  1.0000
  C   C30       1.0  0.9975735994219831  0.484919399868403  0.9630470360401023  1.0000
  C   C31       1.0  0.5724360708068231  0.6485004663997245  0.7157103364835822  1.0000
  C   C32       1.0  0.9052621815882487  0.06694038111291437  0.35123111012740094  1.0000
  C   C33       1.0  0.23940344094694407  0.28454659406970256  0.9329688132120425  1.0000
  C   C34       1.0  0.0724343200320874  0.35149513391527176  0.2842902729019202  1.0000
  C   C35       1.0  0.40527708549515745  0.9330536107767102  0.6487679302069226  1.0000
  C   C36       1.0  0.7393990044292592  0.715459675341407  0.06703268483691009  1.0000
  C   C37       1.0  0.6362438681466569  0.7303587208790105  0.6239682455620754  1.0000
  C   C38       1.0  0.9695149309534585  0.8933574254198575  0.26946578820687955  1.0000
  C   C39       1.0  0.3035584386839644  0.3762267610125675  0.10652753743606523  1.0000
  C   C40       1.0  0.1362480872119818  0.2696448521164001  0.37603667137841523  1.0000
  C   C41       1.0  0.4695282517814832  0.10664453950304417  0.730537560925754  1.0000
  C   C42       1.0  0.8035385709309111  0.6237837943753135  0.8934764791117048  1.0000
  C   C43       1.0  0.5212065297718523  0.7302320784422349  0.7446600328807025  1.0000
  C   C44       1.0  0.8539458674579591  0.014046796161487416  0.26954206093083855  1.0000
  C   C45       1.0  0.18822977265401866  0.25562184218416933  0.9857705202866713  1.0000
  C   C46       1.0  0.021195217724567793  0.26976487011782513  0.2553456155355606  1.0000
  C   C47       1.0  0.3539733608836215  0.9859503785880576  0.7304568969994635  1.0000
  C   C48       1.0  0.6882223069984333  0.7443894002023016  0.014234582876547174  1.0000
  C   C49       1.0  0.5523723738371941  0.7716994849468152  0.6985267151486813  1.0000
  C   C50       1.0  0.8854204434990222  0.9264743838339912  0.228093626556273  1.0000
  C   C51       1.0  0.219555216496083  0.3017211398978432  0.07336895826868786  1.0000
  C   C52       1.0  0.05237114772210559  0.2283001647445815  0.30147853559719107  1.0000
  C   C53       1.0  0.38544022649540466  0.07352494458866228  0.7719043868343436  1.0000
  C   C54       1.0  0.7195461590642864  0.6982976707354994  0.9266374529983141  1.0000
  C   C55       1.0  0.8019057099146493  0.4808072052471601  0.5313629488424427  1.0000
  C   C56       1.0  0.13520596749553696  0.05061894625912097  0.5189584577067948  1.0000
  C   C57       1.0  0.46880038375405053  0.46886083307196463  0.949547249493776  1.0000
  C   C58       1.0  0.30189963322481356  0.5191954048468548  0.4686413395236287  1.0000
  C   C59       1.0  0.6352054842757225  0.949379171257803  0.48103657497940605  1.0000
  C   C60       1.0  0.9687820701722457  0.5311372574246249  0.05044463531307035  1.0000
  C   C61       1.0  0.7137916003402011  0.5178801327806467  0.6054868125573877  1.0000
  C   C62       1.0  0.047030920053799684  0.08759324957030393  0.48183391684536053  1.0000
  C   C63       1.0  0.3806562396721347  0.3947260199040486  0.9125068694397387  1.0000
  C   C64       1.0  0.21379071670146738  0.48211673827881185  0.39451851471407917  1.0000
  C   C65       1.0  0.5470392279939702  0.912410590567667  0.5181660283118958  1.0000
  C   C66       1.0  0.8806416838132448  0.6052732200707069  0.08749231056820861  1.0000
  C   C67       1.0  0.6765663672315867  0.46302277500993233  0.6436541531148665  1.0000
  C   C68       1.0  0.009777192090176398  0.1806051995269371  0.5366680032219124  1.0000
  C   C69       1.0  0.34315467027076346  0.3565441801918467  0.8195040078901032  1.0000
  C   C70       1.0  0.17656372903146428  0.5369744670600838  0.3563495729647032  1.0000
  C   C71       1.0  0.5097721341543745  0.8193952399976824  0.4633297307344863  1.0000
  C   C72       1.0  0.8431587831002999  0.6434544820980221  0.18049451874285444  1.0000
  C   C73       1.0  0.7945073972356697  0.35913789801301743  0.06619693296038784  1.0000
  C   C74       1.0  0.1282770483811788  0.7069124049220433  0.6407356053334183  1.0000
  C   C75       1.0  0.4616213951836696  0.9337934619299588  0.29318419855319183  1.0000
  C   C76       1.0  0.29450614531562985  0.6408554975446777  0.9338088757749933  1.0000
  C   C77       1.0  0.6282758133342127  0.2930851993105748  0.35926648837786973  1.0000
  C   C78       1.0  0.9616435515234655  0.0662095697452826  0.7068246279547311  1.0000
  C   C79       1.0  0.7285239380747299  0.2798353735454384  0.9156581894497436  1.0000
  C   C80       1.0  0.0610130949328038  0.6358528900896304  0.7200128898536138  1.0000
  C   C81       1.0  0.3958286426990369  0.08432453908814347  0.3641887550487866  1.0000
  C   C82       1.0  0.22851897141507746  0.7201610685550791  0.0843410473483318  1.0000
  C   C83       1.0  0.5610190680279671  0.3641474834610463  0.2799905727835679  1.0000
  C   C84       1.0  0.8958394282487345  0.9156782530911586  0.635810213762824  1.0000
  C   C85       1.0  0.7276460888959163  0.21064472959413647  0.0035015848478749845  1.0000
  C   C86       1.0  0.06181873611911469  0.7929060189714789  0.7892340860327425  1.0000
  C   C87       1.0  0.3958407288806853  0.996345635747737  0.20716157158866377  1.0000
  C   C88       1.0  0.22765695661914254  0.7893484256223715  0.9964943632128823  1.0000
  C   C89       1.0  0.5618290992736305  0.20709224905685628  0.21076600793175973  1.0000
  C   C90       1.0  0.8958474492772125  0.003652667897711141  0.7928385998091304  1.0000
  N   N1        1.0  0.7499527429549813  0.28636607282521703  0.9978154707067691  1.0000
  N   N2        1.0  0.08346796476654819  0.7114071995377954  0.7135075760358519  1.0000
  N   N3        1.0  0.41749324946089666  0.002140949627680337  0.2886595958255215  1.0000
  N   N4        1.0  0.2499492491409754  0.7136324925834289  0.002187197433421811  1.0000
  N   N5        1.0  0.5834706665763889  0.28859131734002136  0.2864934428330131  1.0000
  N   N6        1.0  0.917507014605725  0.9978606798607216  0.7113395187091957  1.0000
  O   O1        1.0  0.7396398496326382  0.6081552107999285  0.3880744136584653  1.0000
  O   O2        1.0  0.0726223967932853  0.7800346488643229  0.39196383194884304  1.0000
  O   O3        1.0  0.40621663626667737  0.6120317812142559  0.22020200260755035  1.0000
  O   O4        1.0  0.23964043738299518  0.3918420194286939  0.6119262660918496  1.0000
  O   O5        1.0  0.5726193857982053  0.21996426012131562  0.6080356600657951  1.0000
  O   O6        1.0  0.9062162556907579  0.38796865922951435  0.7797971647910985  1.0000
  O   O7        1.0  0.8907198403919594  0.7093140739077697  0.4892844881743272  1.0000
  O   O8        1.0  0.22394268973597056  0.779809567422575  0.29073089609556063  1.0000
  O   O9        1.0  0.5578416005299758  0.5110502810021202  0.22024273517612872  1.0000
  O   O10       1.0  0.39072431210558267  0.29068492025253795  0.5107182604983296  1.0000
  O   O11       1.0  0.7239431655006923  0.22018272096884334  0.7092648099883123  1.0000
  O   O12       1.0  0.057823677448013186  0.4889510208629915  0.7797477374751768  1.0000
  O   O13       1.0  0.747416954222018  0.391287212607928  0.6116735905989972  1.0000
  O   O14       1.0  0.08059271930694219  0.22040293053376572  0.608426420001223  1.0000
  O   O15       1.0  0.4143504435826486  0.38822387112758616  0.7795662360057423  1.0000
  O   O16       1.0  0.2474192068939586  0.6087086969083515  0.3883251517393234  1.0000
  O   O17       1.0  0.5805952535844696  0.7795924447695768  0.39157334847416086  1.0000
  O   O18       1.0  0.9143503538059576  0.6117725103984029  0.22042825641284483  1.0000
  O   O19       1.0  0.5780212920300442  0.4867875158436945  0.7034576502515082  1.0000
  O   O20       1.0  0.9110442851198356  0.21656293501619214  0.5129121377456088  1.0000
  O   O21       1.0  0.24390897452531135  0.2970688994755548  0.7836770976564084  1.0000
  O   O22       1.0  0.0780251522079425  0.5132027588737884  0.29653954173485186  1.0000
  O   O23       1.0  0.4110483410105487  0.7834323261371664  0.4870856541127041  1.0000
  O   O24       1.0  0.7439109574642443  0.7029324442593818  0.2163194836705884  1.0000
  O   O25       1.0  0.8240558959113  0.367934583008207  0.13706692049062505  1.0000
  O   O26       1.0  0.1584767432916507  0.7689312828494861  0.6319561515199794  1.0000
  O   O27       1.0  0.49118227627457123  0.8628635785372296  0.23117419774046513  1.0000
  O   O28       1.0  0.32405743079807076  0.6320603546984669  0.8629341664898506  1.0000
  O   O29       1.0  0.658476956558438  0.23106807325568476  0.368046490352839  1.0000
  O   O30       1.0  0.9912001962325264  0.13713612830152735  0.7688282016967137  1.0000
