data_image0
_chemical_formula_structural       Cu2H36C36O8
_chemical_formula_sum              "Cu2 H36 C36 O8"
_cell_length_a       5.218743160162554
_cell_length_b       8.748833116417382
_cell_length_c       17.466502914436216
_cell_angle_alpha    87.79379637228642
_cell_angle_beta     82.5586295712736
_cell_angle_gamma    81.95758735458494

_space_group_name_H-M_alt    "P 1"
_space_group_IT_number       1

loop_
  _space_group_symop_operation_xyz
  'x, y, z'

loop_
  _atom_site_type_symbol
  _atom_site_label
  _atom_site_symmetry_multiplicity
  _atom_site_fract_x
  _atom_site_fract_y
  _atom_site_fract_z
  _atom_site_occupancy
  Cu  Cu1       1.0  0.2774596850121824  0.07106834561434991  0.991410940447082  1.0000
  Cu  Cu2       1.0  0.7225373956198881  0.9289361269741505  0.00858946756561349  1.0000
  H   H1        1.0  0.7179041495871347  0.17482161647591712  0.6622966326982507  1.0000
  H   H2        1.0  0.2820769498246349  0.8251852106279859  0.3377037738338871  1.0000
  H   H3        1.0  0.016981893530463317  0.37553559081604254  0.9294235703383721  1.0000
  H   H4        1.0  0.9830442000268462  0.6244515488085794  0.0705685858644429  1.0000
  H   H5        1.0  0.7602772314409377  0.47276689617600465  0.9937514213828179  1.0000
  H   H6        1.0  0.23976870179441803  0.5272351342305087  0.006247730595155999  1.0000
  H   H7        1.0  0.523471330090203  0.2721758809209406  0.7913295043256241  1.0000
  H   H8        1.0  0.47653387506066747  0.727835489366477  0.20867104472085168  1.0000
  H   H9        1.0  0.7842956458555503  0.9243840150086982  0.7463531877054805  1.0000
  H   H10       1.0  0.21567797772993197  0.07562168220427173  0.253646952345612  1.0000
  H   H11       1.0  0.6652159083795935  0.7518223649552455  0.7760625151222553  1.0000
  H   H12       1.0  0.33478102282918343  0.24817399396795276  0.2239431928872975  1.0000
  H   H13       1.0  0.4750862449075441  0.4935470245848921  0.8826220388390027  1.0000
  H   H14       1.0  0.5249444888921176  0.5064712010643219  0.11737741283572939  1.0000
  H   H15       1.0  0.7249182734915396  0.6129198410307026  0.8785259470238316  1.0000
  H   H16       1.0  0.275126631809215  0.3870868077476787  0.12147316377352979  1.0000
  H   H17       1.0  0.3004769931912747  0.48167833082980127  0.6542180409083754  1.0000
  H   H18       1.0  0.6995206406029554  0.5183239303631382  0.3457686438031899  1.0000
  H   H19       1.0  0.33658212457120845  0.048506025332876804  0.7239708789161554  1.0000
  H   H20       1.0  0.6633646599154871  0.951481248305541  0.27603519069835153  1.0000
  H   H21       1.0  0.2017871031368799  0.8897714048358623  0.7665658834785987  1.0000
  H   H22       1.0  0.7981989881577293  0.1102042208179768  0.23343945629135018  1.0000
  H   H23       1.0  0.1105526792160418  0.27680218307366294  0.5936126800577526  1.0000
  H   H24       1.0  0.8894249518137228  0.7231943170592957  0.40638116909951794  1.0000
  H   H25       1.0  0.4255548816998101  0.6597721838095509  0.4516607424708141  1.0000
  H   H26       1.0  0.5744753191332992  0.3402310261463981  0.5483412816324743  1.0000
  H   H27       1.0  0.7806941662885478  0.5819147327600406  0.5343356254378975  1.0000
  H   H28       1.0  0.2193241742632068  0.4180896586554255  0.4656674048612999  1.0000
  H   H29       1.0  0.7659453088452679  0.6994801118721837  0.6597520787193075  1.0000
  H   H30       1.0  0.23404530919703598  0.30051857578212093  0.3402532579522486  1.0000
  H   H31       1.0  0.10576856977700543  0.5780781399771797  0.7830817388898765  1.0000
  H   H32       1.0  0.8942346045996316  0.4219252521889558  0.2169058589363573  1.0000
  H   H33       1.0  0.04126409540959493  0.9799706775918793  0.624638987093391  1.0000
  H   H34       1.0  0.9587101405030152  0.020006141745277303  0.3753656408860309  1.0000
  H   H35       1.0  0.055368835400095406  0.8605780753817955  0.49830692151532213  1.0000
  H   H36       1.0  0.9446442123523725  0.13940673003590837  0.5016943630103653  1.0000
  C   C1        1.0  0.6911737557914108  0.2535729765285879  0.9629148376420744  1.0000
  C   C2        1.0  0.308835837080764  0.7464360905575733  0.03708329340316399  1.0000
  C   C3        1.0  0.8059892637571977  0.2618113271925183  0.6892066240132593  1.0000
  C   C4        1.0  0.19400202257505592  0.7381931771649589  0.3107917152653243  1.0000
  C   C5        1.0  0.8042195412336496  0.40162700919855604  0.9417598213033925  1.0000
  C   C6        1.0  0.19580294475383647  0.5983762702800137  0.058235626740128096  1.0000
  C   C7        1.0  0.6961603902764679  0.3166338612019218  0.7618601539834697  1.0000
  C   C8        1.0  0.3038521674073068  0.6833705905047083  0.2381367989466128  1.0000
  C   C9        1.0  0.5693455615838305  0.9278711703157113  0.8579818904691052  1.0000
  C   C10       1.0  0.4306280440373342  0.07213448207667031  0.1420245488655709  1.0000
  C   C11       1.0  0.609880011518378  0.8777243022406296  0.7746406001181825  1.0000
  C   C12       1.0  0.39009050436468584  0.12227791298495559  0.2253637273963491  1.0000
  C   C13       1.0  0.8025141395716635  0.4312862640335808  0.7964506718837896  1.0000
  C   C14       1.0  0.1974927520050329  0.5687262801375398  0.2035463569231837  1.0000
  C   C15       1.0  0.6876617008872331  0.4932281478061497  0.8746526839101634  1.0000
  C   C16       1.0  0.3123658100822411  0.5067785677569532  0.12534422931986455  1.0000
  C   C17       1.0  0.13185062024021485  0.4339425815358098  0.6841059450767375  1.0000
  C   C18       1.0  0.868143643968601  0.5660573400389238  0.3158866347895426  1.0000
  C   C19       1.0  0.3764171348149219  0.9220721889761592  0.7306243913467583  1.0000
  C   C20       1.0  0.6235572423553748  0.07791272365330572  0.2693777999465182  1.0000
  C   C21       1.0  0.024232108774334904  0.3198715557607699  0.6502161455144773  1.0000
  C   C22       1.0  0.9757573825367842  0.6801237629126721  0.3497766974468774  1.0000
  C   C23       1.0  0.4200958801119156  0.713260279913584  0.5072576811611356  1.0000
  C   C24       1.0  0.5799023523463089  0.2867303467907619  0.492742351702752  1.0000
  C   C25       1.0  0.6174621749699867  0.6695628157162049  0.553577770717034  1.0000
  C   C26       1.0  0.38255707615729057  0.3304462011380735  0.4464234264436371  1.0000
  C   C27       1.0  0.6079802768397328  0.7367983776060497  0.6253602750456579  1.0000
  C   C28       1.0  0.39201822403397557  0.263191123027518  0.37463575947838723  1.0000
  C   C29       1.0  0.022017134232676535  0.4882467378059871  0.7568087701535546  1.0000
  C   C30       1.0  0.9779884811895557  0.511754323718961  0.24318106494007447  1.0000
  C   C31       1.0  0.40094153096505647  0.8492871510678058  0.6522925725856936  1.0000
  C   C32       1.0  0.5990503817942141  0.1507057880692599  0.3477093795887782  1.0000
  C   C33       1.0  0.20452993241435996  0.8928349634611765  0.6047213306742023  1.0000
  C   C34       1.0  0.7954586385225183  0.1071557053258516  0.3952767813985503  1.0000
  C   C35       1.0  0.21324478986286274  0.8259413192787975  0.5331986962658277  1.0000
  C   C36       1.0  0.7867639820298322  0.1740538092896884  0.4668128774935383  1.0000
  O   O1        1.0  0.3561380426796675  0.011064363534217102  0.8818733017085661  1.0000
  O   O2        1.0  0.6438526872241679  0.9889423440696207  0.1181399061954309  1.0000
  O   O3        1.0  0.7547852113031367  0.8793114357748169  0.897767150263931  1.0000
  O   O4        1.0  0.2452042663448495  0.12070112628583726  0.1022345529214306  1.0000
  O   O5        1.0  0.44611124536600494  0.25791331762498965  0.9637985057301037  1.0000
  O   O6        1.0  0.5538912427563716  0.7420842130173924  0.0362023887726863  1.0000
  O   O7        1.0  0.8463197354648101  0.1344761782109316  0.9804530832114509  1.0000
  O   O8        1.0  0.1536786262210796  0.8655397892475422  0.019552800528160198  1.0000
