data_image0
_chemical_formula_structural       Cu2H36C20N12O12
_chemical_formula_sum              "Cu2 H36 C20 N12 O12"
_cell_length_a       8.243576386892585
_cell_length_b       10.488413222276245
_cell_length_c       11.068205084873789
_cell_angle_alpha    116.6934321998681
_cell_angle_beta     111.8961589603909
_cell_angle_gamma    89.99085604774184

_space_group_name_H-M_alt    "P 1"
_space_group_IT_number       1

loop_
  _space_group_symop_operation_xyz
  'x, y, z'

loop_
  _atom_site_type_symbol
  _atom_site_label
  _atom_site_symmetry_multiplicity
  _atom_site_fract_x
  _atom_site_fract_y
  _atom_site_fract_z
  _atom_site_occupancy
  Cu  Cu1       1.0  0.2045361355408701  0.2499953229729784  0.9999192396128294  1.0000
  Cu  Cu2       1.0  0.7954636303658232  0.7500054861346827  8.017530784343936e-05  1.0000
  H   H1        1.0  0.16952449630998256  0.607486131841938  0.632279775930165  1.0000
  H   H2        1.0  0.5373151942684801  0.8925726330322237  0.3678074103013886  1.0000
  H   H3        1.0  0.8304773475567231  0.392512489135477  0.3677201670176873  1.0000
  H   H4        1.0  0.46268271314239934  0.10742600390834409  0.6321896582284836  1.0000
  H   H5        1.0  0.0662900497350734  0.6035551269483078  0.4570825764478244  1.0000
  H   H6        1.0  0.6093747556754963  0.8965082434185588  0.5430047664945904  1.0000
  H   H7        1.0  0.9337073980649037  0.3964467603187387  0.5429193808597361  1.0000
  H   H8        1.0  0.3906241788263145  0.10348930709853478  0.4569912108145432  1.0000
  H   H9        1.0  0.7869914508041872  0.6509272229135448  0.498095081832595  1.0000
  H   H10       1.0  0.28897807058152136  0.8489352060544633  0.5017625149705864  1.0000
  H   H11       1.0  0.2130091496030673  0.3490713592331857  0.5019117332187406  1.0000
  H   H12       1.0  0.7110211436972662  0.1510634289613435  0.49823490937223625  1.0000
  H   H13       1.0  0.8938370070956412  0.6603263658738783  0.6751704184738614  1.0000
  H   H14       1.0  0.2185891768941275  0.8395067055405433  0.32467843859293305  1.0000
  H   H15       1.0  0.1061674980632148  0.3396722206874188  0.3248356570372266  1.0000
  H   H16       1.0  0.7814100611628306  0.1604919141919723  0.6753216962185604  1.0000
  H   H17       1.0  0.12025482614873793  0.10649376669199029  0.648581397526975  1.0000
  H   H18       1.0  0.47202912293013827  0.3934339721706763  0.3512761611537132  1.0000
  H   H19       1.0  0.8797438602803141  0.8935026789486642  0.3514167467066756  1.0000
  H   H20       1.0  0.5279651436540151  0.6065657550429008  0.6487212869709893  1.0000
  H   H21       1.0  0.040862903249802636  0.910814681333093  0.8880939241670874  1.0000
  H   H22       1.0  0.15256588896738776  0.5891394888197253  0.11186601478090098  1.0000
  H   H23       1.0  0.9591416384436471  0.08918936530755418  0.11191270627265476  1.0000
  H   H24       1.0  0.847434888178107  0.41086024405331756  0.8881305019399119  1.0000
  H   H25       1.0  0.5077916106255387  0.13148973076507534  0.15188624522468797  1.0000
  H   H26       1.0  0.35575180463317924  0.3685907882930763  0.8481065708094421  1.0000
  H   H27       1.0  0.4922132156752639  0.8685208808313547  0.8481187732191772  1.0000
  H   H28       1.0  0.6442408198236933  0.631407892007573  0.15188275004171461  1.0000
  H   H29       1.0  0.873198221269604  0.33264522651558787  0.0659920417860747  1.0000
  H   H30       1.0  0.8070582608130862  0.16721849884089574  0.9338368818392625  1.0000
  H   H31       1.0  0.1268025875801229  0.667354485979736  0.9340080888929592  1.0000
  H   H32       1.0  0.1929438390524254  0.8327812219185233  0.06616179767361526  1.0000
  H   H33       1.0  0.5953090604671233  0.3321563915917664  0.06686091973396908  1.0000
  H   H34       1.0  0.5283164730136463  0.1677279867790062  0.9330147609392017  1.0000
  H   H35       1.0  0.4046923000105025  0.6678454949954187  0.9331412015229078  1.0000
  H   H36       1.0  0.4716875011997956  0.8322738959586429  0.06698807194358372  1.0000
  C   C1        1.0  0.04126904751403523  0.5804116609520377  0.5368687249461317  1.0000
  C   C2        1.0  0.504471854098341  0.9195969891858908  0.4631498262039884  1.0000
  C   C3        1.0  0.9587299869308269  0.4195913088889541  0.46313503520808313  1.0000
  C   C4        1.0  0.4955260612385929  0.08040164266024871  0.5368481458154336  1.0000
  C   C5        1.0  0.9169121804099374  0.6755628749169915  0.5906259308963158  1.0000
  C   C6        1.0  0.3263233952042057  0.8243163767900443  0.40926585928282583  1.0000
  C   C7        1.0  0.08308921969797473  0.3244389861980324  0.4093807078083316  1.0000
  C   C8        1.0  0.6736737045799687  0.17567898627666514  0.5907304821041635  1.0000
  C   C9        1.0  0.08819552556873592  0.02705233727025559  0.677844927483939  1.0000
  C   C10       1.0  0.4106330388269868  0.47286844175018666  0.3220167309022415  1.0000
  C   C11       1.0  0.9118021337693917  0.9729451947938799  0.3221543079704573  1.0000
  C   C12       1.0  0.5893638414929684  0.5271312816138618  0.6779814288483693  1.0000
  C   C13       1.0  0.04939939198209938  0.9315849658915806  0.8028871913288853  1.0000
  C   C14       1.0  0.24646335233862968  0.5683550062922009  0.19704496460678908  1.0000
  C   C15       1.0  0.9506043262325291  0.0684158170640643  0.1971169049888672  1.0000
  C   C16       1.0  0.7535350908480398  0.43164581492908377  0.8029522875218121  1.0000
  C   C17       1.0  0.3849428196863372  0.08300181830429662  0.1481581294273369  1.0000
  C   C18       1.0  0.23671659202174308  0.4171419860733038  0.8518806199923292  1.0000
  C   C19       1.0  0.6150627253198664  0.9170011571961681  0.851844699322996  1.0000
  C   C20       1.0  0.7632821230158485  0.5828599247411289  0.14811717568041155  1.0000
  N   N1        1.0  0.99164497839179  0.829928996128416  0.6596674553700838  1.0000
  N   N2        1.0  0.3320687912330271  0.6699768799878711  0.34027061659826074  1.0000
  N   N3        1.0  0.008354555294261  0.17007069791394963  0.34033593345421315  1.0000
  N   N4        1.0  0.6679262385171825  0.3300206661146489  0.6597261002511061  1.0000
  N   N5        1.0  0.015509453778903958  0.888154280620462  0.5780115521233142  1.0000
  N   N6        1.0  0.43779032236640336  0.6117454235019221  0.42189429386421295  1.0000
  N   N7        1.0  0.9844895282792481  0.1118432393300424  0.4219898461231468  1.0000
  N   N8        1.0  0.5622065579535587  0.3882542998621333  0.5781038658863977  1.0000
  N   N9        1.0  0.111371060327329  0.05849024572251687  0.8177255782232323  1.0000
  N   N10       1.0  0.2936980872752031  0.44145409377267686  0.18214986688872153  1.0000
  N   N11       1.0  0.8886294845975371  0.9415083720852311  0.18227491240121207  1.0000
  N   N12       1.0  0.7063016627793743  0.5585467255238541  0.8178477410528374  1.0000
  O   O1        1.0  0.9107125751682689  0.24993135629704002  0.9999112235405009  1.0000
  O   O2        1.0  0.08929008734689603  0.7500650479083006  9.431255890039763e-05  1.0000
  O   O3        1.0  0.4913609421910652  0.24993990552147946  0.9999452387264185  1.0000
  O   O4        1.0  0.5086462004817635  0.7500586619069977  6.425887924877083e-05  1.0000
  O   O5        1.0  0.2491795744731249  0.14114408994991826  0.1205746956099674  1.0000
  O   O6        1.0  0.12846065760622594  0.3589546392985454  0.87932605939411  1.0000
  O   O7        1.0  0.7508214983014696  0.8588567172329745  0.8794250751236561  1.0000
  O   O8        1.0  0.8715357155464931  0.6410483649585643  0.12067156819686177  1.0000
  O   O9        1.0  0.3870401284251415  0.9744316406633187  0.16996634122184412  1.0000
  O   O10       1.0  0.21705647404983353  0.5257789133520634  0.8301596753587505  1.0000
  O   O11       1.0  0.6129606487203602  0.025568092209731202  0.830030175498969  1.0000
  O   O12       1.0  0.7829370055900924  0.4742230102558694  0.16983579357261655  1.0000
