data_image0
_chemical_formula_structural       Zn8H32C64O40
_chemical_formula_sum              "Zn8 H32 C64 O40"
_cell_length_a       11.827748141076816
_cell_length_b       15.983218359640894
_cell_length_c       15.542644303667828
_cell_angle_alpha    101.30907206365221
_cell_angle_beta     89.9991026175731
_cell_angle_gamma    90.00032008075567

_space_group_name_H-M_alt    "P 1"
_space_group_IT_number       1

loop_
  _space_group_symop_operation_xyz
  'x, y, z'

loop_
  _atom_site_type_symbol
  _atom_site_label
  _atom_site_symmetry_multiplicity
  _atom_site_fract_x
  _atom_site_fract_y
  _atom_site_fract_z
  _atom_site_occupancy
  Zn  Zn1       1.0  0.4851593893425419  0.7169991501541232  0.15255152311615214  1.0000
  Zn  Zn2       1.0  0.5392301195063144  0.4033419832593736  0.6651931675330403  1.0000
  Zn  Zn3       1.0  0.9851559928652381  0.783000582351171  0.84746302232206  1.0000
  Zn  Zn4       1.0  0.039232691036119115  0.09666123293842327  0.3348130085414383  1.0000
  Zn  Zn5       1.0  0.5148539767325675  0.2829974532404904  0.8474420894608842  1.0000
  Zn  Zn6       1.0  0.4607587279331329  0.5966571150940041  0.3348023444042383  1.0000
  Zn  Zn7       1.0  0.014843845658226907  0.2169936706315738  0.1525403183640677  1.0000
  Zn  Zn8       1.0  0.9607620746382327  0.9033380923037696  0.6651922186819803  1.0000
  H   H1        1.0  0.6823811035161925  0.7386254542150108  0.4801549207288928  1.0000
  H   H2        1.0  0.9567139506181308  0.9193500024023603  0.4916801946411907  1.0000
  H   H3        1.0  0.743475280179283  0.8668958727784781  0.26413506154472793  1.0000
  H   H4        1.0  0.6823313922246116  0.7577485694709551  0.9196573947534574  1.0000
  H   H5        1.0  0.7482065091233565  0.5589092874542203  0.6936136951942018  1.0000
  H   H6        1.0  0.5753628948564188  0.49974718162933823  0.9191048080659597  1.0000
  H   H7        1.0  0.8082249904122423  0.7805281521042814  0.610601192685067  1.0000
  H   H8        1.0  0.32649114641816385  0.6122274973325047  0.2096772857653875  1.0000
  H   H9        1.0  0.182373531648814  0.7613763638441566  0.5198495666406515  1.0000
  H   H10       1.0  0.4567140181754327  0.5806454104469407  0.5083086968287063  1.0000
  H   H11       1.0  0.24348520368366888  0.6331082837639456  0.7358733904315216  1.0000
  H   H12       1.0  0.18230825897313005  0.7422488836718127  0.08037371574650351  1.0000
  H   H13       1.0  0.24820801434817247  0.9411138684825741  0.30638837682271697  1.0000
  H   H14       1.0  0.07533090936928492  0.00024253985939279844  0.0808935387299243  1.0000
  H   H15       1.0  0.3082250617547687  0.7194737727987783  0.38939844615857305  1.0000
  H   H16       1.0  0.8264882598944399  0.8877683197652713  0.790318591323917  1.0000
  H   H17       1.0  0.31762465329497064  0.26137148549293693  0.519845858126267  1.0000
  H   H18       1.0  0.043286733403022006  0.08064516177420697  0.5083169294035557  1.0000
  H   H19       1.0  0.25651610362811544  0.1331062212615919  0.735865692085035  1.0000
  H   H20       1.0  0.3176785919452812  0.24224579305597865  0.08034339673776  1.0000
  H   H21       1.0  0.25180009316515856  0.44110443726026455  0.3063712318224034  1.0000
  H   H22       1.0  0.42465216226450053  0.5002429845813834  0.08087370396949466  1.0000
  H   H23       1.0  0.19177315714274104  0.21947186535874857  0.3894029161065617  1.0000
  H   H24       1.0  0.6735188377841087  0.38777583646985647  0.790309603738379  1.0000
  H   H25       1.0  0.8176364524047702  0.23863839731605196  0.4801562217246911  1.0000
  H   H26       1.0  0.5432925840457089  0.4193637230734736  0.4916931370776823  1.0000
  H   H27       1.0  0.756514634788907  0.3668948936208522  0.26413213638703326  1.0000
  H   H28       1.0  0.817684815710827  0.25774598723388914  0.9196452319865215  1.0000
  H   H29       1.0  0.7517977424016994  0.05889792435562669  0.6936115325848036  1.0000
  H   H30       1.0  0.9246173555470918  0.9997392726954285  0.9191144828137965  1.0000
  H   H31       1.0  0.6917866132845633  0.28053336625572445  0.6106048310869241  1.0000
  H   H32       1.0  0.17350566034547651  0.1122313065781384  0.2096796258404439  1.0000
  C   C1        1.0  0.6116862875056129  0.7479580694227649  0.3170273000280162  1.0000
  C   C2        1.0  0.7053333906173763  0.7972487103880609  0.3670114392554709  1.0000
  C   C3        1.0  0.7320971954187885  0.7835529584676308  0.4513456471394619  1.0000
  C   C4        1.0  0.8218763193038686  0.828700747189728  0.49646073881941527  1.0000
  C   C5        1.0  0.8862706156393049  0.8839765310265972  0.457100501840955  1.0000
  C   C6        1.0  0.857935921683705  0.8979321891197998  0.3738687215612445  1.0000
  C   C7        1.0  0.9228543520261357  0.963039472245917  0.3371119430471055  1.0000
  C   C8        1.0  0.7663711565263828  0.8552263114618552  0.32854619562060344  1.0000
  C   C9        1.0  0.5669992632865829  0.662646614103302  0.0129216103731977  1.0000
  C   C10       1.0  0.6241847461010653  0.6317780116354327  0.9275916932228867  1.0000
  C   C11       1.0  0.6786675938892942  0.6911386135499028  0.8866517245774759  1.0000
  C   C12       1.0  0.7239464176511775  0.6650909293037726  0.8025900586485264  1.0000
  C   C13       1.0  0.775172517919849  0.7298201120002901  0.7568930879477236  1.0000
  C   C14       1.0  0.7162887549562104  0.5794098022954511  0.7601517532696462  1.0000
  C   C15       1.0  0.6670841560103967  0.5204801501751389  0.8040166020054471  1.0000
  C   C16       1.0  0.6194811466203095  0.5453201362692537  0.8871906285759863  1.0000
  C   C17       1.0  0.11169316947154335  0.7520511293478194  0.682984794413386  1.0000
  C   C18       1.0  0.20533446433806551  0.7027526475487063  0.6329938040395574  1.0000
  C   C19       1.0  0.2320905681818105  0.7164445988978441  0.5486639722164525  1.0000
  C   C20       1.0  0.3218714058215043  0.6712936935828748  0.5035361734057275  1.0000
  C   C21       1.0  0.38626493807844053  0.6160252911653005  0.5428886705190692  1.0000
  C   C22       1.0  0.3579362678388875  0.6020596557987259  0.6261365558207928  1.0000
  C   C23       1.0  0.4228641939409813  0.5369596968229826  0.6628720471077898  1.0000
  C   C24       1.0  0.2663850269683082  0.6447695353909776  0.6714507867695828  1.0000
  C   C25       1.0  0.06697179682379334  0.8373462862878112  0.9871001878557165  1.0000
  C   C26       1.0  0.12415973350658054  0.8682199290894556  0.07243029510720322  1.0000
  C   C27       1.0  0.17864775531403865  0.808859987491928  0.11336685432527815  1.0000
  C   C28       1.0  0.2239432308492085  0.8349195138098862  0.19741771419584342  1.0000
  C   C29       1.0  0.275171966915842  0.7701920965416276  0.24311482561078887  1.0000
  C   C30       1.0  0.21628605952007268  0.920598150442032  0.2398523294807973  1.0000
  C   C31       1.0  0.16707124793384054  0.9795260849055082  0.19598667089292832  1.0000
  C   C32       1.0  0.11945241231575926  0.9546821564669724  0.11281898811338203  1.0000
  C   C33       1.0  0.3883143964468943  0.2520438604249548  0.6829772772005356  1.0000
  C   C34       1.0  0.29467236616332587  0.2027506422829219  0.6329931506024664  1.0000
  C   C35       1.0  0.2679077159097148  0.21644453657365398  0.5486571997107959  1.0000
  C   C36       1.0  0.17812859205918144  0.17129303260072243  0.5035386220021323  1.0000
  C   C37       1.0  0.11373260477527943  0.11602184782247349  0.5428967656666472  1.0000
  C   C38       1.0  0.14205630760632462  0.10206466840009647  0.6261339692368181  1.0000
  C   C39       1.0  0.07714548650736931  0.03695887921282548  0.6628859617659018  1.0000
  C   C40       1.0  0.23361515450051948  0.1447694079796733  0.6714529965260354  1.0000
  C   C41       1.0  0.4330191756039739  0.33734730262165863  0.9870745639480418  1.0000
  C   C42       1.0  0.3758269290255357  0.3682185096309495  0.07240383120361568  1.0000
  C   C43       1.0  0.3213423902960742  0.30885655067367423  0.1133453993938431  1.0000
  C   C44       1.0  0.2760517299452518  0.33491412519803976  0.1974017603565557  1.0000
  C   C45       1.0  0.2248298569707857  0.27019250989069116  0.2431025166878911  1.0000
  C   C46       1.0  0.2837144655248167  0.42058981622188435  0.2398316502588074  1.0000
  C   C47       1.0  0.3329292101324982  0.4795156983961916  0.19596458997160937  1.0000
  C   C48       1.0  0.38053221946164945  0.45468053822813187  0.1127981854066249  1.0000
  C   C49       1.0  0.8883125872578292  0.24795781255573243  0.3170215004505934  1.0000
  C   C50       1.0  0.7946746742669507  0.2972596185245279  0.36701008516579486  1.0000
  C   C51       1.0  0.7679194158839951  0.28356157421210065  0.45134679623451035  1.0000
  C   C52       1.0  0.6781419601749905  0.3287149393805676  0.4964623179014325  1.0000
  C   C53       1.0  0.6137416641331443  0.38398376023543074  0.4571150752234203  1.0000
  C   C54       1.0  0.6420677979660356  0.3979420550802785  0.3738731196106784  1.0000
  C   C55       1.0  0.5771390265090945  0.4630383183010522  0.3371186914604678  1.0000
  C   C56       1.0  0.7336215753019176  0.3552333330494405  0.3285469364988316  1.0000
  C   C57       1.0  0.9330035230248087  0.16264210046233524  0.012919747609132082  1.0000
  C   C58       1.0  0.8758130498877043  0.13177475010108705  0.9275931137369399  1.0000
  C   C59       1.0  0.8213377101733103  0.19113512973434862  0.8866463579594992  1.0000
  C   C60       1.0  0.7760523802673805  0.16508693295967444  0.8025866815815661  1.0000
  C   C61       1.0  0.7248363262233399  0.22981953207003858  0.7568889074489178  1.0000
  C   C62       1.0  0.7837129334889499  0.07940574651546937  0.7601514416606463  1.0000
  C   C63       1.0  0.8329116811446798  0.020474378325303595  0.8040220551220827  1.0000
  C   C64       1.0  0.8805068435874336  0.045315373589843874  0.8871980353810969  1.0000
  O   O1        1.0  0.5755831903016289  0.6834778187822862  0.34505300962227636  1.0000
  O   O2        1.0  0.5758825842181711  0.7739077298795249  0.24899446636231204  1.0000
  O   O3        1.0  0.8512855660545713  0.82217959622443  0.5808426438190111  1.0000
  O   O4        1.0  0.007287440268733303  0.9982352620422286  0.3858878763269756  1.0000
  O   O5        1.0  0.8964708971750713  0.9852051477106798  0.26699936225356413  1.0000
  O   O6        1.0  0.5360618211360305  0.6105810223625807  0.061846061379810566  1.0000
  O   O7        1.0  0.5481126785776029  0.7429252973643301  0.03834674080027165  1.0000
  O   O8        1.0  0.8281879751083212  0.7940530003804155  0.8083676430914366  1.0000
  O   O9        1.0  0.7646130542877074  0.7228514328112323  0.6760913593356648  1.0000
  O   O10       1.0  0.6607716479255928  0.4364198892633552  0.7577507981046097  1.0000
  O   O11       1.0  0.07559317361170062  0.816527909850606  0.6549569622565841  1.0000
  O   O12       1.0  0.07589998125988731  0.7260982560497096  0.751024578784815  1.0000
  O   O13       1.0  0.3512763976044227  0.677811426590516  0.4191503180457516  1.0000
  O   O14       1.0  0.5072931845414247  0.5017731197816457  0.6141053174864695  1.0000
  O   O15       1.0  0.3964616076266411  0.5147809037706566  0.7329992842720329  1.0000
  O   O16       1.0  0.03601918256514841  0.8894045257843499  0.9381751450672269  1.0000
  O   O17       1.0  0.048104787732747005  0.7570595632174314  0.961663129049576  1.0000
  O   O18       1.0  0.32819021834441753  0.7059596346459214  0.1916419824579165  1.0000
  O   O19       1.0  0.2646225941589507  0.7771644390274017  0.32391893234600383  1.0000
  O   O20       1.0  0.16075856366031627  0.0635889551687612  0.24224101304174184  1.0000
  O   O21       1.0  0.42441580275468055  0.31652247241728293  0.6549447263756533  1.0000
  O   O22       1.0  0.42410710863386225  0.22609021092954143  0.7510129977113351  1.0000
  O   O23       1.0  0.14871596347060745  0.1778118527055739  0.41915099419035323  1.0000
  O   O24       1.0  0.9927073254543335  0.0017678253241654822  0.6141047488052608  1.0000
  O   O25       1.0  0.10353570508601004  0.014792292592701997  0.7330047591407478  1.0000
  O   O26       1.0  0.46396169062634146  0.3894026676981568  0.938148251743023  1.0000
  O   O27       1.0  0.45189730567461345  0.25706576051015856  0.9616410054817024  1.0000
  O   O28       1.0  0.17181017244805472  0.20594970377790384  0.1916339039159425  1.0000
  O   O29       1.0  0.2353749476432229  0.2771580290938758  0.3239028273731392  1.0000
  O   O30       1.0  0.3392400272743076  0.5635819427740782  0.24222606374831906  1.0000
  O   O31       1.0  0.9244117376650254  0.18347983925377054  0.3450471084733309  1.0000
  O   O32       1.0  0.9241100028418432  0.2739068885046975  0.24898014185319536  1.0000
  O   O33       1.0  0.6487259772879741  0.322193854791564  0.5808512162588145  1.0000
  O   O34       1.0  0.49270580850038953  0.49823440243392264  0.3858890379573126  1.0000
  O   O35       1.0  0.6035323126605621  0.485215116814821  0.26699289774880697  1.0000
  O   O36       1.0  0.9639341551607574  0.1105738805238587  0.06183719390448769  1.0000
  O   O37       1.0  0.9518882870985483  0.24292587482197084  0.0383354764427111  1.0000
  O   O38       1.0  0.6718189202423875  0.2940511375269138  0.8083666926724219  1.0000
  O   O39       1.0  0.7354017629629582  0.22283970441734618  0.6760791030868702  1.0000
  O   O40       1.0  0.8392252110118223  0.936403213248475  0.7577508694240009  1.0000
