data_image0
_chemical_formula_structural       Cu4H64C40N8O16
_chemical_formula_sum              "Cu4 H64 C40 N8 O16"
_cell_length_a       7.158765431997911
_cell_length_b       8.510814032647634
_cell_length_c       21.8507510826646
_cell_angle_alpha    78.77446309336644
_cell_angle_beta     80.7304968802427
_cell_angle_gamma    65.15197069588943

_space_group_name_H-M_alt    "P 1"
_space_group_IT_number       1

loop_
  _space_group_symop_operation_xyz
  'x, y, z'

loop_
  _atom_site_type_symbol
  _atom_site_label
  _atom_site_symmetry_multiplicity
  _atom_site_fract_x
  _atom_site_fract_y
  _atom_site_fract_z
  _atom_site_occupancy
  Cu  Cu1       1.0  0.8817385023394023  0.9026707342138423  0.9107162365321458  1.0000
  Cu  Cu2       1.0  0.6952554829684774  0.5971743702910857  0.5890918178849276  1.0000
  Cu  Cu3       1.0  0.11827102660818412  0.0973393674188827  0.0892872188581393  1.0000
  Cu  Cu4       1.0  0.30475917390926816  0.4028187265472241  0.4109041106074827  1.0000
  H   H1        1.0  0.5485407319792373  0.8780896498553687  0.9622275040361147  1.0000
  H   H2        1.0  0.38836576285796515  0.6220484603379502  0.5375168652212068  1.0000
  H   H3        1.0  0.45146824078057074  0.1219152195329158  0.03777217331779781  1.0000
  H   H4        1.0  0.6116373947405905  0.3779564090503342  0.46248296074328016  1.0000
  H   H5        1.0  0.6569872145808732  0.8359334564377008  0.02335862671667141  1.0000
  H   H6        1.0  0.5157954380882617  0.6640005962226283  0.47659151599533794  1.0000
  H   H7        1.0  0.3430156493563888  0.1640701048894755  0.9766421801501508  1.0000
  H   H8        1.0  0.48420719667422674  0.3360016570434396  0.5234073740119669  1.0000
  H   H9        1.0  0.09740725264109082  0.1130125556257369  0.8444796881779126  1.0000
  H   H10       1.0  0.054652596938559846  0.3881645179442045  0.6549387142642047  1.0000
  H   H11       1.0  0.9026113591520969  0.8869896976403309  0.15552447436375164  1.0000
  H   H12       1.0  0.945369183885539  0.6118115740996899  0.345060441053171  1.0000
  H   H13       1.0  0.9007488280118351  0.2509162060927466  0.7495428050159988  1.0000
  H   H14       1.0  0.09926844474116352  0.7490664262566824  0.2504588388048887  1.0000
  H   H15       1.0  0.5947975196092515  0.2501235210607504  0.7501208405112579  1.0000
  H   H16       1.0  0.405211257327487  0.7498826563886425  0.2498797620623421  1.0000
  H   H17       1.0  0.7440093993777455  0.451156816765554  0.9963289194756656  1.0000
  H   H18       1.0  0.19184559491928613  0.0489306419006681  0.5036216011963788  1.0000
  H   H19       1.0  0.2559891859564373  0.5488415123171819  0.0036746650454234082  1.0000
  H   H20       1.0  0.808130118759252  0.9510794597320567  0.4963745869705178  1.0000
  H   H21       1.0  0.5767156456328947  0.3420462074276713  0.023467208622065503  1.0000
  H   H22       1.0  0.9427222102823691  0.1577508616723691  0.4761634676596245  1.0000
  H   H23       1.0  0.4232965963595703  0.657933808799541  0.976535173890781  1.0000
  H   H24       1.0  0.05725604947137716  0.8422775528158724  0.5238290528833787  1.0000
  H   H25       1.0  0.6170844634584329  0.3500920913085253  0.1338329159525316  1.0000
  H   H26       1.0  0.1013008513086576  0.1496605037138181  0.365954894505478  1.0000
  H   H27       1.0  0.3829104294867993  0.6499010055297774  0.8661671934580112  1.0000
  H   H28       1.0  0.8986904453909197  0.8503535221022316  0.6340406485692753  1.0000
  H   H29       1.0  0.5320230546603072  0.560942385635627  0.0897024217827393  1.0000
  H   H30       1.0  0.18313492191767733  0.9389171075414919  0.4101421062201567  1.0000
  H   H31       1.0  0.4679641941592723  0.4390507112026754  0.9102996652027784  1.0000
  H   H32       1.0  0.8168385698952535  0.0610995343967744  0.5898542842447654  1.0000
  H   H33       1.0  0.9142621343400353  0.5184068544963836  0.0688606067671742  1.0000
  H   H34       1.0  0.5016591637270695  0.9818581376244992  0.43145994743641586  1.0000
  H   H35       1.0  0.08572158648561867  0.4815953987696844  0.93114444743793  1.0000
  H   H36       1.0  0.49832788690591895  0.01813757533602  0.5685352967029118  1.0000
  H   H37       1.0  0.7891937438757427  0.5621562663446866  0.14426257919799215  1.0000
  H   H38       1.0  0.49562956308069767  0.9376182028603495  0.3560375372316713  1.0000
  H   H39       1.0  0.2107909250770563  0.4378355224325077  0.8557427748953543  1.0000
  H   H40       1.0  0.5043459871646409  0.0623866665279351  0.6439573134196053  1.0000
  H   H41       1.0  0.8854305095261455  0.351175165906696  0.23377628436564632  1.0000
  H   H42       1.0  0.46994672652505204  0.1482137881273715  0.2664440313604075  1.0000
  H   H43       1.0  0.11455680503502204  0.6488140067482817  0.7662263819637617  1.0000
  H   H44       1.0  0.5300436893372762  0.8517897731998048  0.7335536405669812  1.0000
  H   H45       1.0  0.8162620890139111  0.2053799827696778  0.20246277960033857  1.0000
  H   H46       1.0  0.22388428857673393  0.2941541660474769  0.29746231757177816  1.0000
  H   H47       1.0  0.18373812975483622  0.7946065737630761  0.7975382734672819  1.0000
  H   H48       1.0  0.7761157314189472  0.7058611678296813  0.7025351480671773  1.0000
  H   H49       1.0  0.07053632152485532  0.1322580587209998  0.2248076851106973  1.0000
  H   H50       1.0  0.42714061368385375  0.367268241729505  0.2753219105850775  1.0000
  H   H51       1.0  0.9294601400751932  0.8677363461784182  0.7751944183169925  1.0000
  H   H52       1.0  0.5728651572798071  0.632734011536563  0.7246766764963937  1.0000
  H   H53       1.0  0.30825713014627354  0.24470945613101233  0.1679944757574177  1.0000
  H   H54       1.0  0.7206242272676633  0.2551059258245587  0.3323607701801592  1.0000
  H   H55       1.0  0.6917278965144719  0.7553032616239292  0.8320094412348809  1.0000
  H   H56       1.0  0.27938562817093554  0.744879322647094  0.6676370000093357  1.0000
  H   H57       1.0  0.24500558211308038  0.3924144084870206  0.09698786134435981  1.0000
  H   H58       1.0  0.7347151428773202  0.10742975081294047  0.40337257020257067  1.0000
  H   H59       1.0  0.7549776157298853  0.6075917689623722  0.9030170707579543  1.0000
  H   H60       1.0  0.2652865122478619  0.8925502654142718  0.5966233995255195  1.0000
  H   H61       1.0  0.13070918038037166  0.4675978368433319  0.1708402285736597  1.0000
  H   H62       1.0  0.7685158081698374  0.0322332418455389  0.3295082098263507  1.0000
  H   H63       1.0  0.8692658170025567  0.5324096486671691  0.8291637169216202  1.0000
  H   H64       1.0  0.23147388932659416  0.9677559308094317  0.6704878236547813  1.0000
  C   C1        1.0  0.48225183146674055  0.0794974138934705  0.858613793503288  1.0000
  C   C2        1.0  0.42050415160152016  0.4205835044672099  0.6411977716666613  1.0000
  C   C3        1.0  0.5177628262262177  0.9205113796781459  0.14138805365801232  1.0000
  C   C4        1.0  0.5795088075017675  0.5794148246155331  0.3588027721866851  1.0000
  C   C5        1.0  0.3605392408801793  0.16910221597541406  0.802472091158087  1.0000
  C   C6        1.0  0.3319577955283111  0.3316706667118722  0.6973090003293478  1.0000
  C   C7        1.0  0.6394740774793635  0.8309000372906536  0.19752886499119882  1.0000
  C   C8        1.0  0.6680557845425031  0.6683198140042137  0.3026907960897631  1.0000
  C   C9        1.0  0.16292921603702135  0.17211337264810564  0.8025790972874347  1.0000
  C   C10       1.0  0.13734086689098068  0.3290990185717674  0.696952313317027  1.0000
  C   C11       1.0  0.8370910290441104  0.8278836483735219  0.19742334765513903  1.0000
  C   C12       1.0  0.862681632592249  0.6708783815332282  0.3030468527378432  1.0000
  C   C13       1.0  0.053078472914144414  0.2507526984541357  0.7496949976490868  1.0000
  C   C14       1.0  0.9469401715621548  0.7492299338953003  0.2503052744485075  1.0000
  C   C15       1.0  0.4428579192129408  0.2503236544104155  0.7499741538326461  1.0000
  C   C16       1.0  0.5571541254081466  0.7496746746723275  0.2500273045029004  1.0000
  C   C17       1.0  0.9100932232588764  0.08667474519801027  0.9960322796075545  1.0000
  C   C18       1.0  0.9928606732774408  0.4133342298016771  0.5038829465863374  1.0000
  C   C19       1.0  0.0899228718989633  0.9133301241902743  0.003968775174335805  1.0000
  C   C20       1.0  0.0071452935092893395  0.5866667154032825  0.4961147152754465  1.0000
  C   C21       1.0  0.7120673183248487  0.357401536785062  0.034538017756027314  1.0000
  C   C22       1.0  0.10430378011221123  0.1425930495424268  0.46531269327239505  1.0000
  C   C23       1.0  0.2879349261931952  0.6425928681143487  0.965465385942025  1.0000
  C   C24       1.0  0.8956771279066658  0.8574183601514063  0.5346832798637919  1.0000
  C   C25       1.0  0.6648842339306286  0.4338891020669492  0.09534493428150632  1.0000
  C   C26       1.0  0.1944211351243935  0.0660060716162647  0.40456769078944893  1.0000
  C   C27       1.0  0.33511160684851404  0.56610661089357  0.9046571027260484  1.0000
  C   C28       1.0  0.8055636277547937  0.9340066461386769  0.5954279901583845  1.0000
  C   C29       1.0  0.8441407661516821  0.4648849181034719  0.11165036865428142  1.0000
  C   C30       1.0  0.4207715717662524  0.0351031279184681  0.3885511010828253  1.0000
  C   C31       1.0  0.15584419631578333  0.5351147190403793  0.8883548183911074  1.0000
  C   C32       1.0  0.579214694319404  0.9649017414698093  0.6114443668294953  1.0000
  C   C33       1.0  0.9415833234963243  0.24560416992949993  0.2043358262402393  1.0000
  C   C34       1.0  0.3911723959997888  0.2539823013320088  0.2957799456836554  1.0000
  C   C35       1.0  0.0584130402654993  0.7543876188476941  0.7956663328701127  1.0000
  C   C36       1.0  0.6088250109240223  0.7460225680562758  0.7042171311295533  1.0000
  C   C37       1.0  0.1850531000788961  0.3560463854762403  0.1443971874517445  1.0000
  C   C38       1.0  0.6852886076672106  0.1438187028014681  0.3559342546608093  1.0000
  C   C39       1.0  0.8149289541070959  0.6439584839120442  0.8556067422732525  1.0000
  C   C40       1.0  0.31471053193107695  0.8561665456701844  0.6440628982676344  1.0000
  N   N1        1.0  0.8872908660382067  0.1891325557360162  0.03692399950922011  1.0000
  N   N2        1.0  0.11336355221293808  0.3109549029301988  0.4630436555529656  1.0000
  N   N3        1.0  0.11271742141418216  0.8108736217133766  0.9630785091864026  1.0000
  N   N4        1.0  0.886638232553864  0.6890473503358621  0.5369532511746868  1.0000
  N   N5        1.0  0.012714199577381177  0.3067547187095201  0.1405868613257795  1.0000
  N   N6        1.0  0.4599544128271731  0.19318492905139806  0.359622061479854  1.0000
  N   N7        1.0  0.9872733761085748  0.6932488426176562  0.8594179006909783  1.0000
  N   N8        1.0  0.5400472742480178  0.8068081677869116  0.6403740870760686  1.0000
  O   O1        1.0  0.677433409758848  0.0408926063864712  0.848556136277928  1.0000
  O   O2        1.0  0.5673065418638645  0.4589907947467609  0.6513119015176515  1.0000
  O   O3        1.0  0.3225860830182087  0.9591135710629217  0.151445083556716  1.0000
  O   O4        1.0  0.432703443362975  0.5410101504581917  0.3486859918170282  1.0000
  O   O5        1.0  0.3873896125868232  0.04548128475649089  0.9099931383759098  1.0000
  O   O6        1.0  0.3429347535594757  0.45415620088826353  0.5897028049606234  1.0000
  O   O7        1.0  0.612626873923915  0.9545340491206602  0.0900076936753749  1.0000
  O   O8        1.0  0.657067914554716  0.545848668500021  0.41029892712588634  1.0000
  O   O9        1.0  0.7953526485376873  0.1200041422528102  0.9517228494560683  1.0000
  O   O10       1.0  0.8673936351659823  0.37996559091360627  0.5480115275831565  1.0000
  O   O11       1.0  0.20466968692587545  0.8799941868299257  0.04827823450069963  1.0000
  O   O12       1.0  0.13261373669575263  0.6200379704135628  0.4519876046345388  1.0000
  O   O13       1.0  0.6707545957613237  0.790832817463901  0.9838391734316189  1.0000
  O   O14       1.0  0.4451984404563376  0.7090606853020489  0.5160983357418303  1.0000
  O   O15       1.0  0.32925261377567233  0.20916812774105856  0.016162912230584  1.0000
  O   O16       1.0  0.5547974311643671  0.290945492147344  0.48389958913342923  1.0000
