data_image0
_chemical_formula_structural       Zn2H14C18N4O12
_chemical_formula_sum              "Zn2 H14 C18 N4 O12"
_cell_length_a       7.854225377615595
_cell_length_b       8.87309429878926
_cell_length_c       15.934301501183134
_cell_angle_alpha    86.07788287771537
_cell_angle_beta     84.10244414564237
_cell_angle_gamma    82.91527375092045

_space_group_name_H-M_alt    "P 1"
_space_group_IT_number       1

loop_
  _space_group_symop_operation_xyz
  'x, y, z'

loop_
  _atom_site_type_symbol
  _atom_site_label
  _atom_site_symmetry_multiplicity
  _atom_site_fract_x
  _atom_site_fract_y
  _atom_site_fract_z
  _atom_site_occupancy
  Zn  Zn1       1.0  0.6500014509528071  0.5022783997686134  0.4865772968403661  1.0000
  Zn  Zn2       1.0  0.30017225614883375  0.500558038687778  0.5194235940617843  1.0000
  H   H1        1.0  0.7649529468421365  0.6204784295679816  0.9296021794408059  1.0000
  H   H2        1.0  0.7374059710631614  0.6045439583076515  0.07791681475063678  1.0000
  H   H3        1.0  0.26090107949704594  0.6515960818352369  0.06093968450049659  1.0000
  H   H4        1.0  0.4483313506245565  0.7449913687551727  0.05159325151772978  1.0000
  H   H5        1.0  0.4563172007312702  0.7252355279024769  0.9050349800045294  1.0000
  H   H6        1.0  0.2958472140932572  0.5993526253609575  0.9181396709078837  1.0000
  H   H7        1.0  0.5173735390890216  0.2588435203441861  0.09275967588476416  1.0000
  H   H8        1.0  0.5929615490200393  0.24242901362849525  0.9478612992198802  1.0000
  H   H9        1.0  0.7670478524009499  0.40487154669864367  0.08123891890205927  1.0000
  H   H10       1.0  0.8288266894927008  0.42250294001758715  0.9342968415317257  1.0000
  H   H11       1.0  0.377612228412751  0.3163741662473001  0.9311578488933561  1.0000
  H   H12       1.0  0.24741699214421695  0.00867807823306071  0.5432771359943158  1.0000
  H   H13       1.0  0.6355953351129033  0.9913209689274183  0.4823835902070497  1.0000
  H   H14       1.0  0.9445841064254452  0.479684831365212  0.5777666564356846  1.0000
  C   C1        1.0  0.40311868182214283  0.7889803021788779  0.520846272499746  1.0000
  C   C2        1.0  0.48592151107025233  0.5277862753670705  0.3387055003563758  1.0000
  C   C3        1.0  0.47904306588315393  0.21106753579678636  0.5037093121113327  1.0000
  C   C4        1.0  0.5703099325019496  0.47271738088097953  0.6608847631693064  1.0000
  C   C5        1.0  0.6942325675980572  0.5053938463359986  0.05238919656763127  1.0000
  C   C6        1.0  0.39719536707918485  0.6414492238554955  0.03621929417607819  1.0000
  C   C7        1.0  0.4178128384824619  0.6219005657104759  0.9400245761339503  1.0000
  C   C8        1.0  0.582776902454441  0.4705137377434098  0.750580503094184  1.0000
  C   C9        1.0  0.4989534977527655  0.5055304496336177  0.08237012374176797  1.0000
  C   C10       1.0  0.7250680099005111  0.5105719929606563  0.9549573505659905  1.0000
  C   C11       1.0  0.5567490157978199  0.4866303296894614  0.9178412259774901  1.0000
  C   C12       1.0  0.4927297120746986  0.3383717490997499  0.959744592473292  1.0000
  C   C13       1.0  0.45028057756160683  0.35161681314963283  0.05546245762331379  1.0000
  C   C14       1.0  0.5784870923196836  0.4761685392264994  0.8267949885510643  1.0000
  C   C15       1.0  0.47552428443663075  0.5159335215010756  0.17340551953100194  1.0000
  C   C16       1.0  0.4722700690205529  0.5262597490468937  0.24916220696177038  1.0000
  C   C17       1.0  0.37754964810126523  0.9569286214732459  0.5241006237117388  1.0000
  C   C18       1.0  0.5057103936119136  0.0428625372795111  0.5022103664303754  1.0000
  N   N1        1.0  0.020281468065505185  0.49938020621760876  0.5200134115496765  1.0000
  N   N2        1.0  0.922279333458768  0.5133085364608334  0.46486003286909733  1.0000
  N   N3        1.0  0.009641916504946807  0.5499570530746781  0.36544852876376394  1.0000
  N   N4        1.0  0.26024103830132367  0.337912891326809  0.08228889117479808  1.0000
  O   O1        1.0  0.5554593076945765  0.7232455309437783  0.5052817831601144  1.0000
  O   O2        1.0  0.26580599318160847  0.722742608637077  0.5334843217004845  1.0000
  O   O3        1.0  0.6368439119439347  0.5331961564162455  0.3603005508708818  1.0000
  O   O4        1.0  0.34964901215084865  0.5212367728076758  0.3889160920745453  1.0000
  O   O5        1.0  0.6135410776835927  0.2789760334413743  0.4867769712726186  1.0000
  O   O6        1.0  0.325759941752743  0.2753685948644744  0.5214918653442309  1.0000
  O   O7        1.0  0.7103324420314796  0.4735685249965869  0.6111608560626249  1.0000
  O   O8        1.0  0.42081981659657  0.47560281897951034  0.6371792307402229  1.0000
  O   O9        1.0  0.036847616319576615  0.43838622677481004  0.32528746333565545  1.0000
  O   O10       1.0  0.01342575656310883  0.6841072389174272  0.3488544039766167  1.0000
  O   O11       1.0  0.22646638643673359  0.2691696589701067  0.15072704633869446  1.0000
  O   O12       1.0  0.15196883645159437  0.3985596859025832  0.03499473961199578  1.0000
