data_image0
_chemical_formula_structural       Cd4H10C4S4N10O16
_chemical_formula_sum              "Cd4 H10 C4 S4 N10 O16"
_cell_length_a       6.761018324419865
_cell_length_b       9.222797184772478
_cell_length_c       9.796369242978948
_cell_angle_alpha    65.09128131656588
_cell_angle_beta     72.3218371951917
_cell_angle_gamma    71.19648675731436

_space_group_name_H-M_alt    "P 1"
_space_group_IT_number       1

loop_
  _space_group_symop_operation_xyz
  'x, y, z'

loop_
  _atom_site_type_symbol
  _atom_site_label
  _atom_site_symmetry_multiplicity
  _atom_site_fract_x
  _atom_site_fract_y
  _atom_site_fract_z
  _atom_site_occupancy
  Cd  Cd1       1.0  0.8672321639375722  0.780429004768379  0.6066405309685263  1.0000
  Cd  Cd2       1.0  0.1327728960787056  0.21957397603829779  0.3933588243509119  1.0000
  Cd  Cd3       1.0  0.32329629373838026  0.3987626613555759  0.6582822236117207  1.0000
  Cd  Cd4       1.0  0.6767094420781488  0.6012329483357917  0.34171988957878324  1.0000
  H   H1        1.0  0.7439538229942285  0.49233659025615134  0.9265511075029235  1.0000
  H   H2        1.0  0.25604506727076887  0.507666357009931  0.07344747386495246  1.0000
  H   H3        1.0  0.684594039513044  0.46320339499152396  0.11863815941189422  1.0000
  H   H4        1.0  0.3153848162901483  0.5368043507873564  0.8813595484167605  1.0000
  H   H5        1.0  0.7449209778271493  0.12039703550951229  0.022075038772904173  1.0000
  H   H6        1.0  0.2550836314768716  0.8796022520398591  0.9779268796961699  1.0000
  H   H7        1.0  0.6779053672074156  0.9732490327228404  0.20263583494327952  1.0000
  H   H8        1.0  0.3220996407920679  0.026749033549961602  0.797364440488877  1.0000
  H   H9        1.0  0.8728267525305992  0.025171278705570902  0.7838107701710368  1.0000
  H   H10       1.0  0.1271774998222881  0.9748292385373457  0.21618971703563966  1.0000
  C   C1        1.0  0.7588254473833231  0.6838977925442434  0.9794829056325224  1.0000
  C   C2        1.0  0.24117534922801548  0.31610393481626886  0.020516788102419487  1.0000
  C   C3        1.0  0.7603318924664891  0.8976839056464666  0.021226253642893853  1.0000
  C   C4        1.0  0.2396692750107547  0.10231659482615638  0.978773846587998  1.0000
  S   S1        1.0  0.6387065561470492  0.19016321970832442  0.42635487607511624  1.0000
  S   S2        1.0  0.3612915681988866  0.8098372724109878  0.5736417628806902  1.0000
  S   S3        1.0  0.17245590693210022  0.6274781815076054  0.30308815749538087  1.0000
  S   S4        1.0  0.8275459605326319  0.372519856772257  0.6969158300267322  1.0000
  N   N1        1.0  0.8122990290462012  0.7936029003321179  0.8404945069011731  1.0000
  N   N2        1.0  0.18770368782625005  0.20639760992848716  0.15950527443439455  1.0000
  N   N3        1.0  0.7264888220785438  0.7435842721869859  0.09359045588201559  1.0000
  N   N4        1.0  0.2735123453987071  0.2564162282856373  0.9064096443488835  1.0000
  N   N5        1.0  0.810822620088764  0.929786353914558  0.8689682266930698  1.0000
  N   N6        1.0  0.18918237399594057  0.07021170955258069  0.13103307350552026  1.0000
  N   N7        1.0  0.7409589028838963  0.5321822399467208  0.009539192130809178  1.0000
  N   N8        1.0  0.25904227850812583  0.4678182633315585  0.990459883333649  1.0000
  N   N9        1.0  0.7475991760485101  3.7508768947700626e-05  0.08970989551293938  1.0000
  N   N10       1.0  0.2524039116898536  0.9999617746037684  0.9102902923185848  1.0000
  O   O1        1.0  0.800270525934863  0.03452433618222269  0.432092814212197  1.0000
  O   O2        1.0  0.1997160562994439  0.9654736463027613  0.5678989907666575  1.0000
  O   O3        1.0  0.4958208172400019  0.22878636342863243  0.3211598829323704  1.0000
  O   O4        1.0  0.5041778479370078  0.771227648210079  0.6788333774148041  1.0000
  O   O5        1.0  0.02956320777711601  0.7665068549080158  0.3493168924178249  1.0000
  O   O6        1.0  0.9704371242071871  0.23349117638952777  0.650686389233179  1.0000
  O   O7        1.0  0.04409402483540245  0.504535715801822  0.33781479069835274  1.0000
  O   O8        1.0  0.9559097628904492  0.4954611053781335  0.6621892844243928  1.0000
  O   O9        1.0  0.7641640282826144  0.3216076481668394  0.3614454291914483  1.0000
  O   O10       1.0  0.23584205057026253  0.6783867290253127  0.6385591400278797  1.0000
  O   O11       1.0  0.5150178418502448  0.17780550421503694  0.584046503431125  1.0000
  O   O12       1.0  0.4849767747373477  0.8221912834879815  0.41595026216565845  1.0000
  O   O13       1.0  0.26897785118066514  0.6824292814138814  0.13970595761206536  1.0000
  O   O14       1.0  0.7310240162840741  0.3175687568659811  0.8602980299100406  1.0000
  O   O15       1.0  0.34524663895603414  0.5393421930127998  0.39589778773594714  1.0000
  O   O16       1.0  0.6547564070380004  0.4606570819429335  0.6041054743948845  1.0000
