data_image0
_chemical_formula_structural       KCu2AgH40C40N6O8
_chemical_formula_sum              "K1 Cu2 Ag1 H40 C40 N6 O8"
_cell_length_a       9.741054811496031
_cell_length_b       10.279820115234005
_cell_length_c       10.279813530880269
_cell_angle_alpha    96.34990357475822
_cell_angle_beta     100.97221023891068
_cell_angle_gamma    100.97235386274835

_space_group_name_H-M_alt    "P 1"
_space_group_IT_number       1

loop_
  _space_group_symop_operation_xyz
  'x, y, z'

loop_
  _atom_site_type_symbol
  _atom_site_label
  _atom_site_symmetry_multiplicity
  _atom_site_fract_x
  _atom_site_fract_y
  _atom_site_fract_z
  _atom_site_occupancy
  K   K1        1.0  0.9999714836084053  0.9999672262436407  0.9999674980533583  1.0000
  Cu  Cu1       1.0  0.6777331265887198  0.10673488823250213  0.1067336605330951  1.0000
  Cu  Cu2       1.0  0.322275300402353  0.8932745522081404  0.8932761760705288  1.0000
  Ag  Ag1       1.0  1.1065417666582096e-05  0.4999933724280154  0.49998947506274033  1.0000
  H   H1        1.0  0.3434822962765621  0.1270568067626101  0.1270572765363696  1.0000
  H   H2        1.0  0.656505677903219  0.8729455764503768  0.8729432693074484  1.0000
  H   H3        1.0  0.3386000188593598  0.254836804865107  0.25483619872469626  1.0000
  H   H4        1.0  0.6613924945782371  0.7451625786825175  0.7451648316857628  1.0000
  H   H5        1.0  0.843890878814406  0.5472184155350773  0.2074513266230866  1.0000
  H   H6        1.0  0.15612019541120498  0.7925480202313651  0.4527923069783028  1.0000
  H   H7        1.0  0.15612043411137216  0.452790007479436  0.7925491872395724  1.0000
  H   H8        1.0  0.8438883728366732  0.20744838938786359  0.547215161080075  1.0000
  H   H9        1.0  0.6127130098850841  0.7516416130296905  0.4506227243629579  1.0000
  H   H10       1.0  0.38728224065124556  0.5493699984771184  0.24835968599313665  1.0000
  H   H11       1.0  0.3872870432720886  0.24835877265361722  0.5493739268365657  1.0000
  H   H12       1.0  0.6127253763301467  0.4506314110141503  0.7516432932876782  1.0000
  H   H13       1.0  0.009690500180191481  0.612397713995776  0.09090673599234118  1.0000
  H   H14       1.0  0.9902986769302443  0.9090946435658507  0.38761681890228045  1.0000
  H   H15       1.0  0.9903032708524149  0.38761169386784633  0.9090956124523968  1.0000
  H   H16       1.0  0.009689330119499595  0.09090776920022849  0.6123983277945583  1.0000
  H   H17       1.0  0.976440717522898  0.6495923623175982  0.9225621634237624  1.0000
  H   H18       1.0  0.023553358358689998  0.0774305966306201  0.35040304532687827  1.0000
  H   H19       1.0  0.023555398366575282  0.35039999739750977  0.07743193571656089  1.0000
  H   H20       1.0  0.9764377619223196  0.922562761502405  0.6495922149745254  1.0000
  H   H21       1.0  0.8430505489856868  0.5342233211801357  0.9763138869400902  1.0000
  H   H22       1.0  0.15694753168457956  0.023683640577012  0.46577123289083733  1.0000
  H   H23       1.0  0.15694917680842477  0.46577105844372096  0.02368594189132977  1.0000
  H   H24       1.0  0.8430491528912611  0.9763157376425156  0.5342247060949532  1.0000
  H   H25       1.0  0.7275888602436139  0.5606132325724856  0.4012700028258179  1.0000
  H   H26       1.0  0.2724289623423672  0.5987332776527269  0.4393985648258435  1.0000
  H   H27       1.0  0.2724336132630326  0.43939822233748765  0.5987367284680118  1.0000
  H   H28       1.0  0.7275967849405374  0.4012741832257092  0.5606131802301632  1.0000
  H   H29       1.0  0.576427251988072  0.22827232301119688  0.3844670905340449  1.0000
  H   H30       1.0  0.4235681751655349  0.6155289829963734  0.7717342359437467  1.0000
  H   H31       1.0  0.4235667551064139  0.7717290555263289  0.6155285878170246  1.0000
  H   H32       1.0  0.5764251627422893  0.384469407461431  0.22827072473031507  1.0000
  H   H33       1.0  0.43053875844427836  0.0896509554764151  0.3679711720276514  1.0000
  H   H34       1.0  0.5694589568656596  0.6320350884166004  0.9103554275505842  1.0000
  H   H35       1.0  0.569458402204198  0.9103504417224145  0.6320318817422219  1.0000
  H   H36       1.0  0.4305372656643129  0.3679713204755047  0.08964897778293587  1.0000
  H   H37       1.0  0.5393719223623208  0.9405848731516213  0.3982301105831495  1.0000
  H   H38       1.0  0.46062300292749103  0.6017653193697755  0.059410949791676146  1.0000
  H   H39       1.0  0.4606265204195877  0.059408496344396204  0.6017664603221886  1.0000
  H   H40       1.0  0.5393747255285816  0.3982340585028368  0.9405842030330401  1.0000
  C   C1        1.0  0.6718572194155853  0.8515526757611623  0.2884547503752941  1.0000
  C   C2        1.0  0.32814335283298846  0.7115444298070271  0.14845318332852728  1.0000
  C   C3        1.0  0.328149226889316  0.1484527408592484  0.7115484565526202  1.0000
  C   C4        1.0  0.6718656551136704  0.2884630031286335  0.8515545926711352  1.0000
  C   C5        1.0  0.7441677935719468  0.8496629522282078  0.18049042290567735  1.0000
  C   C6        1.0  0.2558314162646552  0.8195045177724153  0.15034074273034995  1.0000
  C   C7        1.0  0.25583864615896346  0.1503424584815889  0.8195098638516213  1.0000
  C   C8        1.0  0.7441753937771549  0.18049790057032308  0.8496660934084729  1.0000
  C   C9        1.0  0.4112635705504247  0.2062553748444174  0.20625413898335407  1.0000
  C   C10       1.0  0.5887278924329564  0.7937440031395084  0.7937447574175707  1.0000
  C   C11       1.0  0.8040338690099985  0.7347018384578518  0.15125832320607907  1.0000
  C   C12       1.0  0.19596161385100427  0.8487371270635579  0.26530036300000853  1.0000
  C   C13       1.0  0.19596769752604357  0.2653005599472209  0.8487417364458665  1.0000
  C   C14       1.0  0.8040371782072666  0.15126226819398167  0.734702764175452  1.0000
  C   C15       1.0  0.7966281272876613  0.6328562909355425  0.2291370737433168  1.0000
  C   C16       1.0  0.2033778871937031  0.7708587557394324  0.3671536512853775  1.0000
  C   C17       1.0  0.20338190700856976  0.3671511258915458  0.7708621289736681  1.0000
  C   C18       1.0  0.7966311439788141  0.22913966103785546  0.6328550912158875  1.0000
  C   C19       1.0  0.9265465487905898  0.34505552890288266  0.3450570841085465  1.0000
  C   C20       1.0  0.0734601283147569  0.6549328166203808  0.6549277651546674  1.0000
  C   C21       1.0  0.6678851049941983  0.7469648431136661  0.36789651421493363  1.0000
  C   C22       1.0  0.33211903173691576  0.6320993391937861  0.2530418700175899  1.0000
  C   C23       1.0  0.3321242382020628  0.25303956593163685  0.6321022369230248  1.0000
  C   C24       1.0  0.6678942872922278  0.36790409345280034  0.7469672134125744  1.0000
  C   C25       1.0  0.9275471759665307  0.6261934337810828  0.007092616093167679  1.0000
  C   C26       1.0  0.07244310590345998  0.9929013079129091  0.37380588725773106  1.0000
  C   C27       1.0  0.0724469579242211  0.3738039379742304  0.9929036207718696  1.0000
  C   C28       1.0  0.9275461635577358  0.0070930594185015  0.6261940160627546  1.0000
  C   C29       1.0  0.7297427085437459  0.6402603737652867  0.33949289562532664  1.0000
  C   C30       1.0  0.2702696054937022  0.6605092914071449  0.3597473159346407  1.0000
  C   C31       1.0  0.27027315021383896  0.35974505549448577  0.6605110229745819  1.0000
  C   C32       1.0  0.7297498587858655  0.33949815382096193  0.6402603855759565  1.0000
  C   C33       1.0  0.5008454704323951  0.14670322104647937  0.31196141764269913  1.0000
  C   C34       1.0  0.4991495986156949  0.6880391395660226  0.8532998411817657  1.0000
  C   C35       1.0  0.4991478565187747  0.8532951595602966  0.688038676080353  1.0000
  C   C36       1.0  0.5008444216267803  0.311962250792746  0.14670167751051363  1.0000
  C   C37       1.0  0.5965951504241999  0.954549776532815  0.31636656135353286  1.0000
  C   C38       1.0  0.40340141087455084  0.6836328783190382  0.04545268299264648  1.0000
  C   C39       1.0  0.4034049114982992  0.04545061703132089  0.6836339834067999  1.0000
  C   C40       1.0  0.5965995790885614  0.31637153153143055  0.954551384043661  1.0000
  N   N1        1.0  0.8829193636060211  0.25586338589594954  0.2558674280733512  1.0000
  N   N2        1.0  0.1170666333914809  0.744125939606569  0.7441186940845411  1.0000
  N   N3        1.0  0.5845883610284089  0.058500425379627095  0.2570211904968218  1.0000
  N   N4        1.0  0.41540673008151424  0.7429781312258754  0.941504472416689  1.0000
  N   N5        1.0  0.4154066987116281  0.9415009606918048  0.7429775952539899  1.0000
  N   N6        1.0  0.5845911216669251  0.25702627375473247  0.058499032932211  1.0000
  O   O1        1.0  0.8684415346460524  0.7387074829778798  0.04373777393458053  1.0000
  O   O2        1.0  0.13153524182512644  0.9562437651432987  0.26128766564158906  1.0000
  O   O3        1.0  0.13154479628850166  0.2612878544947179  0.9562480907620241  1.0000
  O   O4        1.0  0.8684418485921694  0.0437385564514088  0.7387087463005954  1.0000
  O   O5        1.0  0.75899516747792  0.9445262608145624  0.10756459867780414  1.0000
  O   O6        1.0  0.24100253282173867  0.8924322306009101  0.05547832508936777  1.0000
  O   O7        1.0  0.24101150919363326  0.055480158399774424  0.8924387587764496  1.0000
  O   O8        1.0  0.759004385173128  0.10757520105838837  0.9445300498422353  1.0000
