data_image0
_chemical_formula_structural       Cu4H32C38N16O8
_chemical_formula_sum              "Cu4 H32 C38 N16 O8"
_cell_length_a       9.754105468999963
_cell_length_b       10.963885411158932
_cell_length_c       12.195301903564852
_cell_angle_alpha    66.73391951385477
_cell_angle_beta     78.54471937420986
_cell_angle_gamma    64.34098031710104

_space_group_name_H-M_alt    "P 1"
_space_group_IT_number       1

loop_
  _space_group_symop_operation_xyz
  'x, y, z'

loop_
  _atom_site_type_symbol
  _atom_site_label
  _atom_site_symmetry_multiplicity
  _atom_site_fract_x
  _atom_site_fract_y
  _atom_site_fract_z
  _atom_site_occupancy
  Cu  Cu1       1.0  0.3608538077976958  0.14232765925524402  0.5034887759518585  1.0000
  Cu  Cu2       1.0  0.6391456144307952  0.8576707022694094  0.4965124125154219  1.0000
  Cu  Cu3       1.0  0.3174185157977121  0.39108833301949636  0.6100682880168122  1.0000
  Cu  Cu4       1.0  0.6825809143676691  0.6089100358293466  0.38993453653257176  1.0000
  H   H1        1.0  0.04668648814866561  0.8888841493104496  0.27347266228758116  1.0000
  H   H2        1.0  0.9533120409191298  0.1111163760540137  0.7265287140558243  1.0000
  H   H3        1.0  0.1492519662767292  0.7216151895794526  0.3816556505257935  1.0000
  H   H4        1.0  0.8507470113556365  0.2783842556961532  0.6183460409000717  1.0000
  H   H5        1.0  0.008969850988321953  0.9125178715319608  0.08133026487510613  1.0000
  H   H6        1.0  0.991027632222732  0.0874826534098858  0.9186712820532679  1.0000
  H   H7        1.0  0.09012253075488269  0.8201186122355325  0.9120424510835791  1.0000
  H   H8        1.0  0.9098776414618256  0.1798829940630213  0.08795826900740884  1.0000
  H   H9        1.0  0.25638836236133494  0.5604390362282814  0.9501742470339212  1.0000
  H   H10       1.0  0.7436147986979976  0.43956041073779756  0.04982676205204236  1.0000
  H   H11       1.0  0.3372848974702336  0.3965254080965863  0.15685371903132514  1.0000
  H   H12       1.0  0.6627157193425999  0.6034751144510153  0.8431464981010709  1.0000
  H   H13       1.0  0.36410105492775807  0.6609813916746177  0.5381392969398321  1.0000
  H   H14       1.0  0.6358987841177495  0.33901586046444265  0.4618556622814723  1.0000
  H   H15       1.0  0.21997441388820252  0.9056998229436102  0.5541134316138782  1.0000
  H   H16       1.0  0.7800267406901397  0.09430172518408142  0.4458740292352631  1.0000
  H   H17       1.0  0.9598626540059098  0.9609582602282174  0.6543860999732873  1.0000
  H   H18       1.0  0.04014031625960969  0.0390465514064573  0.3456048121198592  1.0000
  H   H19       1.0  0.8558101887429356  0.7687332394061103  0.7354173832346619  1.0000
  H   H20       1.0  0.14419177138184117  0.23127160476477832  0.2645810618129546  1.0000
  H   H21       1.0  0.013654117825851166  0.5289446443787611  0.7108023321419028  1.0000
  H   H22       1.0  0.9863460662961925  0.4710569729060694  0.28920084207224767  1.0000
  H   H23       1.0  0.24159128934863355  0.11184541591252642  0.04924936909051071  1.0000
  H   H24       1.0  0.7584085814444209  0.8881518655232764  0.9507521344592293  1.0000
  H   H25       1.0  0.18841707182147613  0.22675893536866457  0.8294070467662851  1.0000
  H   H26       1.0  0.8115829516676314  0.7732405103295578  0.1705944740746049  1.0000
  H   H27       1.0  0.5238271947956719  0.38703926510117265  0.7561395458990605  1.0000
  H   H28       1.0  0.47617194743806834  0.6129623554231286  0.2438646169411243  1.0000
  H   H29       1.0  0.5865711490304619  0.28421208636011386  0.9723504920409954  1.0000
  H   H30       1.0  0.41342635005436523  0.7157884532300968  0.027654327051600223  1.0000
  H   H31       1.0  0.4434570324752512  0.14144796269951604  0.12124373842349462  1.0000
  H   H32       1.0  0.5565403059766467  0.8585504053040935  0.8787594272958404  1.0000
  C   C1        1.0  0.9193357670840924  0.7578344830937312  0.3684847245614834  1.0000
  C   C2        1.0  0.0806652943248594  0.24216495570292548  0.6315149896123203  1.0000
  C   C3        1.0  0.0681858154671105  0.7736452873091365  0.3101728384127399  1.0000
  C   C4        1.0  0.9318121123400687  0.22635415388175764  0.6898282055570493  1.0000
  C   C5        1.0  0.12953181821711024  0.7093364526879  0.21359717663356292  1.0000
  C   C6        1.0  0.870469102401131  0.2906608328326143  0.7864049743722537  1.0000
  C   C7        1.0  0.08271146759177135  0.799191771160281  0.09675174572924308  1.0000
  C   C8        1.0  0.9172885519288911  0.20080767087584664  0.9032489570705878  1.0000
  C   C9        1.0  0.12605472198355724  0.7475208101663995  0.0023291609143213953  1.0000
  C   C10       1.0  0.8739473852821432  0.2524786290528809  0.9976703826745139  1.0000
  C   C11       1.0  0.2189040392506385  0.6018685084286872  0.02351269167735382  1.0000
  C   C12       1.0  0.7811001636969834  0.3981309352979139  0.9764873287825754  1.0000
  C   C13       1.0  0.2650999300866914  0.5103345384566822  0.13896151698425296  1.0000
  C   C14       1.0  0.7349021851158994  0.4896649080867802  0.861039662686686  1.0000
  C   C15       1.0  0.22171938539291602  0.5619667499292191  0.23464887101479798  1.0000
  C   C16       1.0  0.7782821285490512  0.4380316124406747  0.765351976282524  1.0000
  C   C17       1.0  0.27233730744079293  0.45322637014362516  0.3571263999621408  1.0000
  C   C18       1.0  0.7276612255954475  0.5467741588829255  0.6428757944223167  1.0000
  C   C19       1.0  0.2512280938138218  0.6889661766031239  0.5814633835966988  1.0000
  C   C20       1.0  0.7487704074748649  0.311034323126691  0.4185322664593232  1.0000
  C   C21       1.0  0.17090626448359825  0.8248015637253943  0.5907700773819259  1.0000
  C   C22       1.0  0.8290944653408371  0.17520108646371568  0.40922197663107346  1.0000
  C   C23       1.0  0.027087598048602526  0.854966311556943  0.6471998142587978  1.0000
  C   C24       1.0  0.972913284471879  0.14503850289458597  0.35279225704535844  1.0000
  C   C25       1.0  0.9686629070323108  0.7483146156261141  0.6927557560196366  1.0000
  C   C26       1.0  0.031338443894966976  0.2516891370470161  0.30724072057225277  1.0000
  C   C27       1.0  0.05506290583299031  0.6150028553584264  0.6796869561039646  1.0000
  C   C28       1.0  0.944935767993961  0.3849998269442736  0.32031280144848046  1.0000
  C   C29       1.0  0.3055064781052578  0.17282555285319753  0.9868551678767334  1.0000
  C   C30       1.0  0.6944929480916784  0.8271728123335507  0.013146838631598655  1.0000
  C   C31       1.0  0.2763875482665767  0.23463155109498504  0.8656578346299995  1.0000
  C   C32       1.0  0.7236120226895081  0.76536897103  0.1343425530873717  1.0000
  C   C33       1.0  0.4636301626246109  0.3260798927324941  0.8243431372036554  1.0000
  C   C34       1.0  0.5363698648329347  0.6739195566278228  0.17565920167829327  1.0000
  C   C35       1.0  0.49833689732339076  0.26810522470533016  0.944354177073045  1.0000
  C   C36       1.0  0.5016610384206786  0.7318942238097534  0.055648502978847714  1.0000
  C   C37       1.0  0.4183582323379794  0.18965500727855297  0.026789453555764554  1.0000
  C   C38       1.0  0.5816411978273949  0.8103433615702895  0.9732133709936265  1.0000
  N   N1        1.0  0.35459738771262284  0.3093717729701737  0.7862065200081292  1.0000
  N   N2        1.0  0.6454036895701094  0.6906276804748472  0.21379646632989605  1.0000
  N   N3        1.0  0.19337334348666246  0.5866952408526842  0.6245033783679547  1.0000
  N   N4        1.0  0.8066245803520716  0.41330419667611545  0.37549684756077545  1.0000
  N   N5        1.0  0.6756970704837212  0.042044207582804895  0.7278966037119903  1.0000
  N   N6        1.0  0.32430280030933284  0.9579530738529911  0.27210489983775  1.0000
  N   N7        1.0  0.5794359527092894  0.12799337798908536  0.6613112048887402  1.0000
  N   N8        1.0  0.4205604767081325  0.8720071392059553  0.3386888765424985  1.0000
  N   N9        1.0  0.4829730846934766  0.21481558017357827  0.5889361321722577  1.0000
  N   N10       1.0  0.5170258969073344  0.785183868764115  0.4110663772946595  1.0000
  N   N11       1.0  0.5348627578382336  0.06704056424352701  0.3942760328072552  1.0000
  N   N12       1.0  0.46513546186902466  0.9329556289339893  0.6057244909127917  1.0000
  N   N13       1.0  0.5811220523589071  0.1341550748267366  0.3007196800362948  1.0000
  N   N14       1.0  0.4188751214916094  0.8658411179281628  0.6992810142687208  1.0000
  N   N15       1.0  0.6246880500670214  0.1989657929570896  0.21070489446017862  1.0000
  N   N16       1.0  0.3753106142363548  0.8010293164694816  0.7892951263012763  1.0000
  O   O1        1.0  0.8328289085908266  0.8555363078889188  0.41314391721277866  1.0000
  O   O2        1.0  0.16716841001884572  0.1444620418042248  0.5868551583012833  1.0000
  O   O3        1.0  0.8923852433479097  0.6558032884126419  0.3684977160747281  1.0000
  O   O4        1.0  0.1076152207688779  0.3441950698725408  0.6315024837665179  1.0000
  O   O5        1.0  0.3083820671377565  0.49147920059652966  0.42969270338834065  1.0000
  O   O6        1.0  0.691616317170876  0.5085191678296893  0.5703102917460185  1.0000
  O   O7        1.0  0.2753277878192293  0.329262167657852  0.37551874727598294  1.0000
  O   O8        1.0  0.724670733311676  0.6707383503824219  0.6244809929853049  1.0000
