data_image0
_chemical_formula_structural       Zn8H30C48N6O26
_chemical_formula_sum              "Zn8 H30 C48 N6 O26"
_cell_length_a       18.36793084635098
_cell_length_b       18.23485791374825
_cell_length_c       18.387036882494048
_cell_angle_alpha    60.557090073310455
_cell_angle_beta     60.876253662618424
_cell_angle_gamma    60.17544609805885

_space_group_name_H-M_alt    "P 1"
_space_group_IT_number       1

loop_
  _space_group_symop_operation_xyz
  'x, y, z'

loop_
  _atom_site_type_symbol
  _atom_site_label
  _atom_site_symmetry_multiplicity
  _atom_site_fract_x
  _atom_site_fract_y
  _atom_site_fract_z
  _atom_site_occupancy
  Zn  Zn1       1.0  0.04456474460067739  0.8499267152791817  0.0518147171883285  1.0000
  Zn  Zn2       1.0  0.04461116116961251  0.0286497750110755  0.0484596841784395  1.0000
  Zn  Zn3       1.0  0.8720564699316143  0.025861808119856396  0.04810399918216039  1.0000
  Zn  Zn4       1.0  0.04541459843157728  0.023169865416015498  0.8774970839831937  1.0000
  Zn  Zn5       1.0  0.459290346932896  0.6104567143501568  0.4684420879134236  1.0000
  Zn  Zn6       1.0  0.45609487705121426  0.43666078152587295  0.4628609668966419  1.0000
  Zn  Zn7       1.0  0.45831385315396767  0.4402954677279352  0.6330380800145079  1.0000
  Zn  Zn8       1.0  0.6315361250493084  0.4402472103275982  0.4650700852133197  1.0000
  H   H1        1.0  0.18851336102016353  0.6652948399343259  0.2270063422201005  1.0000
  H   H2        1.0  0.2818374762232594  0.5739221074116826  0.32650691328315423  1.0000
  H   H3        1.0  0.28467907112032986  0.8918131045062908  0.27896220057480997  1.0000
  H   H4        1.0  0.3369595896259554  0.7891125812437566  0.3471206251022991  1.0000
  H   H5        1.0  0.21090120365945353  0.9029648820083905  0.19687676864350584  1.0000
  H   H6        1.0  0.9130691913827748  0.6612880071191682  0.1929861711006353  1.0000
  H   H7        1.0  0.8121005370451118  0.5703043880571171  0.28886983516422043  1.0000
  H   H8        1.0  0.5462845542578307  0.8887299883879719  0.29908645797053884  1.0000
  H   H9        1.0  0.5272590392250508  0.7866387182903978  0.3524392239554787  1.0000
  H   H10       1.0  0.688777272297493  0.8992508613176468  0.22108066144679134  1.0000
  H   H11       1.0  0.16988112676630615  0.6656958535458484  0.9113958351387268  1.0000
  H   H12       1.0  0.2704096334023661  0.5740498550409255  0.8104578731315756  1.0000
  H   H13       1.0  0.3886411969126798  0.8552223267309671  0.5865826944129822  1.0000
  H   H14       1.0  0.42230504868982177  0.7627234402847946  0.5569784956143239  1.0000
  H   H15       1.0  0.2649992686736198  0.8825328526387465  0.7134028852938741  1.0000
  H   H16       1.0  0.6848223011609278  0.21950421138496526  0.17587980250731053  1.0000
  H   H17       1.0  0.5923146202805256  0.311377368788797  0.27663576812231844  1.0000
  H   H18       1.0  0.8951648345056001  0.19760436912800114  0.34663300422841564  1.0000
  H   H19       1.0  0.7942555689663494  0.2721753984528732  0.393409015002142  1.0000
  H   H20       1.0  0.9114296796716205  0.14539543149811596  0.24321676945442763  1.0000
  H   H21       1.0  0.21613276043379415  0.1675004074944156  0.6903456974572464  1.0000
  H   H22       1.0  0.31320908974325334  0.26260518623154644  0.5961001368368172  1.0000
  H   H23       1.0  0.22878422530163078  0.31785929497070964  0.8968478711783305  1.0000
  H   H24       1.0  0.3011449788826185  0.36362771540452593  0.7960977871119681  1.0000
  H   H25       1.0  0.17421581293172042  0.21458304782250096  0.9169207740795855  1.0000
  H   H26       1.0  0.9122768300410868  0.2047066400062221  0.6900772275772198  1.0000
  H   H27       1.0  0.8105164118604835  0.30453446037859067  0.5988561883573525  1.0000
  H   H28       1.0  0.5530575952196699  0.19783441719280878  0.8983407555889259  1.0000
  H   H29       1.0  0.5318742103304004  0.274734454639507  0.7985583494775883  1.0000
  H   H30       1.0  0.6925676420041286  0.1415519917326335  0.9157242745371691  1.0000
  C   C1        1.0  0.13953713348232102  0.8461815435594533  0.14634864598826883  1.0000
  C   C2        1.0  0.19481335923565982  0.7897516579908626  0.2063621477896902  1.0000
  C   C3        1.0  0.21420325490236533  0.6963431291440756  0.24262064977946807  1.0000
  C   C4        1.0  0.26565212220675966  0.6462815642538259  0.29761480403449536  1.0000
  C   C5        1.0  0.29867368739189  0.6858013736033541  0.3190484810530663  1.0000
  C   C6        1.0  0.353512245222511  0.6265266212686739  0.37807767528412484  1.0000
  C   C7        1.0  0.2787023227546826  0.7806092618116196  0.2825340652229329  1.0000
  C   C8        1.0  0.22664244711543802  0.830553510685547  0.22602716608843562  1.0000
  C   C9        1.0  0.8635107557041836  0.8424851716320774  0.14518041285524672  1.0000
  C   C10       1.0  0.8055263418336198  0.785887198626099  0.2019431187371552  1.0000
  C   C11       1.0  0.8420524070119414  0.692444514368148  0.22054474975599447  1.0000
  C   C12       1.0  0.7860917158759833  0.6426314367485659  0.2734896227216481  1.0000
  C   C13       1.0  0.6939092159714376  0.6824027026382283  0.30920623316653467  1.0000
  C   C14       1.0  0.6390410661581143  0.6240808839721693  0.3643685071061427  1.0000
  C   C15       1.0  0.6570530703345556  0.7771172402295644  0.29070374492645357  1.0000
  C   C16       1.0  0.7150520715885237  0.8268311506836099  0.23642673434116554  1.0000
  C   C17       1.0  0.14939191873806115  0.8378451200293284  0.8733212666338234  1.0000
  C   C18       1.0  0.21226529115408965  0.779606427097107  0.8169477530132243  1.0000
  C   C19       1.0  0.2134312583788969  0.6918050324933774  0.8464433513166227  1.0000
  C   C20       1.0  0.2690151649388925  0.6416236682099592  0.7905149250689193  1.0000
  C   C21       1.0  0.32477107487954976  0.6754346778712303  0.7057468510153839  1.0000
  C   C22       1.0  0.3789683179856525  0.6180401518281898  0.6497194173730492  1.0000
  C   C23       1.0  0.3256591758526144  0.7634694259395258  0.6769052252125219  1.0000
  C   C24       1.0  0.26759592071756083  0.8141618443928637  0.7344476430429766  1.0000
  C   C25       1.0  0.861572226513026  0.12293790888910644  0.1436617676678154  1.0000
  C   C26       1.0  0.8038850342411764  0.17748395235248898  0.2041173020690934  1.0000
  C   C27       1.0  0.7131566017756797  0.22364705641381724  0.2131557986476551  1.0000
  C   C28       1.0  0.6623996473370328  0.2740824651752617  0.26902995928170276  1.0000
  C   C29       1.0  0.6983555917609582  0.28045606523441063  0.31740285874860774  1.0000
  C   C30       1.0  0.639625753139825  0.3379301769120103  0.37361172238521334  1.0000
  C   C31       1.0  0.7901085161073881  0.23225832463181448  0.30942998034586816  1.0000
  C   C32       1.0  0.8410571775669595  0.18186135169045772  0.2513693412354386  1.0000
  C   C33       1.0  0.13344584248715563  0.12793508624888258  0.8674965054861375  1.0000
  C   C34       1.0  0.19004200933891724  0.18591959652126644  0.8094095428240706  1.0000
  C   C35       1.0  0.22861895407675797  0.1990953764371496  0.7182359045857113  1.0000
  C   C36       1.0  0.2819079124184185  0.2517121906417188  0.6666485025336399  1.0000
  C   C37       1.0  0.29825062678317965  0.293140731137079  0.7021906701139075  1.0000
  C   C38       1.0  0.3563042272794237  0.34802169295645774  0.6425491905924048  1.0000
  C   C39       1.0  0.25809608950963536  0.28075616117422436  0.7944952156817778  1.0000
  C   C40       1.0  0.2046208822247381  0.22610671174786037  0.8461726741438014  1.0000
  C   C41       1.0  0.864997274850268  0.11087030447116325  0.8656777330208102  1.0000
  C   C42       1.0  0.8071149409484379  0.16764502055049488  0.8083741896851323  1.0000
  C   C43       1.0  0.8422621877370986  0.21267943210918352  0.7182651397912564  1.0000
  C   C44       1.0  0.7858400513768234  0.2674291744993268  0.6683052997994423  1.0000
  C   C45       1.0  0.6948408756212459  0.27851156645228775  0.7043080947803374  1.0000
  C   C46       1.0  0.6395706003330659  0.3392998454777823  0.646177752419142  1.0000
  C   C47       1.0  0.6596179255725332  0.2312512137841339  0.7953545869501255  1.0000
  C   C48       1.0  0.7180160144780389  0.17682308763777133  0.8456788171075617  1.0000
  N   N1        1.0  0.3097741471869854  0.8242515990303474  0.29788656541207104  1.0000
  N   N2        1.0  0.5689566036210039  0.821237184256752  0.32519254747158044  1.0000
  N   N3        1.0  0.3788685955747512  0.8006602444258633  0.5966428258960407  1.0000
  N   N4        1.0  0.8298615274294506  0.23188509009183642  0.355718115303894  1.0000
  N   N5        1.0  0.2702849466946589  0.31738190471469363  0.8354099391014529  1.0000
  N   N6        1.0  0.5730764933437628  0.23700848265175992  0.835431557533262  1.0000
  O   O1        1.0  0.001972606743244399  0.981380781725818  0.006747491441558399  1.0000
  O   O2        1.0  0.12317137917347765  0.930608117655481  0.11726909672764659  1.0000
  O   O3        1.0  0.113318364661275  0.8052312237555553  0.12906897943839368  1.0000
  O   O4        1.0  0.37680612182750656  0.542140967526187  0.3981088386517159  1.0000
  O   O5        1.0  0.37440915627787774  0.664053887431514  0.40601419699153507  1.0000
  O   O6        1.0  0.82485134349475  0.9271097790431643  0.127360954828923  1.0000
  O   O7        1.0  0.9468264674543504  0.8016719020097796  0.1194332073509088  1.0000
  O   O8        1.0  0.6783406474931937  0.5392558844342477  0.3844809139892433  1.0000
  O   O9        1.0  0.5541261179351197  0.6624332198041144  0.3888804976753022  1.0000
  O   O10       1.0  0.13162237493916962  0.9221470495473555  0.834090355078864  1.0000
  O   O11       1.0  0.11822953186119635  0.798669004938418  0.9556130186037349  1.0000
  O   O12       1.0  0.3869857134276702  0.5350803492657688  0.6864750638389054  1.0000
  O   O13       1.0  0.4145927172574916  0.6545268545928804  0.5665994905889918  1.0000
  O   O14       1.0  0.8227085853621292  0.10872962811751562  0.1125025160192266  1.0000
  O   O15       1.0  0.9451119662810047  0.09475922045562873  0.12809525383246978  1.0000
  O   O16       1.0  0.6757381966591042  0.35094888737901897  0.4095456377211307  1.0000
  O   O17       1.0  0.5568709708240507  0.37183496418133183  0.38300517881572205  1.0000
  O   O18       1.0  0.11336829682034016  0.10197658938488276  0.8288260437468651  1.0000
  O   O19       1.0  0.1099333936844786  0.10891591800227464  0.9508143275420693  1.0000
  O   O20       1.0  0.3712947103281581  0.38338348440203185  0.6775728803747185  1.0000
  O   O21       1.0  0.38843073208726525  0.35775573219060425  0.5602773157829475  1.0000
  O   O22       1.0  0.9485622834965856  0.09120714681503019  0.8269258778344551  1.0000
  O   O23       1.0  0.8259988662460457  0.08707202340498549  0.9488476421343607  1.0000
  O   O24       1.0  0.555714192527944  0.35129716543893624  0.6806091418972429  1.0000
  O   O25       1.0  0.6771499955203737  0.37724872848399843  0.5650917461294328  1.0000
  O   O26       1.0  0.5019480390558758  0.4810154843710348  0.5048648735979951  1.0000
