data_image0
_chemical_formula_structural       Zn2H28C64N4O16
_chemical_formula_sum              "Zn2 H28 C64 N4 O16"
_cell_length_a       14.254811651838368
_cell_length_b       15.209124760086981
_cell_length_c       23.79736221095075
_cell_angle_alpha    92.38638408847079
_cell_angle_beta     90.48118951614732
_cell_angle_gamma    90.42731729983431

_space_group_name_H-M_alt    "P 1"
_space_group_IT_number       1

loop_
  _space_group_symop_operation_xyz
  'x, y, z'

loop_
  _atom_site_type_symbol
  _atom_site_label
  _atom_site_symmetry_multiplicity
  _atom_site_fract_x
  _atom_site_fract_y
  _atom_site_fract_z
  _atom_site_occupancy
  Zn  Zn1       1.0  0.6014037829405865  0.5014003770571733  0.5013953221476797  1.0000
  Zn  Zn2       1.0  0.3985966461389622  0.4985999048272091  0.4986040783165464  1.0000
  H   H1        1.0  0.9184868496139342  0.6779923732851574  0.5915668481940415  1.0000
  H   H2        1.0  0.08151357247924551  0.32200725052059914  0.4084325371190261  1.0000
  H   H3        1.0  0.9096352088989547  0.3226951429230951  0.4090624328564161  1.0000
  H   H4        1.0  0.09036451479833829  0.6773064340631407  0.5909344742625677  1.0000
  H   H5        1.0  0.42562524908909427  0.7093923608810113  0.0587180944039716  1.0000
  H   H6        1.0  0.5743730734928433  0.29060857212044766  0.9412800550507326  1.0000
  H   H7        1.0  0.651036275851517  0.5013362980085674  0.3207645203830012  1.0000
  H   H8        1.0  0.6501015326430063  0.5049176503434082  0.6811077423378578  1.0000
  H   H9        1.0  0.6189499040951816  0.22620950347527466  0.558186456103428  1.0000
  H   H10       1.0  0.38105263846833276  0.7737907853706503  0.4418142105214784  1.0000
  H   H11       1.0  0.42574516267477236  0.7098006052557296  0.952377735747362  1.0000
  H   H12       1.0  0.5742545729107816  0.2902009867184105  0.0476208526468227  1.0000
  H   H13       1.0  0.6771022549810225  0.9239789544903444  0.5963373140316932  1.0000
  H   H14       1.0  0.3229002915967953  0.0760219886872235  0.40366294742558045  1.0000
  H   H15       1.0  0.6716933265846023  0.3930974931121725  0.4237262151530956  1.0000
  H   H16       1.0  0.3283078270611028  0.6069060627509585  0.5762715815264983  1.0000
  H   H17       1.0  0.6773256164104707  0.6072586705393377  0.5784264788529967  1.0000
  H   H18       1.0  0.3226740832010151  0.39273898045701117  0.4215728592718193  1.0000
  H   H19       1.0  0.6514604157259711  0.5021628078925532  0.21542952985176103  1.0000
  H   H20       1.0  0.6503689031504436  0.5038991964982671  0.7864009802138127  1.0000
  H   H21       1.0  0.34989683081489886  0.49508658054512006  0.3188913235102575  1.0000
  H   H22       1.0  0.3489613261785607  0.4986620153457935  0.6792348276886955  1.0000
  H   H23       1.0  0.34962943236198635  0.4961024020757633  0.2135980250296541  1.0000
  H   H24       1.0  0.34853788782669426  0.49783550403535054  0.7845698199546973  1.0000
  H   H25       1.0  0.3846644673939038  0.21871330289062033  0.442569084936423  1.0000
  H   H26       1.0  0.6153387747623709  0.7812876313665384  0.5574303376180083  1.0000
  H   H27       1.0  0.6794949954957729  0.08687537044888669  0.5962475244784216  1.0000
  H   H28       1.0  0.32050614803686267  0.9131255755816099  0.40375273350932867  1.0000
  C   C1        1.0  0.498601168259853  0.6706144977653141  0.4984254885044805  1.0000
  C   C2        1.0  0.5014034928441689  0.3293871029584778  0.501575213627035  1.0000
  C   C3        1.0  0.5857324315516763  0.5006823612806031  0.23846412381954  1.0000
  C   C4        1.0  0.5846513184659726  0.5030567012851961  0.7626170192265319  1.0000
  C   C5        1.0  0.5854439667316952  0.49988852056003447  0.29694006121005156  1.0000
  C   C6        1.0  0.5845034039808609  0.5036775601534842  0.7041948358582389  1.0000
  C   C7        1.0  0.5004299033497546  0.4975788748398529  0.3259792463225182  1.0000
  C   C8        1.0  0.49956701915906615  0.5024220647615039  0.6740193199814613  1.0000
  C   C9        1.0  0.41549425096808074  0.49632601408288224  0.2958042131039491  1.0000
  C   C10       1.0  0.414553659229547  0.500111770777167  0.7030597526339265  1.0000
  C   C11       1.0  0.4153470250750644  0.49694620595213473  0.23738117568166217  1.0000
  C   C12       1.0  0.41426586902892376  0.4993159469003245  0.7615348056681199  1.0000
  C   C13       1.0  0.5005976911480942  0.49909707230587225  0.20910962824786586  1.0000
  C   C14       1.0  0.4994013389005686  0.5009038667630747  0.7908893635791969  1.0000
  C   C15       1.0  0.43596322533903015  0.18392955712014472  0.4674031553421614  1.0000
  C   C16       1.0  0.5640400227613822  0.8160713846309591  0.5325971078498739  1.0000
  C   C17       1.0  0.5019114082121519  0.2313643808933747  0.5005661722800454  1.0000
  C   C18       1.0  0.4980911324215355  0.7686365547902481  0.49943324853962423  1.0000
  C   C19       1.0  0.5677957146174178  0.18782564419786496  0.5330085622406315  1.0000
  C   C20       1.0  0.4322061194371399  0.812173987995898  0.4669920874983546  1.0000
  C   C21       1.0  0.5669572179626314  0.09574765939500912  0.534426005704006  1.0000
  C   C22       1.0  0.43304392452777307  0.9042526360508133  0.46557507777018264  1.0000
  C   C23       1.0  0.4993682221900997  0.4963792393360862  0.388864251905531  1.0000
  C   C24       1.0  0.5006308078585633  0.503621699732868  0.6111347399215319  1.0000
  C   C25       1.0  0.500679357497944  0.04670954218295979  0.4999511652011606  1.0000
  C   C26       1.0  0.4993224775988523  0.9532907405954774  0.5000486590513873  1.0000
  C   C27       1.0  0.43560899997519437  0.0916891212853983  0.46547603259204345  1.0000
  C   C28       1.0  0.5643949437036752  0.9083118115452962  0.5345233916971495  1.0000
  C   C29       1.0  0.6301463493257202  0.04890727784604108  0.5694150270498071  1.0000
  C   C30       1.0  0.3698554987015754  0.9510936705049673  0.43058565299150336  1.0000
  C   C31       1.0  0.6288591375361533  0.9591139269310887  0.569540179464596  1.0000
  C   C32       1.0  0.371144107592194  0.04088701107304621  0.4304596634086337  1.0000
  C   C33       1.0  0.798894315576703  0.4369503460695654  0.4712786832156795  1.0000
  C   C34       1.0  0.20110611558731506  0.5630512369841655  0.5287190662756629  1.0000
  C   C35       1.0  0.8019817981749852  0.5645189338858785  0.5304743832744521  1.0000
  C   C36       1.0  0.1980179264098965  0.4354813456779921  0.4695245951362139  1.0000
  C   C37       1.0  0.9015625296082206  0.5664285149263366  0.5321231673615543  1.0000
  C   C38       1.0  0.0984378844563523  0.43356980021612657  0.467877028286793  1.0000
  C   C39       1.0  0.8983631125584209  0.4344015368243745  0.4686938443690424  1.0000
  C   C40       1.0  0.10163730567509789  0.5655993806567778  0.5313030493335447  1.0000
  C   C41       1.0  0.9500355656945629  0.5002281557983892  0.5001809551886893  1.0000
  C   C42       1.0  0.0499655559913776  0.4997721134186007  0.499817186053896  1.0000
  C   C43       1.0  0.9552743450614114  0.6291140981911169  0.5657069227666511  1.0000
  C   C44       1.0  0.04472608907467188  0.37088748860958287  0.43429124704349686  1.0000
  C   C45       1.0  0.9488068279098838  0.3712788096964914  0.4346669950934441  1.0000
  C   C46       1.0  0.05119428783192599  0.6287214520265537  0.5653303055115444  1.0000
  C   C47       1.0  0.5275805267700518  0.4221316739441932  0.8764951906015453  1.0000
  C   C48       1.0  0.47241851323703804  0.5778699269503561  0.1235042366954744  1.0000
  C   C49       1.0  0.47226594015819495  0.5788898372259581  0.8806809870733261  1.0000
  C   C50       1.0  0.527734480005151  0.42111043341749615  0.1193171524345047  1.0000
  C   C51       1.0  0.4726890393723337  0.5770754833541716  0.9429290416163099  1.0000
  C   C52       1.0  0.527309291238204  0.42292675831058796  0.0570682975031147  1.0000
  C   C53       1.0  0.499996652241208  0.5001227455919803  0.970070769293244  1.0000
  C   C54       1.0  0.5000016684109028  0.4998788342471769  0.0299261343562165  1.0000
  C   C55       1.0  0.52731276954038  0.4234192553665679  0.9388414136719377  1.0000
  C   C56       1.0  0.4726869660451739  0.5765823366075722  0.06115717472224701  1.0000
  C   C57       1.0  0.4462805752140682  0.6515729870612859  0.9745310196171246  1.0000
  C   C58       1.0  0.5537191573994207  0.3484286011658781  0.025467148458261597  1.0000
  C   C59       1.0  0.4462178612733823  0.6513281344543029  0.03352851286156519  1.0000
  C   C60       1.0  0.5537790612354385  0.34867280514706067  0.9664700534424142  1.0000
  C   C61       1.0  0.7397260625741353  0.36906986406527403  0.4393501930040529  1.0000
  C   C62       1.0  0.26027226803640247  0.6309323775994856  0.5606471461153788  1.0000
  C   C63       1.0  0.7455787430504799  0.6314617161550302  0.5634188666127358  1.0000
  C   C64       1.0  0.2544209694915054  0.36853660041389713  0.4365813273008428  1.0000
  N   N1        1.0  0.49946815459802  0.5004972049367638  0.8515438818985785  1.0000
  N   N2        1.0  0.5005294614047955  0.4995024245748353  0.1484554964754423  1.0000
  N   N3        1.0  0.7532722708164242  0.5009393130604352  0.5010038198764661  1.0000
  N   N4        1.0  0.24672674823157334  0.4990603135982425  0.498995561967071  1.0000
  O   O1        1.0  0.5782325047299608  0.6333093300426214  0.50191375831416  1.0000
  O   O2        1.0  0.42177004289008824  0.3666922637196208  0.49808567765667533  1.0000
  O   O3        1.0  0.5803869294945658  0.36931200455683916  0.5059070798746959  1.0000
  O   O4        1.0  0.41961558527812304  0.6306875999816343  0.4940906293674487  1.0000
  O   O5        1.0  0.5782974328470515  0.49753497122340207  0.4146633423930695  1.0000
  O   O6        1.0  0.42169812645030885  0.5024686185332711  0.5853369623212359  1.0000
  O   O7        1.0  0.5808049575338856  0.5060266637631088  0.5879720659166949  1.0000
  O   O8        1.0  0.4191933610337556  0.4939736149067074  0.4120264887056422  1.0000
  O   O9        1.0  0.5504053361316821  0.357334683364229  0.847411356286436  1.0000
  O   O10       1.0  0.4495943954395684  0.642666254278261  0.1525876372753885  1.0000
  O   O11       1.0  0.4500576610210699  0.6441388383412843  0.8550832063233001  1.0000
  O   O12       1.0  0.5499448437931846  0.3558601043715938  0.1449140674488874  1.0000
  O   O13       1.0  0.7660869561669796  0.29364178856200607  0.42967127242343395  1.0000
  O   O14       1.0  0.23391276367065214  0.7063610820996259  0.5703231430850693  1.0000
  O   O15       1.0  0.7734285043776123  0.7066695806876597  0.5744731793537454  1.0000
  O   O16       1.0  0.22657122213710318  0.2933300520385132  0.4255270448621573  1.0000
