data_image0
_chemical_formula_structural       Zn4H44C68N8Cl4O16
_chemical_formula_sum              "Zn4 H44 C68 N8 Cl4 O16"
_cell_length_a       7.587383934039488
_cell_length_b       11.544370609810828
_cell_length_c       24.400816521552105
_cell_angle_alpha    99.58802589264923
_cell_angle_beta     90.03079471913667
_cell_angle_gamma    109.1775376332913

_space_group_name_H-M_alt    "P 1"
_space_group_IT_number       1

loop_
  _space_group_symop_operation_xyz
  'x, y, z'

loop_
  _atom_site_type_symbol
  _atom_site_label
  _atom_site_symmetry_multiplicity
  _atom_site_fract_x
  _atom_site_fract_y
  _atom_site_fract_z
  _atom_site_occupancy
  Zn  Zn1       1.0  0.6946310093992025  0.7327745291460703  0.3706028651628586  1.0000
  Zn  Zn2       1.0  0.9617543730016962  0.2672547509243587  0.1293120958794276  1.0000
  Zn  Zn3       1.0  0.30536755602310706  0.2672285752486873  0.6293961353950266  1.0000
  Zn  Zn4       1.0  0.0382479077411304  0.7327399679022762  0.870686214135887  1.0000
  H   H1        1.0  0.6396059380802797  0.3787276414580419  0.42809054043654987  1.0000
  H   H2        1.0  0.2600762343230869  0.6212627738478248  0.07180066243392962  1.0000
  H   H3        1.0  0.36040014546793486  0.621277318819871  0.5719090234923669  1.0000
  H   H4        1.0  0.7399241978380642  0.3787440649382249  0.9281982361092389  1.0000
  H   H5        1.0  0.8278271863706338  0.670818608900362  0.5705374677728089  1.0000
  H   H6        1.0  0.1578159346523051  0.3292187618184457  0.9294048524545249  1.0000
  H   H7        1.0  0.172168250063784  0.32918350377124034  0.4294647295011558  1.0000
  H   H8        1.0  0.8421869505803202  0.6707824340676256  0.07059645024746432  1.0000
  H   H9        1.0  0.8132132000402875  0.29797101503321244  0.58240509242804  1.0000
  H   H10       1.0  0.516124601045206  0.7021538590842412  0.9177689967686787  1.0000
  H   H11       1.0  0.18680163667274022  0.702032998435449  0.41759521390828525  1.0000
  H   H12       1.0  0.4838676948951742  0.2978446167470851  0.0822279825856498  1.0000
  H   H13       1.0  0.6835902811744319  0.602560383926928  0.6598340008610039  1.0000
  H   H14       1.0  0.0817139056920127  0.39739609459910263  0.8402305604305909  1.0000
  H   H15       1.0  0.3164207470815015  0.3974491899199323  0.3401684025953955  1.0000
  H   H16       1.0  0.9182826067182999  0.6025976250245153  0.15977135529700354  1.0000
  H   H17       1.0  0.2678646843139987  0.5486375405467002  0.7194845456741987  1.0000
  H   H18       1.0  0.7196923351937913  0.4515080551817265  0.780610705006417  1.0000
  H   H19       1.0  0.7321371339957068  0.45135625406090446  0.2805132783232693  1.0000
  H   H20       1.0  0.2803007265498323  0.5484866787320969  0.21938678580086451  1.0000
  H   H21       1.0  0.12691044505247365  0.469680534045196  0.6230927309415151  1.0000
  H   H22       1.0  0.6580296350168666  0.5303510690781794  0.8769891065379413  1.0000
  H   H23       1.0  0.8730862570322627  0.5303188434612951  0.3769059624138578  1.0000
  H   H24       1.0  0.34197047221573484  0.4696445739906638  0.1230096892741912  1.0000
  H   H25       1.0  0.9426311955607999  0.19096984726370178  0.4980060006171314  1.0000
  H   H26       1.0  0.7516612603308629  0.8092632619996607  0.0022789588506312653  1.0000
  H   H27       1.0  0.057377064898915454  0.8090341962750359  0.5019926682977527  1.0000
  H   H28       1.0  0.24833639383026448  0.19073802396916767  0.9977174328026878  1.0000
  H   H29       1.0  0.4078813246403286  0.18850228772542726  0.45431613054704917  1.0000
  H   H30       1.0  0.21913903813545946  0.8116014106052919  0.04566257410439791  1.0000
  H   H31       1.0  0.5921198699228044  0.8115008016400868  0.5456836886662941  1.0000
  H   H32       1.0  0.7808562562422878  0.18839514922590442  0.9543371165007386  1.0000
  H   H33       1.0  0.8736415614482381  0.9728138661391343  0.4488029402829383  1.0000
  H   H34       1.0  0.9005312677818509  0.02742261415701111  0.0515210200441558  1.0000
  H   H35       1.0  0.1263583117419458  0.027189215734928503  0.5511972880371091  1.0000
  H   H36       1.0  0.09945979992215838  0.9725786793727951  0.9484749618393664  1.0000
  H   H37       1.0  0.31991492466094945  0.9698318214690362  0.4016268690018024  1.0000
  H   H38       1.0  0.34959910120248583  0.030178399488050914  0.0983948594232871  1.0000
  H   H39       1.0  0.6800920008207497  0.030172184566119108  0.5983738458886592  1.0000
  H   H40       1.0  0.6503974044052896  0.9698153051295012  0.901607874738744  1.0000
  H   H41       1.0  0.8090434044575829  0.6888072409941232  0.7588668903637839  1.0000
  H   H42       1.0  0.12072175495368499  0.3113703226314827  0.7411871718536389  1.0000
  H   H43       1.0  0.1909746862936714  0.3112032795229284  0.24113477201137104  1.0000
  H   H44       1.0  0.8792665178954734  0.6886121863383965  0.25881545891427044  1.0000
  C   C1        1.0  0.6914714664831791  0.4093324157771506  0.4715404834684023  1.0000
  C   C2        1.0  0.28187431024687026  0.5907117159268085  0.028394571753345612  1.0000
  C   C3        1.0  0.30853770863897984  0.5906734536905491  0.5284603851338261  1.0000
  C   C4        1.0  0.7181198388272776  0.4092904642836786  0.9716039424551468  1.0000
  C   C5        1.0  0.7289833934484093  0.5338182146325039  0.49624998852605273  1.0000
  C   C6        1.0  0.1952621665054011  0.46617789903140056  0.003676957969169301  1.0000
  C   C7        1.0  0.27102219365399793  0.4661857463960359  0.503753181557208  1.0000
  C   C8        1.0  0.8047333005404271  0.5338242811675048  0.9963215563498338  1.0000
  C   C9        1.0  0.7233376463650955  0.32586440266543804  0.502427986710039  1.0000
  C   C10       1.0  0.3975352327670337  0.6742281954978467  0.9976040910982181  1.0000
  C   C11       1.0  0.2766684269793133  0.6741405351033695  0.49757280487053634  1.0000
  C   C12       1.0  0.6024602478838686  0.3257740147131899  0.0023927863519191037  1.0000
  C   C13       1.0  0.7961410728269269  0.5731493369788652  0.551874654012181  1.0000
  C   C14       1.0  0.2235023925194355  0.42688893046693016  0.9481070910747321  1.0000
  C   C15       1.0  0.20386057056425236  0.42685464659354017  0.4481272880878819  1.0000
  C   C16       1.0  0.77649391645987  0.5731122954892174  0.051892574205815806  1.0000
  C   C17       1.0  0.7103476741853924  0.6293155750029628  0.46350753062156264  1.0000
  C   C18       1.0  0.08093226319515884  0.3706039291346031  0.0363243996702636  1.0000
  C   C19       1.0  0.28965216839338137  0.3706874393437973  0.5364963806534462  1.0000
  C   C20       1.0  0.9190711116807364  0.6293982509947683  0.9636741153118251  1.0000
  C   C21       1.0  0.827216099546703  0.48854313141966094  0.5818847129902451  1.0000
  C   C22       1.0  0.3393538838016853  0.5115550693173463  0.9181799699257881  1.0000
  C   C23       1.0  0.17278601988267894  0.5114618063839134  0.41811607825878383  1.0000
  C   C24       1.0  0.6606423524486543  0.4884433764670818  0.08181864662895322  1.0000
  C   C25       1.0  0.5899995221905457  0.951175599276397  0.4197442302551053  1.0000
  C   C26       1.0  0.6384211903633882  0.04894762531784381  0.0804074387275122  1.0000
  C   C27       1.0  0.41000476394653157  0.04882839927890363  0.5802568936315496  1.0000
  C   C28       1.0  0.361575960549402  0.9510526463955459  0.9195933775145733  1.0000
  C   C29       1.0  0.7926268570220997  0.3639731927458953  0.5578951617582392  1.0000
  C   C30       1.0  0.42936113415757404  0.6361164216479623  0.9422087466516302  1.0000
  C   C31       1.0  0.2073779017519045  0.6360317525375339  0.4421052204946037  1.0000
  C   C32       1.0  0.5706316310184718  0.36388299340846697  0.0577879002861081  1.0000
  C   C33       1.0  0.8125220111138206  0.5950860537007971  0.6759123021497119  1.0000
  C   C34       1.0  0.2180859036259051  0.4049762310190844  0.8241293161175919  1.0000
  C   C35       1.0  0.1874871674096141  0.4049198232699355  0.3240881572353018  1.0000
  C   C36       1.0  0.7819087522493717  0.5950137767223397  0.1758714739730607  1.0000
  C   C37       1.0  0.13737511610489864  0.560704618363822  0.7080455538736957  1.0000
  C   C38       1.0  0.5771767865172279  0.439426636740592  0.7920237863499793  1.0000
  C   C39       1.0  0.8626263852296177  0.43929381236818443  0.29195388155753227  1.0000
  C   C40       1.0  0.4228148641181447  0.5605652719949036  0.20797511092429494  1.0000
  C   C41       1.0  0.061279962264343714  0.516739078997283  0.6548932347104994  1.0000
  C   C42       1.0  0.5452271743894741  0.4833481181332716  0.8451789115113044  1.0000
  C   C43       1.0  0.9387206971366878  0.4832603059774813  0.3451050497591979  1.0000
  C   C44       1.0  0.45476625665069986  0.5166447148096652  0.1548204718913269  1.0000
  C   C45       1.0  0.04521659444741044  0.6190759343845758  0.7495557417322657  1.0000
  C   C46       1.0  0.42662933540331954  0.38108346804702364  0.7504994887391733  1.0000
  C   C47       1.0  0.9547951472904044  0.38092716239126634  0.2504436691479697  1.0000
  C   C48       1.0  0.5733596690848871  0.6189084182025442  0.24950063596572392  1.0000
  C   C49       1.0  0.8075336889278047  0.13777505623993144  0.4761050975412857  1.0000
  C   C50       1.0  0.6696054021782062  0.862372251216428  0.02411057467725191  1.0000
  C   C51       1.0  0.19247438866003114  0.8622233444219988  0.5238959753113903  1.0000
  C   C52       1.0  0.33039186568003487  0.13763089820811564  0.9758859704668055  1.0000
  C   C53       1.0  0.5059072649569386  0.13699937169555204  0.4493665278209917  1.0000
  C   C54       1.0  0.3686831607975309  0.8630565041091107  0.050679585140386514  1.0000
  C   C55       1.0  0.4940956304794853  0.863001846699618  0.5506335472293458  1.0000
  C   C56       1.0  0.6313140003190583  0.13694379011338506  0.9493200034500475  1.0000
  C   C57       1.0  0.7681736729470572  0.017875575353848202  0.4486499289014674  1.0000
  C   C58       1.0  0.7499828340135152  0.9822861815300571  0.051575730700044196  1.0000
  C   C59       1.0  0.23183100629544393  0.982126574751803  0.5513502230600125  1.0000
  C   C60       1.0  0.25001217059918446  0.017715074449810707  0.9484222976011125  1.0000
  C   C61       1.0  0.45939944425599305  0.017154755048615303  0.4217210126168922  1.0000
  C   C62       1.0  0.4418490163938956  0.9829129012619194  0.07833365338764511  1.0000
  C   C63       1.0  0.5406083469680568  0.982848349265027  0.5782779887145892  1.0000
  C   C64       1.0  0.5581489832549095  0.017086431214785598  0.9216674953815414  1.0000
  C   C65       1.0  0.8817934341900228  0.6403040544327042  0.7298709177937327  1.0000
  C   C66       1.0  0.2420716280036999  0.35986310803577487  0.7701646873162603  1.0000
  C   C67       1.0  0.11822063331849363  0.35970369345043457  0.2701292863068616  1.0000
  C   C68       1.0  0.7579185217881133  0.6401231578345021  0.2298366137852881  1.0000
  N   N1        1.0  0.6787807539670679  0.19786066939935407  0.4762464996681076  1.0000
  N   N2        1.0  0.4807607796705042  0.8022250262331385  0.023841743780778305  1.0000
  N   N3        1.0  0.3212260953843967  0.8021405489610491  0.5237535757137621  1.0000
  N   N4        1.0  0.5192360155508098  0.19777717646327636  0.9761555429970842  1.0000
  N   N5        1.0  0.898857660882683  0.5319668525675993  0.6387358657299131  1.0000
  N   N6        1.0  0.3676159290161253  0.4680725301608819  0.8613418470352273  1.0000
  N   N7        1.0  0.10114437901519586  0.4680352900581968  0.36126469522775306  1.0000
  N   N8        1.0  0.6323797516645087  0.5319221662145922  0.1386576900791709  1.0000
  Cl  Cl1       1.0  0.0008016289219624933  0.8159078308880935  0.3614387454490852  1.0000
  Cl  Cl2       1.0  0.1848849179968468  0.18416458993723245  0.1384865315986659  1.0000
  Cl  Cl3       1.0  0.9991964638634201  0.18409432677853493  0.6385609967426049  1.0000
  Cl  Cl4       1.0  0.8151085062407902  0.8158282279996388  0.8615136702384021  1.0000
  O   O1        1.0  0.10777840680928834  0.6458308708011632  0.8005697350659916  1.0000
  O   O2        1.0  0.4622816500637936  0.35424369266580413  0.6994933697428394  1.0000
  O   O3        1.0  0.8922333315272579  0.3541722184716393  0.1994300850314659  1.0000
  O   O4        1.0  0.5377141896798534  0.6457565940652474  0.3005066279542916  1.0000
  O   O5        1.0  0.6503760189888083  0.5886338632352379  0.4118685100547665  1.0000
  O   O6        1.0  0.061325744720250056  0.41123557586144716  0.08792633568432251  1.0000
  O   O7        1.0  0.3496438589697776  0.4113775964953208  0.588132820014316  1.0000
  O   O8        1.0  0.9386704051960495  0.5887600597391299  0.9120728690134855  1.0000
  O   O9        1.0  0.7587428210074236  0.7411922110963476  0.4868238050656188  1.0000
  O   O10       1.0  0.01768778733270443  0.25872003732423826  0.0130025830381726  1.0000
  O   O11       1.0  0.24123667601887175  0.25880700899708137  0.5131834804146536  1.0000
  O   O12       1.0  0.9823248167461998  0.7412821502270434  0.9869955235002977  1.0000
  O   O13       1.0  0.5414711501849042  0.8381647906490104  0.3934988512603327  1.0000
  O   O14       1.0  0.7029154781132476  0.16201904199358105  0.10659809581996882  1.0000
  O   O15       1.0  0.4585353162649284  0.16183829867014773  0.6065009683950677  1.0000
  O   O16       1.0  0.2970795094931161  0.8379821764711224  0.8934019785672831  1.0000
