data_image0
_chemical_formula_structural       Zn2H54C58N6Cl14O8
_chemical_formula_sum              "Zn2 H54 C58 N6 Cl14 O8"
_cell_length_a       14.652571338443943
_cell_length_b       15.912076093829956
_cell_length_c       19.324664374892773
_cell_angle_alpha    89.68372437231015
_cell_angle_beta     90.18688626754167
_cell_angle_gamma    89.81800085589991

_space_group_name_H-M_alt    "P 1"
_space_group_IT_number       1

loop_
  _space_group_symop_operation_xyz
  'x, y, z'

loop_
  _atom_site_type_symbol
  _atom_site_label
  _atom_site_symmetry_multiplicity
  _atom_site_fract_x
  _atom_site_fract_y
  _atom_site_fract_z
  _atom_site_occupancy
  Zn  Zn1       1.0  0.4029744130771106  0.5021729880498783  0.4984189637694882  1.0000
  Zn  Zn2       1.0  0.592294076449491  0.4985928282777083  0.4992024108264701  1.0000
  H   H1        1.0  0.5150691122589279  0.0781762545196756  0.6074394618428016  1.0000
  H   H2        1.0  0.5270837852928735  0.9304647448046168  0.3890331925992641  1.0000
  H   H3        1.0  0.6308711572732761  0.9256375023555636  0.43484406203437237  1.0000
  H   H4        1.0  0.36269675296166076  0.920748096898464  0.5266257933045395  1.0000
  H   H5        1.0  0.2941503361932972  0.6954898290302937  0.5968147341579951  1.0000
  H   H6        1.0  0.2510077853945418  0.7397840557185235  0.6750281473535156  1.0000
  H   H7        1.0  0.33468620080749634  0.7938802340609643  0.6255993372263475  1.0000
  H   H8        1.0  0.4086518834139524  0.7239739799488449  0.728955115249363  1.0000
  H   H9        1.0  0.4487801944666998  0.6801299569034995  0.6508694827037758  1.0000
  H   H10       1.0  0.33549807279245397  0.5625572482401539  0.6630270845656767  1.0000
  H   H11       1.0  0.2976825408020289  0.6061027019130096  0.7420209385828116  1.0000
  H   H12       1.0  0.6195185652357295  0.0740699900124611  0.5651682970659522  1.0000
  H   H13       1.0  0.6805231572065366  0.2872744121351474  0.6051890716458459  1.0000
  H   H14       1.0  0.7288026955297366  0.2531579012241069  0.6857322417104115  1.0000
  H   H15       1.0  0.6370016664213906  0.19704089904510622  0.6476556199232135  1.0000
  H   H16       1.0  0.578134782540559  0.28659375120371783  0.74455111046273  1.0000
  H   H17       1.0  0.5332169961549056  0.3209924099587981  0.6642396961716842  1.0000
  H   H18       1.0  0.6518420517335244  0.4334861248810853  0.6577996753288673  1.0000
  H   H19       1.0  0.6982601447572703  0.39883768249289636  0.7376752324366793  1.0000
  H   H20       1.0  0.8343968477848945  0.15534197078645925  0.470934522092179  1.0000
  H   H21       1.0  0.8168334186935764  0.15874226229723115  0.3799320859127562  1.0000
  H   H22       1.0  0.8092230101361791  0.252543794251956  0.42868012088067076  1.0000
  H   H23       1.0  0.9161725217975485  0.36977464944462224  0.4750687076710562  1.0000
  H   H24       1.0  0.6525699849145139  0.20313523820756538  0.3991415535354649  1.0000
  H   H25       1.0  0.670263797241837  0.19966449909922096  0.48903395616358136  1.0000
  H   H26       1.0  0.6996474082124563  0.0469109308934819  0.48545340569675227  1.0000
  H   H27       1.0  0.7008496379654686  0.04787101466377663  0.3948007356887047  1.0000
  H   H28       1.0  0.24521132162640666  0.03843331224752689  0.6763685528772854  1.0000
  H   H29       1.0  0.2187260883225548  0.1406551757617437  0.6455028736966071  1.0000
  H   H30       1.0  0.1374484236225086  0.05857361424445882  0.6372432879229281  1.0000
  H   H31       1.0  0.21228797188796017  0.08386916010720573  0.5225587216920148  1.0000
  H   H32       1.0  0.24152058492826708  0.983533713964768  0.5543450801000418  1.0000
  H   H33       1.0  0.38531752348352905  0.046857151495217415  0.6050630994860172  1.0000
  H   H34       1.0  0.0625371645667769  0.37493036197869156  0.5063831491757185  1.0000
  H   H35       1.0  0.3579878257052798  0.14355089342178934  0.5646560535803999  1.0000
  H   H36       1.0  0.39558504898968033  0.8881629817666409  0.7513149073931659  1.0000
  H   H37       1.0  0.510652289463792  0.8613867198160393  0.7700965438999745  1.0000
  H   H38       1.0  0.4605270035907337  0.9514898334553551  0.808503879206107  1.0000
  H   H39       1.0  0.5637564650609972  0.9931302147754622  0.7103888508466767  1.0000
  H   H40       1.0  0.45034961019400993  0.023144094288831206  0.6945388046450632  1.0000
  H   H41       1.0  0.42319304477131686  0.9082151731898661  0.6170616708795293  1.0000
  H   H42       1.0  0.5207500034809698  0.8535989964569738  0.642991970295583  1.0000
  H   H43       1.0  0.80220651408775  0.8363870203376182  0.6283620690073876  1.0000
  H   H44       1.0  0.8373303475384971  0.9334008162046745  0.5916640472230696  1.0000
  H   H45       1.0  0.9101775320036791  0.5215483345010271  0.6096830674728154  1.0000
  H   H46       1.0  0.8406907671353421  0.918661275180732  0.6829423747475901  1.0000
  H   H47       1.0  0.7042048093715605  0.006058199409160601  0.649442973786556  1.0000
  H   H48       1.0  0.6706458254062752  0.9093588194823142  0.6863295094281625  1.0000
  H   H49       1.0  0.6455052693143769  0.8479442019895986  0.5705392790262067  1.0000
  H   H50       1.0  0.6895712665602147  0.9383745128127288  0.530715315571868  1.0000
  H   H51       1.0  0.0621383218900604  0.5674991704306294  0.5962056269151432  1.0000
  H   H52       1.0  0.9356944369605243  0.41774811752159746  0.5840673238411968  1.0000
  H   H53       1.0  0.08872194293356021  0.45911974825114044  0.6033783177137907  1.0000
  H   H54       1.0  0.38556720355872187  0.9300804129680104  0.4378063151248385  1.0000
  C   C1        1.0  0.5027544885219015  0.6610858038948353  0.4961716414371367  1.0000
  C   C2        1.0  0.5618124231434436  0.9524037651408152  0.4358440151544158  1.0000
  C   C3        1.0  0.5669717853658156  0.04972591526569661  0.43506301334623043  1.0000
  C   C4        1.0  0.4028812402302364  0.04669689515187511  0.49473044313904785  1.0000
  C   C5        1.0  0.493581005387199  0.24943515457208326  0.5009859871593676  1.0000
  C   C6        1.0  0.507730031629471  0.9188767040593719  0.4991287336780773  1.0000
  C   C7        1.0  0.5037889684718024  0.0828014178546539  0.4953376320235492  1.0000
  C   C8        1.0  0.4967328481181069  0.5032491098210913  0.6328450709102924  1.0000
  C   C9        1.0  0.5498329181689455  0.04937400841581051  0.563551388442292  1.0000
  C   C10       1.0  0.5506281388218497  0.9516884860399274  0.5693635405950559  1.0000
  C   C11       1.0  0.4996172919688106  0.17358008148415394  0.4972420361662699  1.0000
  C   C12       1.0  0.5062888363328922  0.50990726116693  0.9325532534823253  1.0000
  C   C13       1.0  0.507139653225984  0.8278004607215055  0.4976713523090694  1.0000
  C   C14       1.0  0.5047520032041675  0.7515832119466099  0.4963100928832986  1.0000
  C   C15       1.0  0.9401205875457207  0.5916079173316574  0.4725755388460513  1.0000
  C   C16       1.0  0.04904443395417959  0.5876140925325615  0.45962442411598653  1.0000
  C   C17       1.0  0.9462968837300207  0.4269424254777833  0.4529387717770561  1.0000
  C   C18       1.0  0.0515762908032826  0.4217804925305445  0.46528374576742243  1.0000
  C   C19       1.0  0.9091677291935768  0.5013487526116691  0.49758087696079667  1.0000
  C   C20       1.0  0.08612717888978949  0.5064720380441727  0.4974742024977417  1.0000
  C   C21       1.0  0.050091361546890284  0.5057519142497214  0.5730860350021987  1.0000
  C   C22       1.0  0.9477007402272476  0.4842852650146696  0.571760273336281  1.0000
  C   C23       1.0  0.438418650461699  0.45884193812754864  0.17687798608925934  1.0000
  C   C24       1.0  0.18520268990605618  0.5075769256466103  0.4975514688799052  1.0000
  C   C25       1.0  0.8101543198113459  0.4983064693257618  0.4987947972111114  1.0000
  C   C26       1.0  0.4936318525172893  0.3397710064748054  0.5013032734077996  1.0000
  C   C27       1.0  0.4990524795261279  0.4996798879003138  0.3660137769599245  1.0000
  C   C28       1.0  0.4306890735353192  0.5508256977312984  0.7463243685320791  1.0000
  C   C29       1.0  0.5679565058021011  0.45917960537145325  0.7458148323959222  1.0000
  C   C30       1.0  0.43583598978796784  0.5522463548001397  0.8188767192049227  1.0000
  C   C31       1.0  0.5693318265860937  0.4630269622729982  0.8183494555965041  1.0000
  C   C32       1.0  0.5042378972819748  0.5089957938944991  0.8560548184463174  1.0000
  C   C33       1.0  0.4982515151228455  0.5043504284480136  0.7110791828871683  1.0000
  C   C34       1.0  0.5665002189631635  0.5554415966016181  0.180634001965295  1.0000
  C   C35       1.0  0.5054853097964908  0.5097395158186871  0.0653087982116318  1.0000
  C   C36       1.0  0.3572076724001505  0.5989374221421927  0.7081379319490964  1.0000
  C   C37       1.0  0.3879881138985508  0.6865918091840871  0.6837406872260345  1.0000
  C   C38       1.0  0.31250789513495647  0.7314961375601359  0.6431876607238962  1.0000
  C   C39       1.0  0.6348126226010392  0.40430038242007543  0.7075371296368971  1.0000
  C   C40       1.0  0.5966784309731279  0.3155930932030629  0.6946404221464206  1.0000
  C   C41       1.0  0.6648102082457612  0.26018345254428255  0.6562351593371574  1.0000
  C   C42       1.0  0.6681346802264087  0.07724221122438733  0.43995263014191727  1.0000
  C   C43       1.0  0.6914721637508165  0.17082432299268652  0.4401529192978161  1.0000
  C   C44       1.0  0.7936038912169818  0.18496521165778293  0.429432909781859  1.0000
  C   C45       1.0  0.4388691289547707  0.45425623168475243  0.2494951352469243  1.0000
  C   C46       1.0  0.3511069170756825  0.07496033402047432  0.5598742827407506  1.0000
  C   C47       1.0  0.2502747867748454  0.05126754488034631  0.5638315013973242  1.0000
  C   C48       1.0  0.21056451027418174  0.07330899217826212  0.6345199981932553  1.0000
  C   C49       1.0  0.4949404179950178  0.9174054042142291  0.6319063767990016  1.0000
  C   C50       1.0  0.495559049763763  0.9679033228087521  0.6994061872374573  1.0000
  C   C51       1.0  0.4638253649348839  0.9144903497227904  0.760759122987956  1.0000
  C   C52       1.0  0.6492239953800124  0.9168654900903377  0.5752623470216207  1.0000
  C   C53       1.0  0.7033940267517095  0.9376019856435889  0.6406946422200193  1.0000
  C   C54       1.0  0.8014113799132756  0.9049277126355977  0.6358345527969291  1.0000
  C   C55       1.0  0.5636566957727068  0.5537933312064068  0.2533063567800156  1.0000
  C   C56       1.0  0.5006984454947485  0.5024937574854107  0.28786936288813786  1.0000
  C   C57       1.0  0.5031617392679664  0.5085590240312142  0.1418675900781281  1.0000
  C   C58       1.0  0.4084461019864633  0.9504697659267907  0.4890575497229507  1.0000
  N   N1        1.0  0.5086074371616007  0.5851525317393824  0.9644469694410348  1.0000
  N   N2        1.0  0.5066204446997346  0.4345098161430841  0.965159432860439  1.0000
  N   N3        1.0  0.5046749371069694  0.5850163794922096  0.0329224575164631  1.0000
  N   N4        1.0  0.5097269815600284  0.43444893655572514  0.03346805208316541  1.0000
  N   N5        1.0  0.2640442015556133  0.5060063507209664  0.4999220832775464  1.0000
  N   N6        1.0  0.731512346490085  0.4936614142682814  0.5018136149303489  1.0000
  Cl  Cl1       1.0  0.0763106609275326  0.5829753432217617  0.3708485370530852  1.0000
  Cl  Cl2       1.0  0.6507386984446981  0.6118475451262173  0.1399935919285227  1.0000
  Cl  Cl3       1.0  0.3647564855324035  0.3880760115169295  0.2915293616111541  1.0000
  Cl  Cl4       1.0  0.6366476000772964  0.6161163956046493  0.3001406282817172  1.0000
  Cl  Cl5       1.0  0.3373872683195104  0.08868929073620543  0.4220719859665111  1.0000
  Cl  Cl6       1.0  0.530148425148809  0.08801670416312392  0.3503880208060863  1.0000
  Cl  Cl7       1.0  0.8790631263326603  0.6258911339546388  0.39890053407869897  1.0000
  Cl  Cl8       1.0  0.9095425160041655  0.42729807641189416  0.3658067349295067  1.0000
  Cl  Cl9       1.0  0.11521553294578978  0.3827018655933899  0.395126278210256  1.0000
  Cl  Cl10      1.0  0.9105532559232256  0.6634096773243671  0.5403704523314091  1.0000
  Cl  Cl11      1.0  0.10613562329687908  0.6769365837755927  0.49419921451087134  1.0000
  Cl  Cl12      1.0  0.35220497976222725  0.6055522941861043  0.8649098727073934  1.0000
  Cl  Cl13      1.0  0.6571682332097097  0.412950338140945  0.8631871064745057  1.0000
  Cl  Cl14      1.0  0.35539670448643784  0.4063178261336376  0.131584507822339  1.0000
  O   O1        1.0  0.42749121130891155  0.6268782577074605  0.5134948320981962  1.0000
  O   O2        1.0  0.576407010970591  0.623738708354054  0.47931715499175453  1.0000
  O   O3        1.0  0.4239280425079528  0.4789899933897743  0.6032446046572559  1.0000
  O   O4        1.0  0.5690702705924835  0.5268921448364454  0.602231710211413  1.0000
  O   O5        1.0  0.4198040469563224  0.3765881229920752  0.4837100032584374  1.0000
  O   O6        1.0  0.5686039328215386  0.3745669193562335  0.5190365857143533  1.0000
  O   O7        1.0  0.4259668136668536  0.5243316584479204  0.3943165282120376  1.0000
  O   O8        1.0  0.571021125763906  0.47333336067423915  0.39563670994139954  1.0000
