data_image0
_chemical_formula_structural       Zn4P4H48C24N12Cl8O4
_chemical_formula_sum              "Zn4 P4 H48 C24 N12 Cl8 O4"
_cell_length_a       7.033360168
_cell_length_b       7.238900248114628
_cell_length_c       20.9256
_cell_angle_alpha    90.0
_cell_angle_beta     90.0
_cell_angle_gamma    101.96043512367766

_space_group_name_H-M_alt    "P 1"
_space_group_IT_number       1

loop_
  _space_group_symop_operation_xyz
  'x, y, z'

loop_
  _atom_site_type_symbol
  _atom_site_label
  _atom_site_symmetry_multiplicity
  _atom_site_fract_x
  _atom_site_fract_y
  _atom_site_fract_z
  _atom_site_occupancy
  Zn  Zn1       1.0  0.595185970251151  0.4246322986394233  0.6094377222158514  1.0000
  Zn  Zn2       1.0  0.4048139992757811  0.075366958888786  0.1094377222158514  1.0000
  Zn  Zn3       1.0  0.40481287207931166  0.5753676284972329  0.3905622777841486  1.0000
  Zn  Zn4       1.0  0.5951862648502058  0.9246329682478773  0.8905622777841486  1.0000
  P   P1        1.0  0.9341942274462056  0.1982348851217282  0.6490676491952456  1.0000
  P   P2        1.0  0.065803199675635  0.3017657844867259  0.1490676491952456  1.0000
  P   P3        1.0  0.0658031930887262  0.801765042014928  0.3509318729212083  1.0000
  P   P4        1.0  0.9341956426548279  0.6982341426499374  0.8509323508047545  1.0000
  H   H1        1.0  0.1642787328052719  0.4434863940637613  0.5941411476851357  1.0000
  H   H2        1.0  0.8357198149261292  0.0565128634644481  0.0941411476851286  1.0000
  H   H3        1.0  0.835721832506664  0.5565149451531468  0.40585885231487134  1.0000
  H   H4        1.0  0.16427872621837034  0.9434856515919634  0.9058593301984176  1.0000
  H   H5        1.0  0.2117049905652948  0.4433903726071335  0.6781325266659053  1.0000
  H   H6        1.0  0.7882938583520698  0.0566102970013205  0.1781320487823521  1.0000
  H   H7        1.0  0.7882938517651681  0.5566095545295227  0.3218679512176479  1.0000
  H   H8        1.0  0.2117067069598733  0.9433910422155876  0.8218679512176479  1.0000
  H   H9        1.0  0.0303500343039218  0.1339273387077355  0.7557470275643254  1.0000
  H   H10       1.0  0.9696485134274795  0.3660719188204737  0.2557470275643254  1.0000
  H   H11       1.0  0.9696473862310099  0.8660725884289278  0.2442524945521285  1.0000
  H   H12       1.0  0.03035317249402422  0.6339280083161825  0.7442529724356746  1.0000
  H   H13       1.0  0.8671420434137361  0.9340939058859093  0.7232217953129165  1.0000
  H   H14       1.0  0.13285821412534202  0.5659052787789564  0.2232222731964697  1.0000
  H   H15       1.0  0.1328564977307707  0.0659046091705022  0.2767772489199842  1.0000
  H   H16       1.0  0.8671434717961616  0.4340946483577  0.7767767710364312  1.0000
  H   H17       1.0  0.788377582485218  0.9300751255101147  0.5836516037771915  1.0000
  H   H18       1.0  0.2116223738679111  0.5699226470745131  0.0836520816607376  1.0000
  H   H19       1.0  0.21162238045481266  0.0699233895463038  0.41634696257216314  1.0000
  H   H20       1.0  0.7883775890721196  0.4300758679819054  0.9163479183392624  1.0000
  H   H21       1.0  0.9021020362710812  0.1276252245766045  0.5356907328822089  1.0000
  H   H22       1.0  0.0978976320698948  0.3723726208713529  0.0356907328822089  1.0000
  H   H23       1.0  0.0978979266689493  0.8723732904798069  0.4643083113506918  1.0000
  H   H24       1.0  0.9021026320560921  0.6276273062653033  0.9643087892342379  1.0000
  H   H25       1.0  0.4581249951958028  0.0460804146182099  0.673825362235732  1.0000
  H   H26       1.0  0.5418755767030419  0.4539216670704889  0.173825362235732  1.0000
  H   H27       1.0  0.5418755701161402  0.9539209245986912  0.3261751156478212  1.0000
  H   H28       1.0  0.45812498860889417  0.5460796721464192  0.8261751156478211  1.0000
  H   H29       1.0  0.36589182244965457  0.2046838555982831  0.7245541346484714  1.0000
  H   H30       1.0  0.6341073276536662  0.2953182260904157  0.22455365676491817  1.0000
  H   H31       1.0  0.6341073210667573  0.7953174836186251  0.2754463432350818  1.0000
  H   H32       1.0  0.3658935388442329  0.70468452520673  0.7754463432350818  1.0000
  H   H33       1.0  0.2517468800760483  0.2060620459168945  0.5270023320717172  1.0000
  H   H34       1.0  0.7482545112464082  0.2939372116113077  0.027001376304625103  1.0000
  H   H35       1.0  0.7482536852358949  0.7939392933000065  0.4729981458118289  1.0000
  H   H36       1.0  0.2517457528795788  0.7060627155253485  0.972998623695375  1.0000
  H   H37       1.0  0.3919453046711112  0.0457033891929299  0.5579209198302593  1.0000
  H   H38       1.0  0.6080560866513449  0.45429586833527225  0.05791996406316  1.0000
  H   H39       1.0  0.6080549594548756  0.9542965379437263  0.44207955805329385  1.0000
  H   H40       1.0  0.39194447866059784  0.5457054708816287  0.9420800359368401  1.0000
  H   H41       1.0  0.24044240683693371  0.7864270263993589  0.6241665710899582  1.0000
  H   H42       1.0  0.7595595736836244  0.7135735703457514  0.1241665710899582  1.0000
  H   H43       1.0  0.7595578572890459  0.21357290073730442  0.3758334289100418  1.0000
  H   H44       1.0  0.24044241342384245  0.2864277688711496  0.8758334289100418  1.0000
  H   H45       1.0  0.9835068645440754  0.7496776380366938  0.639917612876097  1.0000
  H   H46       1.0  0.016493392995002437  0.7503215466281787  0.1399176128760971  1.0000
  H   H47       1.0  0.0164933995819041  0.2503222890999695  0.3600823871239029  1.0000
  H   H48       1.0  0.9835071723169407  0.24967979258872933  0.860082387123903  1.0000
  C   C1        1.0  0.170724928163672  0.353241757719104  0.636053446496156  1.0000
  C   C2        1.0  0.8292739207536923  0.14675891188935  0.136053446496156  1.0000
  C   C3        1.0  0.8292739141667909  0.6467581694175593  0.363946553503844  1.0000
  C   C4        1.0  0.1707249215767703  0.8532410152473133  0.8639460756202908  1.0000
  C   C5        1.0  0.9927015656982974  0.0477932679547663  0.7125286730129616  1.0000
  C   C6        1.0  0.007298403828635005  0.4522059895734429  0.2125291508965077  1.0000
  C   C7        1.0  0.007297276632158393  0.9522066591818898  0.2874708491034923  1.0000
  C   C8        1.0  0.9927032820928758  0.5477939375632204  0.7874708491034922  1.0000
  C   C9        1.0  0.9160744233675473  0.046262572969745  0.5791819589402465  1.0000
  C   C10       1.0  0.0839255461593851  0.4537366845584572  0.0791819589402465  1.0000
  C   C11       1.0  0.0839226959814283  0.9537359420866665  0.4208175631762074  1.0000
  C   C12       1.0  0.9160744167806455  0.5462618304979543  0.9208175631762074  1.0000
  C   C13       1.0  0.3351663736523705  0.114611493043455  0.6820717207630835  1.0000
  C   C14       1.0  0.6648327764509502  0.3853905886452438  0.1820712428795375  1.0000
  C   C15       1.0  0.6648324686780853  0.8853884340932083  0.3179282792369165  1.0000
  C   C16       1.0  0.33516951184247284  0.6146121626519019  0.8179292350040157  1.0000
  C   C17       1.0  0.2693419941459183  0.1144138018092278  0.5674059525174897  1.0000
  C   C18       1.0  0.7306565535854899  0.38558545571898156  0.0674049967503905  1.0000
  C   C19       1.0  0.7306571493705006  0.8855875374076804  0.4325940474825103  1.0000
  C   C20       1.0  0.269342589930929  0.6144158834979194  0.9325954811331556  1.0000
  C   C21       1.0  0.11793854000259069  0.8558703086625385  0.6328989371869866  1.0000
  C   C22       1.0  0.8820617175364872  0.6441288760023269  0.1328984593034335  1.0000
  C   C23       1.0  0.882061724123396  0.1441296184741248  0.3671010628130134  1.0000
  C   C24       1.0  0.11793996838501639  0.3558710511343293  0.8671020185801126  1.0000
  N   N1        1.0  0.3229075057074979  0.2393306564769162  0.6250320181978068  1.0000
  N   N2        1.0  0.6770927650053906  0.2606700131315378  0.1250315403142537  1.0000
  N   N3        1.0  0.6770930596044451  0.7606706827399918  0.3749679818021932  1.0000
  N   N4        1.0  0.3229078003065524  0.7393313260853631  0.8749689375692924  1.0000
  N   N5        1.0  0.1609715816511255  0.9690626610602848  0.6918267576556971  1.0000
  N   N6        1.0  0.8390289770739159  0.5309379356848254  0.19182675765569707  1.0000
  N   N7        1.0  0.8390286824748612  0.0309372660763785  0.3081727644607568  1.0000
  N   N8        1.0  0.1609730100335511  0.4690634035320755  0.8081741981114021  1.0000
  N   N9        1.0  0.09507975914443989  0.9698152998305929  0.5766506097794064  1.0000
  N   N10       1.0  0.9049219201901622  0.5301838848342726  0.0766501318958603  1.0000
  N   N11       1.0  0.904921926777071  0.0301846273060633  0.42334939022059354  1.0000
  N   N12       1.0  0.0950783439358176  0.4698160423023836  0.9233503459876928  1.0000
  Cl  Cl1       1.0  0.7130293282233281  0.4025445394552207  0.5119360974117839  1.0000
  Cl  Cl2       1.0  0.2869726654710404  0.09745754223347801  0.0119356195282307  1.0000
  Cl  Cl3       1.0  0.2869712370886148  0.5974567997616802  0.48806438047176937  1.0000
  Cl  Cl4       1.0  0.7130278998408954  0.90254379698343  0.9880648583553153  1.0000
  Cl  Cl5       1.0  0.5775020811125131  0.6891389337952205  0.6619533012195618  1.0000
  Cl  Cl6       1.0  0.4224984776125211  0.8108616629498897  0.1619528233360086  1.0000
  Cl  Cl7       1.0  0.42249706240390594  0.3108624054216805  0.3380471766639914  1.0000
  Cl  Cl8       1.0  0.5775032083089826  0.1891382641867665  0.8380471766639915  1.0000
  O   O1        1.0  0.7706141117720762  0.2992720507749667  0.6646710249646333  1.0000
  O   O2        1.0  0.2293827129778521  0.2007257946729979  0.1646719807317325  1.0000
  O   O3        1.0  0.2293830075769066  0.7007264642814448  0.3353280192682675  1.0000
  O   O4        1.0  0.7706141051851674  0.7992713083031759  0.8353289750353667  1.0000
