data_image0
_chemical_formula_structural       Pr2H34C50N4O16
_chemical_formula_sum              "Pr2 H34 C50 N4 O16"
_cell_length_a       9.474610097008837
_cell_length_b       12.619471019749039
_cell_length_c       16.837622623761366
_cell_angle_alpha    83.75068522924558
_cell_angle_beta     77.08805398980822
_cell_angle_gamma    94.2412781535011

_space_group_name_H-M_alt    "P 1"
_space_group_IT_number       1

loop_
  _space_group_symop_operation_xyz
  'x, y, z'

loop_
  _atom_site_type_symbol
  _atom_site_label
  _atom_site_symmetry_multiplicity
  _atom_site_fract_x
  _atom_site_fract_y
  _atom_site_fract_z
  _atom_site_occupancy
  Pr  Pr1       1.0  0.2944191644981871  0.9372969294686301  0.5458630084849574  1.0000
  Pr  Pr2       1.0  0.7055817574363346  0.0627005126498688  0.45413767667425003  1.0000
  H   H1        1.0  0.3348751934524258  0.1949391119653114  0.04635910677251327  1.0000
  H   H2        1.0  0.6650979957578684  0.8050508885973642  0.9536417590466469  1.0000
  H   H3        1.0  0.33979717122405617  0.20894411582477806  0.8851383640169813  1.0000
  H   H4        1.0  0.660198026260737  0.7910642881668224  0.11486149275444996  1.0000
  H   H5        1.0  0.09602249576474259  0.45750050493921884  0.6820604756973551  1.0000
  H   H6        1.0  0.9039908575921839  0.542518931433584  0.3179365776824027  1.0000
  H   H7        1.0  0.9012034594177081  0.6024698535438234  0.7065940095325158  1.0000
  H   H8        1.0  0.09878947457393389  0.39753537702151936  0.2934123733540375  1.0000
  H   H9        1.0  0.003973171767562201  0.5006375365137999  0.9343384731006736  1.0000
  H   H10       1.0  0.9960482521565267  0.4993726578360907  0.06566131905114496  1.0000
  H   H11       1.0  0.03556462588602471  0.18542318059223115  0.24015416932068226  1.0000
  H   H12       1.0  0.9644161770535788  0.8145777076030285  0.7598589617134194  1.0000
  H   H13       1.0  0.14522785733223736  0.0713956222885415  0.3351431098032051  1.0000
  H   H14       1.0  0.8547539166200905  0.9286037039428835  0.6648700340962532  1.0000
  H   H15       1.0  0.5623608456333926  0.25030437675081885  0.2341223308768717  1.0000
  H   H16       1.0  0.43764253427164584  0.7496713703713809  0.7658663288428967  1.0000
  H   H17       1.0  0.454872363762142  0.36253139776451354  0.13571379043486329  1.0000
  H   H18       1.0  0.5451218596508695  0.637438396265516  0.8642742418650966  1.0000
  H   H19       1.0  0.46819784817071747  0.38531687409096804  0.7810577897998099  1.0000
  H   H20       1.0  0.5318157542612028  0.6146921340600644  0.21893660948336435  1.0000
  H   H21       1.0  0.6092257739446936  0.3049687416258564  0.6625773598012756  1.0000
  H   H22       1.0  0.3907840020165452  0.6950313998970757  0.33742131692851257  1.0000
  H   H23       1.0  0.20813775302463708  0.18461966185774512  0.6090038058421923  1.0000
  H   H24       1.0  0.7918700809111454  0.8153836035928492  0.39099484515688926  1.0000
  H   H25       1.0  0.06807863346115542  0.261807485705191  0.7281046272412224  1.0000
  H   H26       1.0  0.9319320417594312  0.7382061978362701  0.2718891422686695  1.0000
  H   H27       1.0  0.19552959104343864  0.045464530522032504  0.706509036127528  1.0000
  H   H28       1.0  0.8044541062465098  0.9545377171097655  0.2934833934036759  1.0000
  H   H29       1.0  0.27825675616222867  0.9429150077775503  0.7149472647849675  1.0000
  H   H30       1.0  0.7217242524452773  0.057090577180446224  0.2850594744217218  1.0000
  H   H31       1.0  0.0898132655821158  0.7539476351429429  0.5950616275934378  1.0000
  H   H32       1.0  0.9101996242559877  0.24604948408613583  0.4049404747772839  1.0000
  H   H33       1.0  0.22651975707260869  0.7007121236900958  0.609017636381125  1.0000
  H   H34       1.0  0.7734992248242917  0.2992826373968711  0.39097318190896857  1.0000
  C   C1        1.0  0.19868877161896145  0.3351655331682863  0.04270757830323647  1.0000
  C   C2        1.0  0.8012994701378345  0.6648362576967062  0.9572949838147478  1.0000
  C   C3        1.0  0.2856662424781645  0.2519391716565025  0.010641789207625207  1.0000
  C   C4        1.0  0.7143203512622166  0.7480568630001657  0.9893549771785642  1.0000
  C   C5        1.0  0.2884295733972806  0.2593132689274142  0.929139809125601  1.0000
  C   C6        1.0  0.7115616842316541  0.7406861844274459  0.07085959567474014  1.0000
  C   C7        1.0  0.20282617009985418  0.34702652371726117  0.9120908679981593  1.0000
  C   C8        1.0  0.7971790698508201  0.6529862083962074  0.08790608199514334  1.0000
  C   C9        1.0  0.17690704283049288  0.37735669117776643  0.8336872596138534  1.0000
  C   C10       1.0  0.8230990098136742  0.6226528468774575  0.16630808973160063  1.0000
  C   C11       1.0  0.0808429024569932  0.45203753363279736  0.817078770766045  1.0000
  C   C12       1.0  0.9191800277520343  0.5479783119146192  0.18292090534543337  1.0000
  C   C13       1.0  0.04872305059748071  0.48632440617934247  0.739511297083524  1.0000
  C   C14       1.0  0.9512856801830335  0.5136908847072307  0.2604873361317954  1.0000
  C   C15       1.0  0.9495532958162087  0.5605254556559488  0.7518477608934899  1.0000
  C   C16       1.0  0.0504496818486189  0.43948486132254067  0.24815327049687838  1.0000
  C   C17       1.0  0.9200413249428365  0.5760640999325803  0.8368315518141997  1.0000
  C   C18       1.0  0.07996556632650707  0.4239407484840072  0.16316826867395653  1.0000
  C   C19       1.0  0.1704151108259779  0.3511582170589236  0.1260479641946333  1.0000
  C   C20       1.0  0.8295773623811086  0.648842127724265  0.8739541693294938  1.0000
  C   C21       1.0  0.23790084913302678  0.28227978251965163  0.18202529801691006  1.0000
  C   C22       1.0  0.762081192896673  0.7177121591561788  0.8179760040909084  1.0000
  C   C23       1.0  0.15123458546464263  0.19962160860305295  0.23832902357128918  1.0000
  C   C24       1.0  0.848749843994618  0.8003713261349149  0.761678407170528  1.0000
  C   C25       1.0  0.21216671586248737  0.1359760772096763  0.2918715008962067  1.0000
  C   C26       1.0  0.7878191028746072  0.8640201498433698  0.7081384185417574  1.0000
  C   C27       1.0  0.36023862646324284  0.15447295616900192  0.2912659559210198  1.0000
  C   C28       1.0  0.6397475465974124  0.8455167076262029  0.7087332240705206  1.0000
  C   C29       1.0  0.44736829662755173  0.23607843005367363  0.23435997656851984  1.0000
  C   C30       1.0  0.5526237769971374  0.763904189337751  0.7656349023470239  1.0000
  C   C31       1.0  0.38696098517470995  0.2989140012064838  0.17982284115095126  1.0000
  C   C32       1.0  0.6130302507124553  0.7010581513358289  0.8201695308210758  1.0000
  C   C33       1.0  0.42148609392825875  0.0903220131865581  0.3533874307826891  1.0000
  C   C34       1.0  0.5785099738302648  0.9096680822633586  0.6466151542489269  1.0000
  C   C35       1.0  0.2584557701308441  0.32870794089750893  0.7631748805569315  1.0000
  C   C36       1.0  0.7415517722105064  0.6713057212716225  0.23682465100709033  1.0000
  C   C37       1.0  0.4115544147131445  0.3402902253248214  0.743741808177738  1.0000
  C   C38       1.0  0.5884549113344234  0.6597186808222374  0.25625613560377747  1.0000
  C   C39       1.0  0.4906049721426484  0.29588275392276847  0.6777072243441536  1.0000
  C   C40       1.0  0.5094048333721871  0.7041181668935935  0.32229019002200227  1.0000
  C   C41       1.0  0.41813427956365967  0.2375853494966336  0.629864975461224  1.0000
  C   C42       1.0  0.5818743800314579  0.7624139741055275  0.37013511078527717  1.0000
  C   C43       1.0  0.2653067917064931  0.2264546644068375  0.6479252669991311  1.0000
  C   C44       1.0  0.7346967103596568  0.7735492153267388  0.35207211907137276  1.0000
  C   C45       1.0  0.18679499277880038  0.2715555883163034  0.7139085049704261  1.0000
  C   C46       1.0  0.8132175228406027  0.7284533812073875  0.2860860414658147  1.0000
  C   C47       1.0  0.5047625332082504  0.18628546288633172  0.5621741883474056  1.0000
  C   C48       1.0  0.4952448387356653  0.8137121584908373  0.4378226580073131  1.0000
  C   C49       1.0  0.9835945804980285  0.9417403731450807  0.49039559254730836  1.0000
  C   C50       1.0  0.0164073371736038  0.05825325313792009  0.509613621985892  1.0000
  N   N1        1.0  0.14825946281566624  0.3911658322938223  0.9820228770827768  1.0000
  N   N2        1.0  0.8517441242893682  0.6088381104462285  0.017978056051013856  1.0000
  N   N3        1.0  0.0002794397740614959  0.5079651662978578  0.8738464892374721  1.0000
  N   N4        1.0  0.999746752967482  0.49203639693512  0.12615226489591433  1.0000
  O   O1        1.0  0.335663203665014  0.0191177369916886  0.40405881909528313  1.0000
  O   O2        1.0  0.664330950414346  0.980875503388049  0.5959449225600507  1.0000
  O   O3        1.0  0.5564402637794571  0.1118431356416991  0.35266417552666235  1.0000
  O   O4        1.0  0.4435565425045666  0.8881573531497795  0.6473367782079718  1.0000
  O   O5        1.0  0.4456152652208587  0.10373262877740073  0.5382190227195521  1.0000
  O   O6        1.0  0.5543866548653824  0.8962625140881499  0.46178530237749965  1.0000
  O   O7        1.0  0.636363177658737  0.22138925715111676  0.5301292425662536  1.0000
  O   O8        1.0  0.3636456839823623  0.7786124883399594  0.4698717860070402  1.0000
  O   O9        1.0  0.0607601752362328  0.8719477203297857  0.5134560046766123  1.0000
  O   O10       1.0  0.9392290598430432  0.1280487381171511  0.48655997625149167  1.0000
  O   O11       1.0  0.8833988635507736  0.9267844879093448  0.45330169734679504  1.0000
  O   O12       1.0  0.11660884041206289  0.07321716644899821  0.5466965224934979  1.0000
  O   O13       1.0  0.19263101614595968  0.9698175144343466  0.6986442787386407  1.0000
  O   O14       1.0  0.8073581553114264  0.030183441254848703  0.3013540779949934  1.0000
  O   O15       1.0  0.1642519597994649  0.7556712913843382  0.6273202806810332  1.0000
  O   O16       1.0  0.8357681631879217  0.24432203375173603  0.37267764460097635  1.0000
