data_image0
_chemical_formula_structural       Zn2H16C20S8N20
_chemical_formula_sum              "Zn2 H16 C20 S8 N20"
_cell_length_a       7.664969006600893
_cell_length_b       9.54315038621908
_cell_length_c       13.038735711298719
_cell_angle_alpha    79.33809943418714
_cell_angle_beta     72.90344786742978
_cell_angle_gamma    66.30312545495143

_space_group_name_H-M_alt    "P 1"
_space_group_IT_number       1

loop_
  _space_group_symop_operation_xyz
  'x, y, z'

loop_
  _atom_site_type_symbol
  _atom_site_label
  _atom_site_symmetry_multiplicity
  _atom_site_fract_x
  _atom_site_fract_y
  _atom_site_fract_z
  _atom_site_occupancy
  Zn  Zn1       1.0  0.14946423072947815  0.23777287398640118  0.2538001507074696  1.0000
  Zn  Zn2       1.0  0.6412113006272476  0.762185942376256  0.7462400126996157  1.0000
  H   H1        1.0  0.8574729534958719  0.2824219137177837  0.10020316307672755  1.0000
  H   H2        1.0  0.24029471979315542  0.7178055347064927  0.8996939879296945  1.0000
  H   H3        1.0  0.010094162957912435  0.6092740628346222  0.1934016822045166  1.0000
  H   H4        1.0  0.8129049893019056  0.39050966729931974  0.8065743994282568  1.0000
  H   H5        1.0  0.7920745441436665  0.7961637343168276  0.9619505745383135  1.0000
  H   H6        1.0  0.5498712270554263  0.2038511841816089  0.03787554800678798  1.0000
  H   H7        1.0  0.8357412819049304  0.8440851898311693  0.07652870347412476  1.0000
  H   H8        1.0  0.7561346776417254  0.1558198153700232  0.9233209809632044  1.0000
  H   H9        1.0  0.02686108883003883  0.33305485349649894  0.4975399507921948  1.0000
  H   H10       1.0  0.8575157813402112  0.6665623037463959  0.5026909965787139  1.0000
  H   H11       1.0  0.7724251112882927  0.11819244329997503  0.3606567690339943  1.0000
  H   H12       1.0  0.2511615245847666  0.8817655285398304  0.6394035032875961  1.0000
  H   H13       1.0  0.5567500864348036  0.0963503104368328  0.64730373723863  1.0000
  H   H14       1.0  0.30061534227082365  0.9034526638305707  0.352673927593919  1.0000
  H   H15       1.0  0.47868869805333936  0.12306177693759682  0.526574378274013  1.0000
  H   H16       1.0  0.128336192926163  0.8770883634398745  0.4734379242603097  1.0000
  C   C1        1.0  0.8693094424940567  0.3908886252929094  0.10476560990480968  1.0000
  C   C2        1.0  0.36507173794413467  0.6092369623658483  0.8951430515571629  1.0000
  C   C3        1.0  0.9515135981362375  0.5536818884835172  0.15376305505542107  1.0000
  C   C4        1.0  0.6590834378998023  0.4462296868140214  0.8461917618740812  1.0000
  C   C5        1.0  0.7589698073911177  0.7861656072527127  0.05052575675562558  1.0000
  C   C6        1.0  0.5954119709114779  0.2138979095864144  0.9493053909537748  1.0000
  C   C7        1.0  0.5432740419320295  0.8601167519881727  0.09817795316386208  1.0000
  C   C8        1.0  0.5012493638248474  0.14010277340609184  0.901634310600393  1.0000
  C   C9        1.0  0.1829476148261547  0.9581966744753245  0.1537452044073007  1.0000
  C   C10       1.0  0.2946390357543579  0.04195105327598721  0.846101363543454  1.0000
  C   C11       1.0  0.9278973147416489  0.28474426019416643  0.48698166652049907  1.0000
  C   C12       1.0  0.6996375870648565  0.7149436168813851  0.5131878134221635  1.0000
  C   C13       1.0  0.8016978039799839  0.1737317965793181  0.4161399401927284  1.0000
  C   C14       1.0  0.3915171716540653  0.8262355421743238  0.5839297323083059  1.0000
  C   C15       1.0  0.5202172897508179  0.17722715576300627  0.5779356902001495  1.0000
  C   C16       1.0  0.27541627538350566  0.8227467732250063  0.42211578464262084  1.0000
  C   C17       1.0  0.3485189806443786  0.3203761038517142  0.614467004135946  1.0000
  C   C18       1.0  0.2832537381690939  0.6795756373055043  0.385706156859392  1.0000
  C   C19       1.0  0.09750279872996953  0.5546902760297528  0.685340725870681  1.0000
  C   C20       1.0  0.3372319608273102  0.4453401793079905  0.314849798535512  1.0000
  S   S1        1.0  0.36504945264100985  0.7997667035306577  0.0862483962177619  1.0000
  S   S2        1.0  0.2507447558304959  0.20046464088935073  0.9135050520403567  1.0000
  S   S3        1.0  0.9419538661001781  0.9966672349241321  0.17820167452042293  1.0000
  S   S4        1.0  0.11657558713429947  0.0035038195872801035  0.8216409414956942  1.0000
  S   S5        1.0  0.35394492983334663  0.47318422481849604  0.6660048085772345  1.0000
  S   S6        1.0  0.4930265244319968  0.5266446153812153  0.3341685176693899  1.0000
  S   S7        1.0  0.9617034500619327  0.7321382364303018  0.7349695080240223  1.0000
  S   S8        1.0  0.42849350836063854  0.26795644670464464  0.2651498053520028  1.0000
  N   N1        1.0  0.9777596589817461  0.4046587447789988  0.16660933960756077  1.0000
  N   N2        1.0  0.5492388410406688  0.5953088747803933  0.8333609101880199  1.0000
  N   N3        1.0  0.8347631929141595  0.623945815794869  0.0860904763967339  1.0000
  N   N4        1.0  0.5447183091767939  0.376092456282109  0.9137916259907825  1.0000
  N   N5        1.0  0.7801144253306164  0.5226048261019401  0.05403680512685569  1.0000
  N   N6        1.0  0.3566654141305674  0.47756574404321134  0.9458003062124972  1.0000
  N   N7        1.0  0.47117348020359606  0.9841020700106072  0.14954089527691383  1.0000
  N   N8        1.0  0.6045872110463578  0.016053631912655013  0.8503172409079623  1.0000
  N   N9        1.0  0.2708902065359879  0.03970882194781921  0.18086080788460623  1.0000
  N   N10       1.0  0.4912812796008196  0.9603838410862625  0.8190588895107067  1.0000
  N   N11       1.0  0.9514262879538574  0.22226939735008241  0.39505425424720614  1.0000
  N   N12       1.0  0.5687180505670638  0.7775594727299194  0.6050671734865175  1.0000
  N   N13       1.0  0.6960967819457482  0.20585444088396093  0.5169067185910093  1.0000
  N   N14       1.0  0.41888647379457195  0.7940446348803364  0.4831665538653239  1.0000
  N   N15       1.0  0.7740910026726481  0.2757414518754758  0.5635690406922363  1.0000
  N   N16       1.0  0.6134960725939393  0.7240069271965198  0.4365707833246829  1.0000
  N   N17       1.0  0.1713171330630913  0.33472558803254776  0.6149401983934054  1.0000
  N   N18       1.0  0.12077530667070145  0.6653933706937207  0.3852591679232019  1.0000
  N   N19       1.0  0.02786214685214368  0.46599355050309993  0.6552746112568356  1.0000
  N   N20       1.0  0.1488127446125062  0.5341614284331087  0.34495816257333434  1.0000
