data_image0
_chemical_formula_structural       Cd2H32C24S2N8O16
_chemical_formula_sum              "Cd2 H32 C24 S2 N8 O16"
_cell_length_a       6.748337835326002
_cell_length_b       10.114734530012363
_cell_length_c       12.652007713389317
_cell_angle_alpha    90.00015501256871
_cell_angle_beta     89.86539529932699
_cell_angle_gamma    90.00009000236324

_space_group_name_H-M_alt    "P 1"
_space_group_IT_number       1

loop_
  _space_group_symop_operation_xyz
  'x, y, z'

loop_
  _atom_site_type_symbol
  _atom_site_label
  _atom_site_symmetry_multiplicity
  _atom_site_fract_x
  _atom_site_fract_y
  _atom_site_fract_z
  _atom_site_occupancy
  Cd  Cd1       1.0  0.24628387649505618  0.4374794210597626  0.9885973297903803  1.0000
  Cd  Cd2       1.0  0.7537161688600591  0.9374802835934091  0.0114034779260734  1.0000
  H   H1        1.0  0.16763796685839344  0.7910199032479212  0.31820970394215914  1.0000
  H   H2        1.0  0.8323587630899497  0.2910205961387147  0.6817915717231245  1.0000
  H   H3        1.0  0.4117846577932553  0.15259260759003718  0.6745794281985908  1.0000
  H   H4        1.0  0.5882162023243681  0.6525913918369708  0.3254207662643367  1.0000
  H   H5        1.0  0.2195484929340878  0.39047922710436467  0.7345429287843929  1.0000
  H   H6        1.0  0.7804529330184024  0.8904789990930123  0.2654569897521455  1.0000
  H   H7        1.0  0.17844306280855454  0.5177447483654019  0.5696058209853092  1.0000
  H   H8        1.0  0.8215560085650893  0.01774359153271379  0.4303932886176014  1.0000
  H   H9        1.0  0.1651446427309438  0.8730603705580148  0.7605165541662373  1.0000
  H   H10       1.0  0.8348596884346051  0.373060559720919  0.2394849131716441  1.0000
  H   H11       1.0  0.20265144530539916  0.7307672525282027  0.9176826012154748  1.0000
  H   H12       1.0  0.7973525703303609  0.23076588244119017  0.0823169776241386  1.0000
  H   H13       1.0  0.13527395905048684  0.8984961907835755  0.5690861066186201  1.0000
  H   H14       1.0  0.8647259950269942  0.39849804698928165  0.4309146167930535  1.0000
  H   H15       1.0  0.31947132486816804  0.15266668563939584  0.0761123020068482  1.0000
  H   H16       1.0  0.6805310172518944  0.6526695669192576  0.9238878954708909  1.0000
  H   H17       1.0  0.3359699944003651  0.027077917113409487  0.2433543198273824  1.0000
  H   H18       1.0  0.664030554178062  0.5270782384835542  0.7566471839676865  1.0000
  H   H19       1.0  0.32112148759218684  0.4016159479885886  0.4090561595519376  1.0000
  H   H20       1.0  0.6788814815593724  0.9016147362042445  0.5909406243764721  1.0000
  H   H21       1.0  0.2866364915315884  0.5109057010869903  0.2348714117032102  1.0000
  H   H22       1.0  0.7133670181271582  0.010905562108845896  0.7651269012756643  1.0000
  H   H23       1.0  0.34795037545863755  0.020283208322574398  0.4341101508214181  1.0000
  H   H24       1.0  0.6520486930371804  0.5202848496700908  0.5658897546596648  1.0000
  H   H25       1.0  0.8840621858033233  0.56868378679858  0.0492793169487769  1.0000
  H   H26       1.0  0.11593846901912742  0.0686836480951598  0.9507214864379847  1.0000
  H   H27       1.0  0.8015039298291242  0.4396616818306425  0.9910113135742904  1.0000
  H   H28       1.0  0.19849611181015803  0.9396619534707039  0.0089902892463556  1.0000
  H   H29       1.0  0.009267379615813802  0.24092030882482615  0.8726721363378971  1.0000
  H   H30       1.0  0.990732214323991  0.7409218119481478  0.1273274559114626  1.0000
  H   H31       1.0  0.24514898780825686  0.2208803370085093  0.8582243595916523  1.0000
  H   H32       1.0  0.7548520410309792  0.7208806527381738  0.141775192167799  1.0000
  C   C1        1.0  0.2044751769319149  0.49740837751354394  0.7374630430955307  1.0000
  C   C2        1.0  0.7955235357455949  0.9974081554514237  0.2625371009876005  1.0000
  C   C3        1.0  0.18429102221513463  0.5692677337060063  0.64494642598779  1.0000
  C   C4        1.0  0.8157051973277376  0.06926829339623447  0.3550535797265937  1.0000
  C   C5        1.0  0.17014403890583915  0.7077953447629922  0.6499779401510538  1.0000
  C   C6        1.0  0.8298539779971749  0.20779590229747666  0.3500231583813047  1.0000
  C   C7        1.0  0.17548902146497622  0.7663131186617703  0.75059228298786  1.0000
  C   C8        1.0  0.8245121049296102  0.2663133305084671  0.24940815741067718  1.0000
  C   C9        1.0  0.1953049206332835  0.6872108569450076  0.8393268988580332  1.0000
  C   C10       1.0  0.8046989841911059  0.18720975941351975  0.16067337617144517  1.0000
  C   C11       1.0  0.15219712700584864  0.7916560055689386  0.557362096455094  1.0000
  C   C12       1.0  0.8478040587307661  0.29165788364044687  0.4426383987522371  1.0000
  C   C13       1.0  0.31456617923752367  0.2039266827710761  0.1515207489651758  1.0000
  C   C14       1.0  0.6854333192574131  0.7039283256591345  0.8484795536666709  1.0000
  C   C15       1.0  0.3260732321621518  0.13444899881899622  0.2457050263836038  1.0000
  C   C16       1.0  0.6739260948251484  0.6344493226293434  0.7542959163785312  1.0000
  C   C17       1.0  0.3290459917236462  0.20334370492169268  0.342052967844687  1.0000
  C   C18       1.0  0.6709549960533961  0.7033436999524836  0.6579465459893683  1.0000
  C   C19       1.0  0.3168351639223205  0.34214911324742286  0.3374524106368852  1.0000
  C   C20       1.0  0.6831602215692741  0.8421491366417085  0.6625473919796009  1.0000
  C   C21       1.0  0.3006087394503041  0.4038697888666362  0.24005159451169789  1.0000
  C   C22       1.0  0.699392735507651  0.9038711471656169  0.75994677221437  1.0000
  C   C23       1.0  0.3474483356419782  0.1284224864054977  0.43953541438718696  1.0000
  C   C24       1.0  0.6525495042353597  0.6284231212854933  0.5604647221066159  1.0000
  S   S1        1.0  0.613898989466698  0.24461028299465679  0.8668084286664807  1.0000
  S   S2        1.0  0.38610210376034365  0.7446101826842905  0.1331903840259088  1.0000
  N   N1        1.0  0.21076234774332653  0.5543927384622265  0.8339872832552969  1.0000
  N   N2        1.0  0.7892412460889418  0.054391642754630695  0.16601270453927702  1.0000
  N   N3        1.0  0.16259943386556588  0.7412551231154861  0.4636853777870726  1.0000
  N   N4        1.0  0.8374001520329629  0.2412563182405876  0.5363150055714598  1.0000
  N   N5        1.0  0.3001958904219962  0.33678136650352997  0.14761869950577022  1.0000
  N   N6        1.0  0.6998083822730479  0.8367830376633799  0.8523803182197796  1.0000
  N   N7        1.0  0.3647008253485638  0.18771041205373953  0.5294611278930361  1.0000
  N   N8        1.0  0.6352986351745998  0.6877107248766521  0.4705391396677641  1.0000
  O   O1        1.0  0.14533352864421537  0.8372644247492071  0.38705516491808817  1.0000
  O   O2        1.0  0.8546529456415969  0.3372658970009112  0.6129454004205854  1.0000
  O   O3        1.0  0.38241452064058024  0.0977536751943191  0.6109784762572588  1.0000
  O   O4        1.0  0.617587692896784  0.5977527052398839  0.3890216024604243  1.0000
  O   O5        1.0  0.5905686256499225  0.37274027609972643  0.9246899137424265  1.0000
  O   O6        1.0  0.4094342494171954  0.8727409932934831  0.0753091788973066  1.0000
  O   O7        1.0  0.4484993002942658  0.23110699175860105  0.7891090936833721  1.0000
  O   O8        1.0  0.55150176131432  0.7311063390133012  0.2108896898059456  1.0000
  O   O9        1.0  0.8062484705684697  0.2446448868641652  0.8076041890764785  1.0000
  O   O10       1.0  0.1937541045637801  0.7446447847841354  0.19239462654091713  1.0000
  O   O11       1.0  0.6080579408456401  0.13345969067593438  0.9426741240295868  1.0000
  O   O12       1.0  0.39194141912509656  0.6334603287225985  0.0573236550516683  1.0000
  O   O13       1.0  0.911647035485764  0.47350579754603217  0.0351919726974756  1.0000
  O   O14       1.0  0.08835456722349731  0.9735062183034058  0.9648097061654184  1.0000
  O   O15       1.0  0.1374085500443343  0.23089052155114576  0.912695596973876  1.0000
  O   O16       1.0  0.8625925022335608  0.7308907662468511  0.0873039764337094  1.0000
