data_image0
_chemical_formula_structural       Ni4H36C36N4O20
_chemical_formula_sum              "Ni4 H36 C36 N4 O20"
_cell_length_a       7.4509890670388295
_cell_length_b       7.521565164148817
_cell_length_c       17.605800496444992
_cell_angle_alpha    90.00072107490116
_cell_angle_beta     89.99962697603168
_cell_angle_gamma    89.9999681191011

_space_group_name_H-M_alt    "P 1"
_space_group_IT_number       1

loop_
  _space_group_symop_operation_xyz
  'x, y, z'

loop_
  _atom_site_type_symbol
  _atom_site_label
  _atom_site_symmetry_multiplicity
  _atom_site_fract_x
  _atom_site_fract_y
  _atom_site_fract_z
  _atom_site_occupancy
  Ni  Ni1       1.0  0.7351223046086517  0.25000213398324417  0.7107330450712792  1.0000
  Ni  Ni2       1.0  0.7648806349806205  0.24999475163742346  0.21073756258261506  1.0000
  Ni  Ni3       1.0  0.2351248436210298  0.7500004256969817  0.7892625966058727  1.0000
  Ni  Ni4       1.0  0.2648778055803405  0.7500010204073532  0.28926654615131037  1.0000
  H   H1        1.0  0.3303614551963179  0.24999924504135146  0.6876894862782164  1.0000
  H   H2        1.0  0.1696376916169129  0.24999324381440152  0.18768517519582414  1.0000
  H   H3        1.0  0.8303664449252466  0.7500019334366002  0.8123093040482698  1.0000
  H   H4        1.0  0.6696319444657135  0.7500025798573019  0.3123112409391878  1.0000
  H   H5        1.0  0.7718864891937259  0.25000235731914705  0.5462639042440073  1.0000
  H   H6        1.0  0.7281109578296353  0.24999898343767063  0.046265681899754385  1.0000
  H   H7        1.0  0.27189317867563995  0.75000151192242  0.9537333413155904  1.0000
  H   H8        1.0  0.22810019996306613  0.7499994675562005  0.45373511899865787  1.0000
  H   H9        1.0  0.24440294303066418  0.24999569100067726  0.44513261186148145  1.0000
  H   H10       1.0  0.2555989070791043  0.25000173271956777  0.9451286065872321  1.0000
  H   H11       1.0  0.7444038873628854  0.7500120576622962  0.05486473671941638  1.0000
  H   H12       1.0  0.755590456650559  0.7500008158223963  0.5548658433631528  1.0000
  H   H13       1.0  0.11761605533988727  0.24999502836730866  0.5781582609553053  1.0000
  H   H14       1.0  0.3823807700749313  0.2499942295947548  0.07815280264521357  1.0000
  H   H15       1.0  0.6176206822586822  0.7500049361885246  0.9218416766132405  1.0000
  H   H16       1.0  0.8823733180066211  0.7500067965408165  0.42184303426219555  1.0000
  H   H17       1.0  0.5771280268150534  0.24999934458831766  0.4285501239110728  1.0000
  H   H18       1.0  0.9228661539936666  0.2500026364365766  0.9285473671778132  1.0000
  H   H19       1.0  0.07712992991289978  0.7500084949595802  0.07144824810931988  1.0000
  H   H20       1.0  0.4228640307315317  0.7499971622937593  0.571452307277738  1.0000
  H   H21       1.0  0.0014111151338340997  0.142531109382702  0.7845276166985113  1.0000
  H   H22       1.0  0.4985718224426847  0.14251695241901524  0.2845246819488522  1.0000
  H   H23       1.0  0.0014177644212765  0.357477063389247  0.7845259217850111  1.0000
  H   H24       1.0  0.5014337174026552  0.6425189757850802  0.7154760361190637  1.0000
  H   H25       1.0  0.9985809423956978  0.8574786926296906  0.2154765185098667  1.0000
  H   H26       1.0  0.5014323140675147  0.8574662593043385  0.7154743412200941  1.0000
  H   H27       1.0  0.9985850299728513  0.642534068063732  0.21547366945534202  1.0000
  H   H28       1.0  0.498575787486608  0.3574655655143458  0.2845275310031211  1.0000
  H   H29       1.0  0.6105961431109462  0.0895163748841554  0.9419594184410938  1.0000
  H   H30       1.0  0.8893912098703965  0.08951557241768877  0.4419618929552127  1.0000
  H   H31       1.0  0.6105987358631566  0.4104841452070289  0.9419597121580164  1.0000
  H   H32       1.0  0.1106197285975838  0.5895091755789892  0.5580385404928732  1.0000
  H   H33       1.0  0.3894012828567597  0.9104734844354923  0.05804244472793838  1.0000
  H   H34       1.0  0.11061158451387598  0.9104835934657558  0.5580394022368791  1.0000
  H   H35       1.0  0.3894054006411096  0.5895043845667658  0.05803987901983019  1.0000
  H   H36       1.0  0.8893911183952525  0.4104913198379164  0.4419644586756915  1.0000
  C   C1        1.0  0.3792909833794695  0.2500010312328129  0.629410331468321  1.0000
  C   C2        1.0  0.12071578108265157  0.24999505660289148  0.12940728958720624  1.0000
  C   C3        1.0  0.8792896975484297  0.7500054387149502  0.8705888936531989  1.0000
  C   C4        1.0  0.6207024162781424  0.7500007936742179  0.37059096374370154  1.0000
  C   C5        1.0  0.626053475158116  0.2500011165546141  0.5495953912320812  1.0000
  C   C6        1.0  0.8739466042424766  0.24999766340264523  0.04959393184568479  1.0000
  C   C7        1.0  0.1260575322753041  0.750005490953349  0.9504033873929312  1.0000
  C   C8        1.0  0.37393589820203493  0.7499993788178613  0.45040419999798315  1.0000
  C   C9        1.0  0.33245798303563134  0.2499990534074712  0.49444578508828113  1.0000
  C   C10       1.0  0.1675417573867861  0.2499984954127186  0.9944420195500779  1.0000
  C   C11       1.0  0.8324583528264569  0.7500126359907212  0.005554163726195298  1.0000
  C   C12       1.0  0.6675327324241779  0.7500001124625016  0.5055543741310159  1.0000
  C   C13       1.0  0.2618573889799478  0.2499974956168174  0.5678120425540951  1.0000
  C   C14       1.0  0.23813959747797497  0.24999810470952608  0.06780640898445969  1.0000
  C   C15       1.0  0.7618618548489521  0.7500090381452509  0.9321886382900355  1.0000
  C   C16       1.0  0.7381333264669718  0.7500003407677696  0.43218982064549016  1.0000
  C   C17       1.0  0.5180844179982245  0.2500001958044962  0.48517756413590246  1.0000
  C   C18       1.0  0.981918276110747  0.2500007965439224  0.9851740786288655  1.0000
  C   C19       1.0  0.018079149895101  0.7500103348602495  0.014822104651059893  1.0000
  C   C20       1.0  0.4819116658635067  0.7499976405786343  0.5148242990563785  1.0000
  C   C21       1.0  0.5080267665011816  0.044046793979021  0.8281492175767224  1.0000
  C   C22       1.0  0.9919825154155076  0.04404859487932811  0.3281565247499357  1.0000
  C   C23       1.0  0.508027991233149  0.4559504247484085  0.828150323429284  1.0000
  C   C24       1.0  0.008023080538301  0.5440495992714246  0.6718448005805013  1.0000
  C   C25       1.0  0.49197200158347704  0.9559430653151394  0.17185094160662115  1.0000
  C   C26       1.0  0.0080229631702267  0.9559558890538399  0.6718453384474043  1.0000
  C   C27       1.0  0.4919721189367793  0.5440420935999272  0.17185210773786244  1.0000
  C   C28       1.0  0.9919823980330378  0.4559588732184281  0.3281587666114091  1.0000
  C   C29       1.0  0.575381067282848  0.1611589529372992  0.8901028857124229  1.0000
  C   C30       1.0  0.9246191309520384  0.16116743795127764  0.39010810432564097  1.0000
  C   C31       1.0  0.5753837008655367  0.33885202223602556  0.8901022267793193  1.0000
  C   C32       1.0  0.0753904245638353  0.6611639193391169  0.6098944178492116  1.0000
  C   C33       1.0  0.42461904288479957  0.8388415424741494  0.10989954547613927  1.0000
  C   C34       1.0  0.075383663422258  0.8388357164804746  0.6098943268664099  1.0000
  C   C35       1.0  0.4246204356257195  0.6611511321702322  0.10989850042703606  1.0000
  C   C36       1.0  0.924620422414229  0.3388418941449913  0.3901102853174975  1.0000
  N   N1        1.0  0.5586591856522745  0.2500008517587062  0.6205448272192482  1.0000
  N   N2        1.0  0.9413397893723072  0.2499973620266971  0.12054545631568196  1.0000
  N   N3        1.0  0.058665689249934906  0.7500031333078921  0.879451862913967  1.0000
  N   N4        1.0  0.44133287191123577  0.749998314110904  0.3794553319982156  1.0000
  O   O1        1.0  0.9304339444465413  0.2500060388201319  0.7987997773568903  1.0000
  O   O2        1.0  0.5695609138751863  0.24998945591090657  0.298798010701688  1.0000
  O   O3        1.0  0.43044859104615807  0.7499910967983254  0.7012015804474314  1.0000
  O   O4        1.0  0.06955945522129527  0.7500064221459153  0.20119981389981934  1.0000
  O   O5        1.0  0.3845367005403729  0.938916739460332  0.8493868351285411  1.0000
  O   O6        1.0  0.1154675893415842  0.9389280514349848  0.34939175950463397  1.0000
  O   O7        1.0  0.3845394923980123  0.5610831452595945  0.8493875247235746  1.0000
  O   O8        1.0  0.8845350974007856  0.4389219922600774  0.6506071421513082  1.0000
  O   O9        1.0  0.6154687780583714  0.061073119840379796  0.15061389204029035  1.0000
  O   O10       1.0  0.8845378892555189  0.0610830800256394  0.6506083997266854  1.0000
  O   O11       1.0  0.6154686703864131  0.438905384571754  0.15061604241114418  1.0000
  O   O12       1.0  0.11546635488748788  0.5610811621385278  0.34939301706408077  1.0000
  O   O13       1.0  0.5740789209989146  0.04892243090710479  0.7610439841083687  1.0000
  O   O14       1.0  0.9259381131954143  0.04893091520907689  0.26104919915326247  1.0000
  O   O15       1.0  0.5740788064059927  0.45107410202436427  0.7610450637812745  1.0000
  O   O16       1.0  0.0740621115669242  0.5489272156503519  0.7389515843927581  1.0000
  O   O17       1.0  0.425923873416302  0.9510767349176985  0.23895333512136563  1.0000
  O   O18       1.0  0.0740606548839438  0.9510775572323311  0.7389509600800535  1.0000
  O   O19       1.0  0.42592667218239194  0.5489210753351728  0.23895679939107584  1.0000
  O   O20       1.0  0.9259393406959617  0.4510719502669643  0.26105198277964786  1.0000
