data_image0
_chemical_formula_structural       Cu20H40C40S8N8Cl20
_chemical_formula_sum              "Cu20 H40 C40 S8 N8 Cl20"
_cell_length_a       11.972971404087254
_cell_length_b       13.657400678016703
_cell_length_c       13.588262208658877
_cell_angle_alpha    79.27413303423207
_cell_angle_beta     63.86027893987691
_cell_angle_gamma    65.01139508500583

_space_group_name_H-M_alt    "P 1"
_space_group_IT_number       1

loop_
  _space_group_symop_operation_xyz
  'x, y, z'

loop_
  _atom_site_type_symbol
  _atom_site_label
  _atom_site_symmetry_multiplicity
  _atom_site_fract_x
  _atom_site_fract_y
  _atom_site_fract_z
  _atom_site_occupancy
  Cu  Cu1       1.0  0.3377181103315506  0.743518796626759  0.7486330125915401  1.0000
  Cu  Cu2       1.0  0.0849741813078141  0.25062799785061424  0.2508901328570872  1.0000
  Cu  Cu3       1.0  0.6622820126554032  0.25647695170633256  0.2513697005318392  1.0000
  Cu  Cu4       1.0  0.9150276389315409  0.7493717251014824  0.7491068418496668  1.0000
  Cu  Cu5       1.0  0.07014571761821052  0.9414609192118417  0.6581209672297561  1.0000
  Cu  Cu6       1.0  0.7271721100272331  0.3423664313157813  0.4416555956815742  1.0000
  Cu  Cu7       1.0  0.012722271944859627  0.15849970313474418  0.057409579197099  1.0000
  Cu  Cu8       1.0  0.1738709875946256  0.5555996249493731  0.8400082797678792  1.0000
  Cu  Cu9       1.0  0.9298548652516561  0.05854061337104347  0.341884205215031  1.0000
  Cu  Cu10      1.0  0.2728221632950607  0.657639789877372  0.5583397394775744  1.0000
  Cu  Cu11      1.0  0.9872732578125468  0.8414992943184099  0.9425939537000829  1.0000
  Cu  Cu12      1.0  0.8261277486839231  0.44440154242056434  0.1599919740340923  1.0000
  Cu  Cu13      1.0  0.15054349246614898  0.989547431529061  0.8059556957655261  1.0000
  Cu  Cu14      1.0  0.9578851683331493  0.19289811774756763  0.4871973095328102  1.0000
  Cu  Cu15      1.0  0.14247451225482172  0.3090441471230605  0.0079616431746246  1.0000
  Cu  Cu16      1.0  0.4426611866275538  0.514658971746833  0.6944000568810225  1.0000
  Cu  Cu17      1.0  0.8494519450893563  0.010456624678177064  0.194045377810248  1.0000
  Cu  Cu18      1.0  0.04211041913462318  0.8071048543236683  0.5128037640429639  1.0000
  Cu  Cu19      1.0  0.8575221823091403  0.6909552106142484  0.9920369710797345  1.0000
  Cu  Cu20      1.0  0.5573396187175066  0.48533930678511417  0.3056018364685542  1.0000
  H   H1        1.0  0.5504472346358967  0.6814594248830799  0.4702820968819381  1.0000
  H   H2        1.0  0.02431636776234569  0.5315730984349045  0.1777343384521757  1.0000
  H   H3        1.0  0.2307810232879534  0.9693296769708935  0.3214423256637033  1.0000
  H   H4        1.0  0.19711588584682727  0.8214200997077867  0.0350625453276265  1.0000
  H   H5        1.0  0.4495521012916938  0.3185374059428483  0.5297181569200333  1.0000
  H   H6        1.0  0.9756894008464982  0.46842518338544886  0.8222650955759861  1.0000
  H   H7        1.0  0.7692230861398884  0.030671493687684258  0.6785546490430505  1.0000
  H   H8        1.0  0.8028875537222575  0.17857998681432724  0.9649360689267327  1.0000
  H   H9        1.0  0.2677128041782808  0.016041991442904167  0.5186577687701046  1.0000
  H   H10       1.0  0.78668029625036  0.47934035409404147  0.5175822255405862  1.0000
  H   H11       1.0  0.28465975456799003  0.019982638640755047  0.9810003563701031  1.0000
  H   H12       1.0  0.3023200794939528  0.4852252590634547  0.9781549214999288  1.0000
  H   H13       1.0  0.7322918769733422  0.983957015872235  0.4813498629960904  1.0000
  H   H14       1.0  0.21332101654184754  0.5206586466479806  0.4824172084875827  1.0000
  H   H15       1.0  0.7153336936235564  0.9800178015880049  0.019000717205671  1.0000
  H   H16       1.0  0.6976795086939307  0.5147744655301948  0.0218502509448584  1.0000
  H   H17       1.0  0.6606000007214446  0.9306814616898221  0.2772663549682477  1.0000
  H   H18       1.0  0.9350450893699149  0.7240932209687753  0.4308616340176243  1.0000
  H   H19       1.0  0.585175860860474  0.780732726548365  0.0686831085358008  1.0000
  H   H20       1.0  0.3676046496503887  0.571966490299097  0.2211110296897232  1.0000
  H   H21       1.0  0.3394008896859048  0.06931609298958107  0.7227330790599212  1.0000
  H   H22       1.0  0.0649541543557818  0.27590866861123686  0.5691361604629392  1.0000
  H   H23       1.0  0.41482248574487113  0.21926807725225209  0.9313130463971505  1.0000
  H   H24       1.0  0.6324011189584553  0.42803179152125637  0.7788884043384458  1.0000
  H   H25       1.0  0.4520075191470169  0.06547763284654445  0.36478376662771694  1.0000
  H   H26       1.0  0.8143806760423401  0.6340244426060763  0.5678441969494301  1.0000
  H   H27       1.0  0.5136557111331967  0.8683824897082885  0.9315229084907202  1.0000
  H   H28       1.0  0.383314438531194  0.43605581314759684  0.1300480963323238  1.0000
  H   H29       1.0  0.5479950929380951  0.9345242633065849  0.6352222255908728  1.0000
  H   H30       1.0  0.1856184701217174  0.36597672476409565  0.43215523707873876  1.0000
  H   H31       1.0  0.4863376847077134  0.1316197568663141  0.0684765255374487  1.0000
  H   H32       1.0  0.6166873614958562  0.5639442733735933  0.869953797017253  1.0000
  H   H33       1.0  0.7213655015226695  0.745327363663847  0.316818801414847  1.0000
  H   H34       1.0  0.038349625688589184  0.6861138459997205  0.24253253893562032  1.0000
  H   H35       1.0  0.461138544033169  0.8184003751770347  0.2573589679364687  1.0000
  H   H36       1.0  0.2800722258233254  0.7576937996093206  0.18634934134778552  1.0000
  H   H37       1.0  0.2786307706564274  0.25467054801083566  0.6831798128395121  1.0000
  H   H38       1.0  0.9616570204016381  0.3138884104391765  0.7574627962235354  1.0000
  H   H39       1.0  0.5388635885300559  0.1815986255654493  0.7426388265440877  1.0000
  H   H40       1.0  0.7199351823275607  0.24230448221195636  0.8136468135851658  1.0000
  C   C1        1.0  0.5261052583587542  0.7670121445635372  0.4508157481561668  1.0000
  C   C2        1.0  0.9792783670012426  0.5504463816659922  0.2645959310692589  1.0000
  C   C3        1.0  0.2913885935184056  0.9509021498759082  0.23457827372521933  1.0000
  C   C4        1.0  0.2400413227752767  0.7356919181253829  0.0522679579047534  1.0000
  C   C5        1.0  0.47389449995370125  0.23298613232501703  0.5491845056457976  1.0000
  C   C6        1.0  0.020724512770073065  0.44955478899189655  0.73540350295891  1.0000
  C   C7        1.0  0.7086132392202984  0.04909901913858749  0.7654195207553443  1.0000
  C   C8        1.0  0.7599673923814622  0.2643074494755166  0.9477290168020005  1.0000
  C   C9        1.0  0.36750797049894174  0.9542328174099238  0.47769777070377734  1.0000
  C   C10       1.0  0.8457552359730796  0.5213852012793652  0.4548146047671509  1.0000
  C   C11       1.0  0.32135022239365446  0.97911882919432  0.044125964493474605  1.0000
  C   C12       1.0  0.2987887192822  0.547597551955043  0.0203771174208924  1.0000
  C   C13       1.0  0.6324947266484529  0.04576835489066146  0.5223057621934046  1.0000
  C   C14       1.0  0.15424560208364124  0.4786141597458807  0.5451831897134127  1.0000
  C   C15       1.0  0.6786466345819167  0.020880890469378143  0.9558734695346942  1.0000
  C   C16       1.0  0.7012134906303589  0.45240253456638146  0.9796239561548816  1.0000
  C   C17       1.0  0.3955356359074997  0.8444303786820697  0.5077113291787967  1.0000
  C   C18       1.0  0.9053695288228456  0.49233423587778447  0.3433311059773061  1.0000
  C   C19       1.0  0.2399070123774791  0.008026450829319716  0.1555938875810625  1.0000
  C   C20       1.0  0.2448943259314477  0.6577093888869567  0.9933691035095934  1.0000
  C   C21       1.0  0.6044668012666463  0.15556970948227888  0.49229302349218784  1.0000
  C   C22       1.0  0.09463564249017509  0.507660791891162  0.6566666885032575  1.0000
  C   C23       1.0  0.7600917239010699  0.991974716540625  0.8444063662209089  1.0000
  C   C24       1.0  0.7551066418252292  0.3422892515713796  0.006633609613786  1.0000
  C   C25       1.0  0.46640608094205793  0.9831000740559686  0.3941013371440008  1.0000
  C   C26       1.0  0.8595956982892689  0.6053828733263698  0.48413873347385566  1.0000
  C   C27       1.0  0.4466972884642433  0.8966411608255453  0.0152084435930462  1.0000
  C   C28       1.0  0.34374620477080964  0.5188030114991163  0.1029086648105846  1.0000
  C   C29       1.0  0.5335920253290071  0.016896756769263308  0.6059013759793785  1.0000
  C   C30       1.0  0.14040292792829234  0.39461612577133554  0.5158623401019113  1.0000
  C   C31       1.0  0.553297961680947  0.10335964133052751  0.9847901706613201  1.0000
  C   C32       1.0  0.6562560574923708  0.48119526867645107  0.8970940483127947  1.0000
  C   C33       1.0  0.6210923615577145  0.8002066950540083  0.3676087071528187  1.0000
  C   C34       1.0  0.9891174333656207  0.6342895651788252  0.2982763377650457  1.0000
  C   C35       1.0  0.41736154595359676  0.8689554669360998  0.2012487302171095  1.0000
  C   C36       1.0  0.28606755950565343  0.7025725601321823  0.1342264834061595  1.0000
  C   C37       1.0  0.378908893524134  0.19978833106993218  0.632393186196758  1.0000
  C   C38       1.0  0.010884561784692439  0.3657119657620597  0.7017222764893205  1.0000
  C   C39       1.0  0.5826404366973676  0.13104461794239336  0.798749064263454  1.0000
  C   C40       1.0  0.7139358675640821  0.29742608032753987  0.8657713110744041  1.0000
  S   S1        1.0  0.2708464208215278  0.8052056030943716  0.6095452705336584  1.0000
  S   S2        1.0  0.8831466548973809  0.3905500994073702  0.3033761505934365  1.0000
  S   S3        1.0  0.0786315119003405  0.10827989273769127  0.1946323358531856  1.0000
  S   S4        1.0  0.18167244187787912  0.6961697564255046  0.8930386273094157  1.0000
  S   S5        1.0  0.729152367807643  0.19479375792972312  0.3904566228159112  1.0000
  S   S6        1.0  0.11685223129342857  0.6094499838265646  0.6966241032085279  1.0000
  S   S7        1.0  0.9213656698984564  0.8917205507787781  0.8053687377225884  1.0000
  S   S8        1.0  0.8183298530969552  0.3038296062433685  0.10695998694495051  1.0000
  N   N1        1.0  0.5899409478388691  0.9065234689730202  0.3411447692447354  1.0000
  N   N2        1.0  0.930107245601924  0.659699989193477  0.4062438267138688  1.0000
  N   N3        1.0  0.49216972565251627  0.8436485877441838  0.0932828808158845  1.0000
  N   N4        1.0  0.3368576746287035  0.5959240768663462  0.1577039853499542  1.0000
  N   N5        1.0  0.4100591477961615  0.09347697783070417  0.658857943878644  1.0000
  N   N6        1.0  0.06989370251578456  0.34030154010400776  0.593753147992885  1.0000
  N   N7        1.0  0.5078272413840423  0.15635330019174626  0.9067157334384746  1.0000
  N   N8        1.0  0.6631491737244063  0.4040752890907058  0.8422929893568067  1.0000
  Cl  Cl1       1.0  1.3036493556077539e-06  0.9999993202296265  0.4999997170140844  1.0000
  Cl  Cl2       1.0  0.4999992869334663  0.5000004027217742  0.4999997170140844  1.0000
  Cl  Cl3       1.0  0.9999992835769688  0.999998637171778  0.9999986142543662  1.0000
  Cl  Cl4       1.0  0.9999998944416718  0.49999949718690523  0.9999991802261974  1.0000
  Cl  Cl5       1.0  0.35253470574502915  0.8911187555659124  0.8060507895266724  1.0000
  Cl  Cl6       1.0  0.16399591271825645  0.19227436710960424  0.3914346129628825  1.0000
  Cl  Cl7       1.0  0.24950928167681502  0.3069070546306776  0.1067107757088408  1.0000
  Cl  Cl8       1.0  0.5547994516936755  0.6086594772660802  0.6956174209784579  1.0000
  Cl  Cl9       1.0  0.6474589899204091  0.10888132273669267  0.1939486445014893  1.0000
  Cl  Cl10      1.0  0.8360001244862972  0.807725352553625  0.6085664606128915  1.0000
  Cl  Cl11      1.0  0.7504897871379157  0.6930930269605609  0.8932853792241104  1.0000
  Cl  Cl12      1.0  0.44520161362464006  0.39133988540210385  0.3043836525973092  1.0000
  Cl  Cl13      1.0  0.04965692149625774  0.10681894464913462  0.7058604946468066  1.0000
  Cl  Cl14      1.0  0.7563504716878526  0.29259979762647936  0.6062809312501614  1.0000
  Cl  Cl15      1.0  0.15575233237204603  0.20774796377320823  0.8909391865999581  1.0000
  Cl  Cl16      1.0  0.3617942253536767  0.3922036786988342  0.7924613991945293  1.0000
  Cl  Cl17      1.0  0.9503418599933012  0.8931847512765004  0.2941364800599544  1.0000
  Cl  Cl18      1.0  0.2436426641798166  0.7074013648118933  0.3937193225518101  1.0000
  Cl  Cl19      1.0  0.8442442521309276  0.7922492256918615  0.1090602474282107  1.0000
  Cl  Cl20      1.0  0.6382027940335037  0.6077964028912531  0.2075388546074421  1.0000
