data_image0
_chemical_formula_structural       Hg2H20C12N4F12
_chemical_formula_sum              "Hg2 H20 C12 N4 F12"
_cell_length_a       7.785158938016945
_cell_length_b       8.954878298206536
_cell_length_c       9.372222694437587
_cell_angle_alpha    61.46326199461999
_cell_angle_beta     83.9171196803261
_cell_angle_gamma    77.18818153760432

_space_group_name_H-M_alt    "P 1"
_space_group_IT_number       1

loop_
  _space_group_symop_operation_xyz
  'x, y, z'

loop_
  _atom_site_type_symbol
  _atom_site_label
  _atom_site_symmetry_multiplicity
  _atom_site_fract_x
  _atom_site_fract_y
  _atom_site_fract_z
  _atom_site_occupancy
  Hg  Hg1       1.0  0.2500263269456298  0.3972295205992111  0.20551452328486874  1.0000
  Hg  Hg2       1.0  0.7499746653725836  0.602770660602843  0.7944840787234496  1.0000
  H   H1        1.0  0.2491162501790853  0.02327432525601133  0.47837861249368524  1.0000
  H   H2        1.0  0.2508886472650147  0.4983422675420286  0.478373267017936  1.0000
  H   H3        1.0  0.7508845079704825  0.9767255170064859  0.5216216266807975  1.0000
  H   H4        1.0  0.7491105655537567  0.5016594842873232  0.5216263725058212  1.0000
  H   H5        1.0  0.15029452552741418  0.021308987495331198  0.2492610034693925  1.0000
  H   H6        1.0  0.3497139794180911  0.7294219084339985  0.2492700763257502  1.0000
  H   H7        1.0  0.8497075274000779  0.9786907393675862  0.750739335323736  1.0000
  H   H8        1.0  0.6502852334006805  0.2705798433953533  0.7507295631980069  1.0000
  H   H9        1.0  0.9437276279575427  0.1445062218016133  0.2633170710418539  1.0000
  H   H10       1.0  0.5562803355566217  0.5921817473670572  0.26331034927327573  1.0000
  H   H11       1.0  0.056271827221983935  0.8554948024138798  0.7366819999148716  1.0000
  H   H12       1.0  0.44371886907002506  0.4078210710157039  0.7366882216513628  1.0000
  H   H13       1.0  0.904252682243907  0.23107691794264457  0.4899172324102067  1.0000
  H   H14       1.0  0.595753823496601  0.2790054357899692  0.48990172172769053  1.0000
  H   H15       1.0  0.0957480677135436  0.7689239908732618  0.5100819381651575  1.0000
  H   H16       1.0  0.40424667590796287  0.7209972671932122  0.5100969488155866  1.0000
  H   H17       1.0  0.08520222414901467  0.16115863843446476  0.6220446146520472  1.0000
  H   H18       1.0  0.4147902226118703  0.21680634938846316  0.6220304924134722  1.0000
  H   H19       1.0  0.9147998287784774  0.8388410884284526  0.37795572414108136  1.0000
  H   H20       1.0  0.5852105109613388  0.7831966925342686  0.3779665409636408  1.0000
  C   C1        1.0  0.008180028053779178  0.5764801233611437  0.18446941498564226  1.0000
  C   C2        1.0  0.4918705398140729  0.23903800690900576  0.18446415972292124  1.0000
  C   C3        1.0  0.9918207464800374  0.4235175857945279  0.8155329613870987  1.0000
  C   C4        1.0  0.508130444312016  0.7609632408464507  0.8155333736862713  1.0000
  C   C5        1.0  0.053459136268621386  0.042010848339721546  0.3356652123467042  1.0000
  C   C6        1.0  0.4465547072309234  0.6223248620034242  0.3356688336958411  1.0000
  C   C7        1.0  0.9465429084667535  0.9579899450766051  0.6643340578472987  1.0000
  C   C8        1.0  0.5534458003657647  0.3776767744263481  0.6643309054465618  1.0000
  C   C9        1.0  0.015604304327531779  0.12365113724484894  0.5519049363679045  1.0000
  C   C10       1.0  0.48440113980996824  0.324448596518792  0.5518924498267379  1.0000
  C   C11       1.0  0.9843977404078433  0.8763496561714776  0.44809433382609853  1.0000
  C   C12       1.0  0.5155993595946027  0.6755541064643821  0.44810622071653927  1.0000
  N   N1        1.0  0.1343246009582799  0.10656853490454678  0.4252562716042547  1.0000
  N   N2        1.0  0.3656868206159132  0.4681768978028913  0.425251659444207  1.0000
  N   N3        1.0  0.8656774437770947  0.8934322585117798  0.5747429985897552  1.0000
  N   N4        1.0  0.6343126345636135  0.5318241264126017  0.5747474115125115  1.0000
  F   F1        1.0  0.008637121973016824  0.7449375771673132  0.06898857544140202  1.0000
  F   F2        1.0  0.4914388948520029  0.18609771698097433  0.06894927792674109  1.0000
  F   F3        1.0  0.9913626913098811  0.2550619758903992  0.9310171437986199  1.0000
  F   F4        1.0  0.508556399811617  0.8138944590569395  0.9310535318819859  1.0000
  F   F5        1.0  0.9630453273108159  0.5853972651486359  0.32877966918854895  1.0000
  F   F6        1.0  0.5369779780761306  0.08579775653104348  0.3287588700570864  1.0000
  F   F7        1.0  0.03695078560132711  0.41459518416400704  0.6712254459720267  1.0000
  F   F8        1.0  0.4630166233265883  0.9142065243386314  0.6712421763118711  1.0000
  F   F9        1.0  0.8641128998191333  0.5332274824354215  0.14951322236367293  1.0000
  F   F10       1.0  0.6359223974487446  0.31726338122062714  0.14953216277405088  1.0000
  F   F11       1.0  0.13589091622355903  0.4667728069070166  0.8504839417157655  1.0000
  F   F12       1.0  0.3640824126133566  0.6827307980061335  0.850465932834595  1.0000
