data_image0
_chemical_formula_structural       Zn4H44C40S4N12Cl8
_chemical_formula_sum              "Zn4 H44 C40 S4 N12 Cl8"
_cell_length_a       9.134847690429613
_cell_length_b       9.89469085789714
_cell_length_c       17.63255947093063
_cell_angle_alpha    105.83648045853268
_cell_angle_beta     89.9893900082529
_cell_angle_gamma    117.52823769563064

_space_group_name_H-M_alt    "P 1"
_space_group_IT_number       1

loop_
  _space_group_symop_operation_xyz
  'x, y, z'

loop_
  _atom_site_type_symbol
  _atom_site_label
  _atom_site_symmetry_multiplicity
  _atom_site_fract_x
  _atom_site_fract_y
  _atom_site_fract_z
  _atom_site_occupancy
  Zn  Zn1       1.0  0.5740187362803083  0.5789539783716435  0.37595069086236793  1.0000
  Zn  Zn2       1.0  0.9950342203960361  0.421061960936946  0.12406670675115815  1.0000
  Zn  Zn3       1.0  0.42597831983999873  0.42104496068046887  0.6240481474882671  1.0000
  Zn  Zn4       1.0  0.00496561592056108  0.5789381594146547  0.8759334506466985  1.0000
  H   H1        1.0  0.20437739155799764  0.5287802660424817  0.3685606857701913  1.0000
  H   H2        1.0  0.6755364862688679  0.4709227424502417  0.13145266838363062  1.0000
  H   H3        1.0  0.7956190389289188  0.47121742372956293  0.6314413599700617  1.0000
  H   H4        1.0  0.32446287197531376  0.529078609620761  0.8685454132226483  1.0000
  H   H5        1.0  0.1016261519772499  0.6260832730767447  0.428771339846037  1.0000
  H   H6        1.0  0.47536335223581716  0.37349985875374614  0.07123751909516333  1.0000
  H   H7        1.0  0.8983713734073505  0.3739144170723209  0.5712307059016625  1.0000
  H   H8        1.0  0.5246365016970174  0.6265002959651653  0.9287603750917129  1.0000
  H   H9        1.0  0.13567283450415604  0.48184998377237787  0.45630852900234947  1.0000
  H   H10       1.0  0.6537592960316019  0.517759605675032  0.04369389843768093  1.0000
  H   H11       1.0  0.8643219062800969  0.5181465164853662  0.5436927635008717  1.0000
  H   H12       1.0  0.346240165732965  0.48224414147717454  0.9563045580148569  1.0000
  H   H13       1.0  0.6971022525905751  0.017955588174047004  0.68749876841607  1.0000
  H   H14       1.0  0.6794064510727013  0.9825175246353058  0.812334632701969  1.0000
  H   H15       1.0  0.30289967440507587  0.9820421464422183  0.3125004483476701  1.0000
  H   H16       1.0  0.32059377300810604  0.017478994691181502  0.18766552823296936  1.0000
  H   H17       1.0  0.6025148296125166  0.12552330549900861  0.6641436518356159  1.0000
  H   H18       1.0  0.4771304150253003  0.8746385687511523  0.8356187213932175  1.0000
  H   H19       1.0  0.39748869677759324  0.8744732493258387  0.3358542459106603  1.0000
  H   H20       1.0  0.5228715934704341  0.12536151798717302  0.1643836992304983  1.0000
  H   H21       1.0  0.7868135187239744  0.13837859127554714  0.6244094373892325  1.0000
  H   H22       1.0  0.6486078394545843  0.8619431029821458  0.875348716188988  1.0000
  H   H23       1.0  0.21318672297307736  0.861617962418251  0.3755884603347256  1.0000
  H   H24       1.0  0.3513942769655857  0.1380593874292089  0.12465351347824341  1.0000
  H   H25       1.0  0.9872167801993829  0.8771986018272673  0.6823687917493474  1.0000
  H   H26       1.0  0.1097146447445212  0.1226344132978454  0.8176248716601293  1.0000
  H   H27       1.0  0.012787030327508825  0.12280508669021376  0.31763362535217254  1.0000
  H   H28       1.0  0.8902858943014919  0.8773692998640713  0.1823758480108282  1.0000
  H   H29       1.0  0.9054687306927959  0.760106819652343  0.7936166448345433  1.0000
  H   H30       1.0  0.1450435297065624  0.23960323683344598  0.7063860494043512  1.0000
  H   H31       1.0  0.0945338858200913  0.23989448199875338  0.20638483161053503  1.0000
  H   H32       1.0  0.8549570137435081  0.7604004849202967  0.2936141044638704  1.0000
  H   H33       1.0  0.3425295940383818  0.6971751439762599  0.6498364590739243  1.0000
  H   H34       1.0  0.6451596769020752  0.3022244312586864  0.8498205799627672  1.0000
  H   H35       1.0  0.6574701343537724  0.3028225727023185  0.3501638892804238  1.0000
  H   H36       1.0  0.3548366897009956  0.697770940758602  0.15017599870652282  1.0000
  H   H37       1.0  0.23266286171803344  0.5735829701565154  0.7558078583344924  1.0000
  H   H38       1.0  0.6589434463606308  0.4258487479764953  0.7439007053669827  1.0000
  H   H39       1.0  0.7673357761804951  0.4264147547368681  0.244191924209666  1.0000
  H   H40       1.0  0.34105500641038594  0.5741573595125901  0.25610038913535504  1.0000
  H   H41       1.0  0.7369600530127015  0.8462780032924899  0.5178751090037964  1.0000
  H   H42       1.0  0.890710189298119  0.15389588731846976  0.9820646723624336  1.0000
  H   H43       1.0  0.26304008075990737  0.15371614672827863  0.482122979676646  1.0000
  H   H44       1.0  0.10929073751210445  0.8461042248183264  0.017936050845612856  1.0000
  C   C1        1.0  0.18997397276364583  0.5800373410495256  0.4297348814699192  1.0000
  C   C2        1.0  0.6098241004287389  0.419590042040774  0.07027948413900732  1.0000
  C   C3        1.0  0.8100218585142329  0.4199591509934137  0.5702669768434918  1.0000
  C   C4        1.0  0.390175361335821  0.5804137051114397  0.9297189723135306  1.0000
  C   C5        1.0  0.3531624215138154  0.7069700387124345  0.47741241100995796  1.0000
  C   C6        1.0  0.6460005991389721  0.29273135927164173  0.02256615041628152  1.0000
  C   C7        1.0  0.646837194549839  0.29302526570128873  0.5225886941036252  1.0000
  C   C8        1.0  0.3539999575232713  0.7072723882575859  0.9774323060436956  1.0000
  C   C9        1.0  0.3878352990723642  0.8393738623717869  0.545586909377036  1.0000
  C   C10       1.0  0.5483358179742125  0.16046768277156084  0.9543090365454676  1.0000
  C   C11       1.0  0.6121627352130685  0.16062265620066546  0.45441325154301654  1.0000
  C   C12       1.0  0.4516663292743743  0.8395348677825822  0.0456892325025464  1.0000
  C   C13       1.0  0.561050624187402  0.9182301162159308  0.5705961849341038  1.0000
  C   C14       1.0  0.6428587548449372  0.08186043370303514  0.9292512595697815  1.0000
  C   C15       1.0  0.4389530916272264  0.08177119440400563  0.42940472571567073  1.0000
  C   C16       1.0  0.35714446968509617  0.9181420828608255  0.07074927269665213  1.0000
  C   C17       1.0  0.6680549649642132  0.05806802788088562  0.6399733927328626  1.0000
  C   C18       1.0  0.6101804579429526  0.9422122155428454  0.859818570799199  1.0000
  C   C19       1.0  0.33194695762737336  0.9419296981435465  0.360026389833621  1.0000
  C   C20       1.0  0.38982156376495414  0.057787896970964404  0.1401821524162798  1.0000
  C   C21       1.0  0.17768312059988753  0.8028587195298587  0.6585392778458188  1.0000
  C   C22       1.0  0.37455845087953316  0.19674918622325074  0.8413149299878528  1.0000
  C   C23       1.0  0.8223161209117363  0.19714021168446297  0.34146012632243844  1.0000
  C   C24       1.0  0.6254408038442704  0.8032497707665556  0.1586827767721672  1.0000
  C   C25       1.0  0.050135392780959034  0.8167504382983284  0.6988232470981615  1.0000
  C   C26       1.0  0.23310449597580174  0.18299988388115196  0.8011232009296094  1.0000
  C   C27       1.0  0.9498661288342375  0.18325086297574703  0.30117822933947747  1.0000
  C   C28       1.0  0.7668970388515746  0.817001443168401  0.19887657809979234  1.0000
  C   C29       1.0  0.0016345883210960698  0.749332017849824  0.7598485075859858  1.0000
  C   C30       1.0  0.2520376700038441  0.25039734531779356  0.7400960526910296  1.0000
  C   C31       1.0  0.9983709207165745  0.25067287736560934  0.24015353114707957  1.0000
  C   C32       1.0  0.7479629813706693  0.7496087801089718  0.2599039102206931  1.0000
  C   C33       1.0  0.2444204584398336  0.7134274124876756  0.6792039600285237  1.0000
  C   C34       1.0  0.5307401914162283  0.2859773299993833  0.8205092687591177  1.0000
  C   C35       1.0  0.7555786663392254  0.28656909786996476  0.32079676670171864  1.0000
  C   C36       1.0  0.4692596669206638  0.7140228333113614  0.17948805962501524  1.0000
  C   C37       1.0  0.18518534924233174  0.6462523974852274  0.7394499948267425  1.0000
  C   C38       1.0  0.5387147546108794  0.3532098458288928  0.7602939305163121  1.0000
  C   C39       1.0  0.8148149739547963  0.35374650833063015  0.2605511067571982  1.0000
  C   C40       1.0  0.4612841123487073  0.6467927121860342  0.23970377270663332  1.0000
  S   S1        1.0  0.24542283434417564  0.8994774113316527  0.5857675172213065  1.0000
  S   S2        1.0  0.34570053844898757  0.10020693933874013  0.9141240467989106  1.0000
  S   S3        1.0  0.7545780792538678  0.10052267502965861  0.414234903394977  1.0000
  S   S4        1.0  0.6543010051865112  0.899794404894472  0.08587460062499734  1.0000
  N   N1        1.0  0.49721539290150935  0.7075073328884258  0.46197370389398884  1.0000
  N   N2        1.0  0.7895639943150031  0.29233007138882544  0.03802280676944042  1.0000
  N   N3        1.0  0.5027798479754538  0.2924879786090528  0.5380268353870861  1.0000
  N   N4        1.0  0.21043595433008738  0.707672461227638  0.9619765938691814  1.0000
  N   N5        1.0  0.6197644944165647  0.8352891124541915  0.5183471236177796  1.0000
  N   N6        1.0  0.784459195752234  0.16476003023645097  0.9815774184327567  1.0000
  N   N7        1.0  0.38023185897432643  0.16470623378761934  0.4816511524597545  1.0000
  N   N8        1.0  0.21554293388011564  0.8352424859503885  0.018423113826237614  1.0000
  N   N9        1.0  0.06843046273695559  0.6658160842841028  0.7807544479273789  1.0000
  N   N10       1.0  0.4023915705601624  0.33384761208993313  0.7191123261620406  1.0000
  N   N11       1.0  0.93156767947292  0.3341828379613788  0.21924552203618225  1.0000
  N   N12       1.0  0.5976089772939659  0.6661561182556356  0.2808872619034234  1.0000
  Cl  Cl1       1.0  0.8384158247693918  0.6831655386481544  0.4363978348358373  1.0000
  Cl  Cl2       1.0  0.1553096234305755  0.3170432296847352  0.06371994103006531  1.0000
  Cl  Cl3       1.0  0.16158292986169442  0.31683460710191724  0.563600625146343  1.0000
  Cl  Cl4       1.0  0.8446908120950526  0.6829580883959779  0.9362804037946405  1.0000
  Cl  Cl5       1.0  0.38600002813308265  0.3209736345164487  0.3290430263128528  1.0000
  Cl  Cl6       1.0  0.06494915927563483  0.6789860250396275  0.17089912034578705  1.0000
  Cl  Cl7       1.0  0.6139986141695105  0.6790240989687676  0.6709561904285621  1.0000
  Cl  Cl8       1.0  0.9350512762500004  0.3210152930410858  0.8291012244789118  1.0000
