data_image0
_chemical_formula_structural       Cd2H24C28S4N12O4
_chemical_formula_sum              "Cd2 H24 C28 S4 N12 O4"
_cell_length_a       7.872630401973557
_cell_length_b       9.540450487884502
_cell_length_c       12.381487914858925
_cell_angle_alpha    112.65677707946713
_cell_angle_beta     95.14230009973403
_cell_angle_gamma    89.99488594688275

_space_group_name_H-M_alt    "P 1"
_space_group_IT_number       1

loop_
  _space_group_symop_operation_xyz
  'x, y, z'

loop_
  _atom_site_type_symbol
  _atom_site_label
  _atom_site_symmetry_multiplicity
  _atom_site_fract_x
  _atom_site_fract_y
  _atom_site_fract_z
  _atom_site_occupancy
  Cd  Cd1       1.0  0.9999999991421621  0.499996131851134  0.49999651482593793  1.0000
  Cd  Cd2       1.0  0.49999668352155174  1.2949327370000063e-06  0.4999974937983823  1.0000
  H   H1        1.0  0.9223321808564363  0.8421496480737005  0.6518099285962438  1.0000
  H   H2        1.0  0.42274334651826007  0.8099255029735275  0.6516920021640545  1.0000
  H   H3        1.0  0.07766190043549408  0.1578406617647801  0.34817850371378267  1.0000
  H   H4        1.0  0.5772604695554193  0.1900820226776005  0.34830828117717527  1.0000
  H   H5        1.0  0.7671415688771507  0.005598694214661705  0.8230525962228586  1.0000
  H   H6        1.0  0.26741693181963194  0.8173664273355641  0.8227941499477682  1.0000
  H   H7        1.0  0.23285258430667002  0.9943938886418098  0.17693649813850254  1.0000
  H   H8        1.0  0.7325866302436808  0.18263201828188605  0.17720429801454432  1.0000
  H   H9        1.0  0.607605890681647  0.8751537002180213  0.9294736728541227  1.0000
  H   H10       1.0  0.10782409383804747  0.054057070010046  0.9292828444212162  1.0000
  H   H11       1.0  0.3923938142982594  0.12484582702974481  0.07052331632325352  1.0000
  H   H12       1.0  0.8921667175642584  0.945942397404267  0.07071457454786433  1.0000
  H   H13       1.0  0.7836310238326547  0.4501506641386968  0.6933645417620795  1.0000
  H   H14       1.0  0.2836054677007241  0.24345940316281667  0.693387830786101  1.0000
  H   H15       1.0  0.2163698486143844  0.5498454638494863  0.3066315090575317  1.0000
  H   H16       1.0  0.7163960686094625  0.7565493227303223  0.3066183639273135  1.0000
  H   H17       1.0  0.6880856472635984  0.36868576279218956  0.8057225818811062  1.0000
  H   H18       1.0  0.18806221240911472  0.4370483093595396  0.805781412929065  1.0000
  H   H19       1.0  0.3119152922978686  0.6313103892724996  0.19427509459136877  1.0000
  H   H20       1.0  0.8119339303361316  0.5629490344506465  0.1942228783035418  1.0000
  H   H21       1.0  0.5665482900484237  0.3913955006298552  0.9243368666585496  1.0000
  H   H22       1.0  0.06641988222114752  0.5328800255335011  0.9243175065979375  1.0000
  H   H23       1.0  0.43345526723742733  0.6086006960461248  0.07566254490527774  1.0000
  H   H24       1.0  0.9335776772241288  0.4671207501093021  0.07568864525735106  1.0000
  C   C1        1.0  0.623607381859145  0.6379382333891572  0.42997830396338105  1.0000
  C   C2        1.0  0.12348217502037781  0.7919976192370796  0.42995917140917334  1.0000
  C   C3        1.0  0.37638676140902316  0.3620817598748046  0.570028434211956  1.0000
  C   C4        1.0  0.8765218999560958  0.20800550483716046  0.5700495417465491  1.0000
  C   C5        1.0  0.8545366090591103  0.793240063934107  0.7027058339183514  1.0000
  C   C6        1.0  0.3547936655759046  0.9096291646841906  0.7025625320623947  1.0000
  C   C7        1.0  0.1454601259031421  0.20675142702465624  0.2972846645086947  1.0000
  C   C8        1.0  0.645203771584164  0.09037718515926231  0.2974379594833679  1.0000
  C   C9        1.0  0.7669492417536715  0.8826316797915582  0.7969386380343267  1.0000
  C   C10       1.0  0.2671581372251239  0.9142505637241526  0.7967141581391176  1.0000
  C   C11       1.0  0.2330515252442568  0.11736216314037759  0.20305593790752144  1.0000
  C   C12       1.0  0.7328339494821564  0.08574891395753778  0.20328331554920712  1.0000
  C   C13       1.0  0.6801257534574817  0.8119395266995966  0.856093451766114  1.0000
  C   C14       1.0  0.18030723415296993  0.044026232436017707  0.8559185153712792  1.0000
  C   C15       1.0  0.3198790815220748  0.18805780471450362  0.14390553271620385  1.0000
  C   C16       1.0  0.819686127859285  0.9559732555130652  0.14407901303629003  1.0000
  C   C17       1.0  0.6848528519746965  0.6541499486683976  0.8211442504746957  1.0000
  C   C18       1.0  0.18497596738846062  0.16699843656827804  0.8211038783759366  1.0000
  C   C19       1.0  0.3151557705851006  0.34584515256813825  0.17885504894045573  1.0000
  C   C20       1.0  0.8150134992057047  0.8329998720313939  0.178892342021797  1.0000
  C   C21       1.0  0.7759755626253624  0.5733440865454398  0.726063037563357  1.0000
  C   C22       1.0  0.2761177513121496  0.1529247661216147  0.7260777358305291  1.0000
  C   C23       1.0  0.2240278916001088  0.426650949545035  0.2739344173219465  1.0000
  C   C24       1.0  0.7238772382983568  0.8470827237725658  0.27392460295526183  1.0000
  C   C25       1.0  0.5954192819030697  0.583240707101865  0.8905393456109396  1.0000
  C   C26       1.0  0.09544157508981502  0.30719445626538544  0.8905431454686338  1.0000
  C   C27       1.0  0.4045894125486242  0.4167566671526544  0.1094606158555536  1.0000
  C   C28       1.0  0.9045573243861399  0.6928052292505811  0.10946516855953095  1.0000
  S   S1        1.0  0.7035425263592855  0.47566885502966016  0.35460676413232767  1.0000
  S   S2        1.0  0.20358031053664402  0.8788083700039167  0.3545966059072683  1.0000
  S   S3        1.0  0.29646015102701284  0.5243398329778445  0.6453962339946104  1.0000
  S   S4        1.0  0.7964313203754969  0.12119702850134934  0.6454090334831193  1.0000
  N   N1        1.0  0.06475778322443661  0.7278029389002043  0.48374413466858374  1.0000
  N   N2        1.0  0.5649952276907728  0.7559492838924697  0.48375786981216623  1.0000
  N   N3        1.0  0.9352409244631517  0.27220117226916335  0.5162573751979452  1.0000
  N   N4        1.0  0.4350162282690917  0.24405268100930746  0.5162451508483556  1.0000
  N   N5        1.0  0.8587439676196026  0.6412969423438497  0.6680436218990239  1.0000
  N   N6        1.0  0.35887228602371835  0.026977902639600898  0.6679756193292549  1.0000
  N   N7        1.0  0.1412529710746782  0.3586957453151882  0.3319512716858455  1.0000
  N   N8        1.0  0.6411188417259198  0.9730284199434255  0.33202622427312906  1.0000
  N   N9        1.0  0.612893219337927  0.43491241899492644  0.8670163018144167  1.0000
  N   N10       1.0  0.11282667065331958  0.43205104114575477  0.8670384105940911  1.0000
  N   N11       1.0  0.3871116491988503  0.5650849244574303  0.13298349549433652  1.0000
  N   N12       1.0  0.887168302236063  0.5679485774532794  0.13296730079703428  1.0000
  O   O1        1.0  0.5092127827318861  0.6664874260002949  0.9700201065745164  1.0000
  O   O2        1.0  0.009306680413786201  0.3033604575804887  0.9700306155036176  1.0000
  O   O3        1.0  0.490797187024782  0.333509958521617  0.029979909611221003  1.0000
  O   O4        1.0  0.9906935614815711  0.6966392622793764  0.02997937889665549  1.0000
