data_image0
_chemical_formula_structural       Cs4H20C56N16O4
_chemical_formula_sum              "Cs4 H20 C56 N16 O4"
_cell_length_a       8.364705207924644
_cell_length_b       9.723747371256184
_cell_length_c       18.442717866012924
_cell_angle_alpha    90.00013381080592
_cell_angle_beta     89.99993720473589
_cell_angle_gamma    108.90112645646616

_space_group_name_H-M_alt    "P 1"
_space_group_IT_number       1

loop_
  _space_group_symop_operation_xyz
  'x, y, z'

loop_
  _atom_site_type_symbol
  _atom_site_label
  _atom_site_symmetry_multiplicity
  _atom_site_fract_x
  _atom_site_fract_y
  _atom_site_fract_z
  _atom_site_occupancy
  Cs  Cs1       1.0  0.3644379363234478  0.20991856666017128  0.1660650425595307  1.0000
  Cs  Cs2       1.0  0.13556135166503944  0.790083671658394  0.6660633444837386  1.0000
  Cs  Cs3       1.0  0.6355597758213065  0.7900811557507909  0.8339348998029407  1.0000
  Cs  Cs4       1.0  0.8644383500356484  0.20991823805157137  0.33393551344072137  1.0000
  H   H1        1.0  0.6905992047413108  0.4351061950133612  0.9758969329866005  1.0000
  H   H2        1.0  0.8093999823583005  0.564897055252608  0.47589801014927235  1.0000
  H   H3        1.0  0.3093992796751053  0.5648989486843659  0.024104636037300495  1.0000
  H   H4        1.0  0.19059572341039643  0.4351037272556794  0.5241003055560398  1.0000
  H   H5        1.0  0.9070842215149638  0.48169762792844034  0.8771245900628909  1.0000
  H   H6        1.0  0.5929142616510604  0.5183030340298487  0.3771257164040803  1.0000
  H   H7        1.0  0.0929154970053858  0.5183010343874628  0.12287806339558927  1.0000
  H   H8        1.0  0.4070806550237336  0.48169557459825524  0.6228731415195198  1.0000
  H   H9        1.0  0.15305554176254077  0.7090163218042989  0.8784061797413256  1.0000
  H   H10       1.0  0.34694397451530534  0.2909846469945947  0.3784074438756591  1.0000
  H   H11       1.0  0.8469445713053431  0.29098342744885747  0.12159484705942697  1.0000
  H   H12       1.0  0.653051353527154  0.7090118011744195  0.6215924984853841  1.0000
  H   H13       1.0  0.18737972997637786  0.888048007464462  0.9786588587463921  1.0000
  H   H14       1.0  0.3126217062423464  0.11195232186859978  0.4786588351953469  1.0000
  H   H15       1.0  0.8126203662706714  0.11195498918844748  0.021341083617500093  1.0000
  H   H16       1.0  0.6873772231855  0.8880441665602986  0.5213411071648295  1.0000
  H   H17       1.0  0.9693588128524128  0.8448956898285758  0.07471378098373548  1.0000
  H   H18       1.0  0.5306435156123612  0.1551069909423646  0.5747140648762538  1.0000
  H   H19       1.0  0.030640066111772106  0.1551105408052607  0.9252856191630129  1.0000
  H   H20       1.0  0.4693573865498877  0.8448949321887014  0.4252853352673539  1.0000
  C   C1        1.0  0.690377249573615  0.7240811890788805  0.14382343741546316  1.0000
  C   C2        1.0  0.8096266311364316  0.2759196346157893  0.6438221059928464  1.0000
  C   C3        1.0  0.3096248698705679  0.2759175000758063  0.8561786738230095  1.0000
  C   C4        1.0  0.19037708331801886  0.7240801548915599  0.3561762097098863  1.0000
  C   C5        1.0  0.6838984127547293  0.6078878122338977  0.08708498402578609  1.0000
  C   C6        1.0  0.8161019323093087  0.39210948574196886  0.5870859611573848  1.0000
  C   C7        1.0  0.3160972930125611  0.3921129702812181  0.9129165849961179  1.0000
  C   C8        1.0  0.18389818075903722  0.6078902635089136  0.4129139812045039  1.0000
  C   C9        1.0  0.8134492845504724  0.6388067383364627  0.0299350430782255  1.0000
  C   C10       1.0  0.6865538716152528  0.3611979284358425  0.5299360459099205  1.0000
  C   C11       1.0  0.1865488053200508  0.3611973184160533  0.9700643570673787  1.0000
  C   C12       1.0  0.3134462414528656  0.6388018208161766  0.4700644386714003  1.0000
  C   C13       1.0  0.797682096866197  0.5350938791711783  0.9746016059022722  1.0000
  C   C14       1.0  0.702317091350487  0.46490936565861307  0.47460207056958825  1.0000
  C   C15       1.0  0.20231599300338843  0.4649101775858853  0.025399963121060395  1.0000
  C   C16       1.0  0.2976782198709031  0.5350903299112915  0.5253973295740195  1.0000
  C   C17       1.0  0.9185394519561073  0.5613906503942943  0.920031544306809  1.0000
  C   C18       1.0  0.5814593887632571  0.4386112785312264  0.42003203607736583  1.0000
  C   C19       1.0  0.08146024974340804  0.4386112593213696  0.07997002471480387  1.0000
  C   C20       1.0  0.41853513336376835  0.5613862431607614  0.5799689907234011  1.0000
  C   C21       1.0  0.05764003539794521  0.6895597414495782  0.9209319190498775  1.0000
  C   C22       1.0  0.4423594442152918  0.31044140577539286  0.4209320757433658  1.0000
  C   C23       1.0  0.9423580712931783  0.31044106790432113  0.07906910775202647  1.0000
  C   C24       1.0  0.5576358838274019  0.6895550423924847  0.5790673243982454  1.0000
  C   C25       1.0  0.0759300888823304  0.7913857464081175  0.9765739930117404  1.0000
  C   C26       1.0  0.4240709377662526  0.20861673463654282  0.47657294906291264  1.0000
  C   C27       1.0  0.9240695959958883  0.20861941070956644  0.023427576011876294  1.0000
  C   C28       1.0  0.5759275802934669  0.7913819142537193  0.523426993298699  1.0000
  C   C29       1.0  0.9536865794873962  0.7668128767327856  0.030745705338858897  1.0000
  C   C30       1.0  0.5463181878098239  0.23318964639700815  0.5307455353094426  1.0000
  C   C31       1.0  0.04631310539129171  0.2331922803826245  0.9692547792458935  1.0000
  C   C32       1.0  0.4536831257207935  0.766810116271557  0.46925332261329794  1.0000
  C   C33       1.0  0.7404769244861457  0.6986000580250789  0.21376212504625158  1.0000
  C   C34       1.0  0.7595297082152328  0.30139892549634334  0.7137613918099176  1.0000
  C   C35       1.0  0.259526395419833  0.3013986445495646  0.7862399861919369  1.0000
  C   C36       1.0  0.24047522352184816  0.6985976300312161  0.2862380083293985  1.0000
  C   C37       1.0  0.7299863035659088  0.7823356881629023  0.2751533475979357  1.0000
  C   C38       1.0  0.7700202762058125  0.21766355293745215  0.7751503373687925  1.0000
  C   C39       1.0  0.2700194004421377  0.2176662886548257  0.724849305861113  1.0000
  C   C40       1.0  0.22998144869410453  0.7823340492640583  0.22484580945535984  1.0000
  C   C41       1.0  0.7940438392015211  0.5769975080614813  0.22679645003516666  1.0000
  C   C42       1.0  0.7059603645159315  0.4230047507160535  0.7267980615378133  1.0000
  C   C43       1.0  0.2059578520539276  0.4230065889531859  0.7732040345484419  1.0000
  C   C44       1.0  0.2940437444844122  0.5769961257364997  0.273202423043223  1.0000
  C   C45       1.0  0.6362566394690531  0.839784234857312  0.120814440270621  1.0000
  C   C46       1.0  0.8637428706002622  0.1602142781541076  0.6208123977509387  1.0000
  C   C47       1.0  0.36374707498399056  0.1602155546568653  0.8791871287487041  1.0000
  C   C48       1.0  0.13625885429942033  0.8397833240485468  0.37918429129264547  1.0000
  C   C49       1.0  0.6413784671279572  0.9609247304505573  0.16381793661134478  1.0000
  C   C50       1.0  0.8586194444972222  0.03906636783452199  0.6638184587568359  1.0000
  C   C51       1.0  0.35862047912143413  0.03906851057517  0.8361814635274027  1.0000
  C   C52       1.0  0.1413783012903665  0.9609268597712416  0.3361809413821958  1.0000
  C   C53       1.0  0.5737858985027486  0.8406965295664223  0.04962050259334919  1.0000
  C   C54       1.0  0.9262148734103092  0.1593016981534703  0.549619512667668  1.0000
  C   C55       1.0  0.42621821049712577  0.15930434688841186  0.9503810664265513  1.0000
  C   C56       1.0  0.07378563420627417  0.8406991380312475  0.45037717637820407  1.0000
  N   N1        1.0  0.7190165886508736  0.8493235323924465  0.326670201901031  1.0000
  N   N2        1.0  0.7809847671296597  0.15067153684510967  0.8266703572283517  1.0000
  N   N3        1.0  0.2809879148965351  0.15067843099963343  0.6733297404611418  1.0000
  N   N4        1.0  0.21901378457289414  0.8493206172399539  0.17332904290982037  1.0000
  N   N5        1.0  0.8368833332339348  0.4753797790835748  0.23754153950738294  1.0000
  N   N6        1.0  0.6631241185214236  0.5246117358925061  0.7375438392329625  1.0000
  N   N7        1.0  0.16312441079534076  0.5246146428202537  0.7624567761910581  1.0000
  N   N8        1.0  0.33688323095961453  0.47538159907749394  0.2624577297815022  1.0000
  N   N9        1.0  0.5218134522839293  0.8412855583415747  0.9906618593214062  1.0000
  N   N10       1.0  0.9781825320690203  0.15871555314995334  0.4906612696245602  1.0000
  N   N11       1.0  0.478184259860825  0.1587141640693872  0.009338083041058098  1.0000
  N   N12       1.0  0.021810361407240506  0.8412873629832021  0.5093386727410518  1.0000
  N   N13       1.0  0.6477710672761817  0.06573094209296931  0.1967176331588334  1.0000
  N   N14       1.0  0.8522243645981791  0.9342700095866405  0.6967127524953439  1.0000
  N   N15       1.0  0.3522230266604751  0.934271987466964  0.8032855625230864  1.0000
  N   N16       1.0  0.1477733475479823  0.06572971281749321  0.3032839365505352  1.0000
  O   O1        1.0  0.5677895319265573  0.49144328841429546  0.09217583923421557  1.0000
  O   O2        1.0  0.9322099860121468  0.508558351843419  0.5921763602205488  1.0000
  O   O3        1.0  0.43220776885053175  0.5085585944557564  0.9078230186908127  1.0000
  O   O4        1.0  0.06778571975607404  0.49144243066714904  0.40782303992363467  1.0000
