data_image0
_chemical_formula_structural       CuH10Au2C12N8Cl4
_chemical_formula_sum              "Cu1 H10 Au2 C12 N8 Cl4"
_cell_length_a       6.850940057708308
_cell_length_b       10.170361205072856
_cell_length_c       10.670642621546735
_cell_angle_alpha    82.44363453446626
_cell_angle_beta     71.2436697330492
_cell_angle_gamma    70.2478062771949

_space_group_name_H-M_alt    "P 1"
_space_group_IT_number       1

loop_
  _space_group_symop_operation_xyz
  'x, y, z'

loop_
  _atom_site_type_symbol
  _atom_site_label
  _atom_site_symmetry_multiplicity
  _atom_site_fract_x
  _atom_site_fract_y
  _atom_site_fract_z
  _atom_site_occupancy
  Cu  Cu1       1.0  0.5000036380313942  0.9999977286824661  3.4715944253389914e-06  1.0000
  H   H1        1.0  0.668188913750825  0.15734787210305257  0.13822042383849717  1.0000
  H   H2        1.0  0.9644481764985007  0.8426911788412921  0.8617638083474687  1.0000
  H   H3        1.0  0.33182227554923605  0.842651012188419  0.8617725143707131  1.0000
  H   H4        1.0  0.035560236649224926  0.1573045644507971  0.1382304415604523  1.0000
  H   H5        1.0  0.19283591331711142  0.5927494889188978  0.020376435943518297  1.0000
  H   H6        1.0  0.8071665665071067  0.40724522940156044  0.9796150171664876  1.0000
  H   H7        1.0  0.026802802330223637  0.526230330245987  0.1612038218073479  1.0000
  H   H8        1.0  0.7153879675763551  0.4737681324039967  0.8388548792270356  1.0000
  H   H9        1.0  0.9731880281736311  0.4737779256841392  0.838795512347417  1.0000
  H   H10       1.0  0.28460306521296996  0.5262422111650553  0.1611447282518412  1.0000
  Au  Au1       1.0  0.7975692390051641  0.8924187140517149  0.5123674097200492  1.0000
  Au  Au2       1.0  0.20241716421254097  0.1075790743227643  0.4876355660977225  1.0000
  C   C1        1.0  0.9222592827735953  0.8275164701319182  0.3280135026792976  1.0000
  C   C2        1.0  0.07772381517968804  0.1724917505685681  0.6719920920630073  1.0000
  C   C3        1.0  0.6724133999836968  0.9566652482061427  0.6985621505340305  1.0000
  C   C4        1.0  0.327596116282571  0.0433325592325176  0.30143612867756525  1.0000
  C   C5        1.0  0.8165828665320238  0.08760212343045738  0.07571295794745236  1.0000
  C   C6        1.0  0.9804139994259556  0.912373318921354  0.924264472962342  1.0000
  C   C7        1.0  0.18342059021747315  0.9123967256313747  0.9242862408492911  1.0000
  C   C8        1.0  0.019600053068664636  0.0876297357515057  0.07572963773627348  1.0000
  C   C9        1.0  0.2913020840702032  0.3733397301574826  0.043472708501973004  1.0000
  C   C10       1.0  0.7086966185665347  0.626664312313025  0.9565317125077114  1.0000
  C   C11       1.0  0.19444348366103265  0.5113496136767353  0.09866747269860808  1.0000
  C   C12       1.0  0.8055497011731421  0.4886544542482767  0.9013331926423119  1.0000
  N   N1        1.0  0.994785997240968  0.792525990752921  0.21810136673635588  1.0000
  N   N2        1.0  0.005202494531481269  0.20747392490050487  0.7818953092081884  1.0000
  N   N3        1.0  0.6015056461789786  0.9880720207469906  0.8091024007015619  1.0000
  N   N4        1.0  0.39849889643799946  0.011925738734781498  0.1909040169319596  1.0000
  N   N5        1.0  0.7987958787333584  0.9999717282150868  0.9999807682116424  1.0000
  N   N6        1.0  0.20121726662713973  2.507137177330005e-05  1.1270521454792913e-05  1.0000
  N   N7        1.0  0.3691561752559666  0.2621652802937291  0.9991875963899942  1.0000
  N   N8        1.0  0.6308389092365375  0.7378366451768484  0.0008215595791299682  1.0000
  Cl  Cl1       1.0  0.7216887897450093  0.1229618475819692  0.433812454417712  1.0000
  Cl  Cl2       1.0  0.2783169931337568  0.8770327845998407  0.5661927706173486  1.0000
  Cl  Cl3       1.0  0.8733619045655702  0.663102915210537  0.5903744196034849  1.0000
  Cl  Cl4       1.0  0.1266406340998003  0.33689280361702595  0.4096242127467987  1.0000
