data_image0
_chemical_formula_structural       Cd4H40C32N4Cl8O12
_chemical_formula_sum              "Cd4 H40 C32 N4 Cl8 O12"
_cell_length_a       7.384954719978129
_cell_length_b       9.102544563495195
_cell_length_c       16.34907151639544
_cell_angle_alpha    99.33817450591066
_cell_angle_beta     89.93116271640066
_cell_angle_gamma    90.03576021534418

_space_group_name_H-M_alt    "P 1"
_space_group_IT_number       1

loop_
  _space_group_symop_operation_xyz
  'x, y, z'

loop_
  _atom_site_type_symbol
  _atom_site_label
  _atom_site_symmetry_multiplicity
  _atom_site_fract_x
  _atom_site_fract_y
  _atom_site_fract_z
  _atom_site_occupancy
  Cd  Cd1       1.0  0.4450831294035141  0.7339126229812862  0.7241780293603737  1.0000
  Cd  Cd2       1.0  0.9569655864574927  0.7215003642146127  0.7414187742531124  1.0000
  Cd  Cd3       1.0  0.5417846962352116  0.22073728166417078  0.24130786339154744  1.0000
  Cd  Cd4       1.0  0.053678326748169504  0.2333809558321462  0.22461537986243474  1.0000
  H   H1        1.0  0.1492760741998183  0.31085277018321017  0.9757100654605392  1.0000
  H   H2        1.0  0.8347893728268048  0.20891723638007414  0.5514651780079516  1.0000
  H   H3        1.0  0.6651098011733367  0.7091348890685653  0.052426111725793596  1.0000
  H   H4        1.0  0.35112751349331717  0.8106249792379218  0.4756095864727427  1.0000
  H   H5        1.0  0.080897763751878  0.22170864382652414  0.8418712094411444  1.0000
  H   H6        1.0  0.7179591145302666  0.2750409043252802  0.6805262078283432  1.0000
  H   H7        1.0  0.7833651892852699  0.7740988795329925  0.18152076591970703  1.0000
  H   H8        1.0  0.416991370559778  0.7210210112926703  0.3414235173215444  1.0000
  H   H9        1.0  0.9844487878371523  0.36314815379747495  0.7901434463665706  1.0000
  H   H10       1.0  0.5604513097812003  0.14757688671841857  0.7141993768683929  1.0000
  H   H11       1.0  0.9390844616261305  0.645447089651796  0.2151368563260759  1.0000
  H   H12       1.0  0.5132892423309201  0.8621820339832666  0.28928171741925707  1.0000
  H   H13       1.0  0.21078171497068612  0.3052193660888349  0.770249365839646  1.0000
  H   H14       1.0  0.7876292520704169  0.14380598615026233  0.745113785728911  1.0000
  H   H15       1.0  0.7113748743712945  0.6426021670906933  0.245604363234328  1.0000
  H   H16       1.0  0.28648173173661456  0.804855909626589  0.2703517195101667  1.0000
  H   H17       1.0  0.0040856444346886  0.9830189899837265  0.9848050485879294  1.0000
  H   H18       1.0  0.6934566725809219  0.5946609134880488  0.5887916511827027  1.0000
  H   H19       1.0  0.8065260481180517  0.09410006776135299  0.08838077284207196  1.0000
  H   H20       1.0  0.4975643099605023  0.4806835371918441  0.4844288091435159  1.0000
  H   H21       1.0  0.3243919054251307  0.9312724112454588  0.9798058453915243  1.0000
  H   H22       1.0  0.8320911777611072  0.5639549233862979  0.4991270706458763  1.0000
  H   H23       1.0  0.6677785455748761  0.06379026158789708  0.9988776013939069  1.0000
  H   H24       1.0  0.17854614240451383  0.43141527717416744  0.47920047960220546  1.0000
  H   H25       1.0  0.5213376253408198  0.9837668770518558  0.09699688749605424  1.0000
  H   H26       1.0  0.04051646777885051  0.5723456675270667  0.38162187872128317  1.0000
  H   H27       1.0  0.4589490689849783  0.0737898260084222  0.8811827518627093  1.0000
  H   H28       1.0  0.9797986199591264  0.484656783880581  0.596626365619471  1.0000
  H   H29       1.0  0.26031375130566653  0.8507994758576416  0.10975440224366646  1.0000
  H   H30       1.0  0.7686622735913246  0.6540896095492599  0.3869164855062478  1.0000
  H   H31       1.0  0.7315552840142701  0.1541301221643536  0.8869594037851055  1.0000
  H   H32       1.0  0.24019603991926888  0.3502846030031677  0.6101516786469003  1.0000
  H   H33       1.0  0.38509101727755274  0.7042729259479613  0.14298341928685684  1.0000
  H   H34       1.0  0.8594398986595522  0.8097100516171166  0.34775192555891  1.0000
  H   H35       1.0  0.6427679190684259  0.3103987007760338  0.847879141408441  1.0000
  H   H36       1.0  0.1126030824750259  0.20440463666898265  0.6427706555454689  1.0000
  H   H37       1.0  0.23644334389177862  0.47557704187534705  0.08947455890251624  1.0000
  H   H38       1.0  0.8517474461690497  0.046234027126097  0.4230711995769027  1.0000
  H   H39       1.0  0.6495208739522839  0.5467964396924643  0.9236593388717507  1.0000
  H   H40       1.0  0.26525180525150205  0.9755577120263869  0.5896007343227578  1.0000
  C   C1        1.0  0.1706846721558719  0.44453589061435395  0.8859260395830543  1.0000
  C   C2        1.0  0.7425521887171128  0.0483267178414692  0.6198968998301095  1.0000
  C   C3        1.0  0.7577055835194527  0.5477316744836429  0.12034133160069156  1.0000
  C   C4        1.0  0.3286088885402378  0.9440858819695066  0.38581269333875656  1.0000
  C   C5        1.0  0.10735158565353231  0.3262795690465267  0.8189466182035543  1.0000
  C   C6        1.0  0.7003128730633179  0.1614987486036981  0.6933732963176948  1.0000
  C   C7        1.0  0.7997261995881148  0.660291861443234  0.19409189480537484  1.0000
  C   C8        1.0  0.39068644738556196  0.8256455106668666  0.3186024848861705  1.0000
  C   C9        1.0  0.22907690068618078  0.5868987887916006  0.8691645144359723  1.0000
  C   C10       1.0  0.7462412621766319  0.8945579119360474  0.6248232218398184  1.0000
  C   C11       1.0  0.7536977902848037  0.3939080926092727  0.12499625454806554  1.0000
  C   C12       1.0  0.2702441388806349  0.08644835045993199  0.3691868199644332  1.0000
  C   C13       1.0  0.2320665095839018  0.5156034086750338  0.0302020502288869  1.0000
  C   C14       1.0  0.8226697506719702  0.9974123895898404  0.47818676339415567  1.0000
  C   C15       1.0  0.6783970758633231  0.497645745931912  0.9786501490447176  1.0000
  C   C16       1.0  0.26904516663775985  0.015474115636735099  0.5302965797406499  1.0000
  C   C17       1.0  0.29505934341104023  0.6901503008243779  0.9375257717422296  1.0000
  C   C18       1.0  0.798431559190476  0.7927817920420492  0.5537828377852063  1.0000
  C   C19       1.0  0.7018200304216506  0.2924677906397619  0.05381713665390458  1.0000
  C   C20       1.0  0.204918879568659  0.1897471357569245  0.43768774690425954  1.0000
  C   C21       1.0  0.3624868417505239  0.8404005639620634  0.9296524287117476  1.0000
  C   C22       1.0  0.8169829265486399  0.6313415217504996  0.5605684961476312  1.0000
  C   C23       1.0  0.6829617976317977  0.1309182880132127  0.060381675607253285  1.0000
  C   C24       1.0  0.1373812499929343  0.34006044440194927  0.4299501858557021  1.0000
  C   C25       1.0  0.2903046923927164  0.6545445622154203  0.018391220151208587  1.0000
  C   C26       1.0  0.8286195021232601  0.8451679228979501  0.4785647249638669  1.0000
  C   C27       1.0  0.6721954663054249  0.345310203992085  0.9787183593589146  1.0000
  C   C28       1.0  0.2103982666601212  0.15424961627820008  0.5185277060185597  1.0000
  C   C29       1.0  0.36421617815814505  0.7642078537540513  0.09003485869261844  1.0000
  C   C30       1.0  0.8705837513368452  0.7435787379869866  0.3982247204919957  1.0000
  C   C31       1.0  0.6304005362871054  0.24413673381432938  0.8982507833603175  1.0000
  C   C32       1.0  0.1359314454659355  0.2642094037177073  0.5899314219495861  1.0000
  N   N1        1.0  0.17710494403122107  0.416918526742549  0.9640181935101705  1.0000
  N   N2        1.0  0.785350716973987  0.09349845859480149  0.5479248470214839  1.0000
  N   N3        1.0  0.7154257147103777  0.5934496321576006  0.04852088831084699  1.0000
  N   N4        1.0  0.32324435978962646  0.9166689497274657  0.4639818983952393  1.0000
  Cl  Cl1       1.0  0.3751523281099125  0.6364400143638278  0.5659334040550091  1.0000
  Cl  Cl2       1.0  0.9178447768389262  0.8782661472432096  0.9298102920795795  1.0000
  Cl  Cl3       1.0  0.5843222562017871  0.37590638480971716  0.42994405638248157  1.0000
  Cl  Cl4       1.0  0.12537409192620433  0.13690026087268586  0.06607920975159227  1.0000
  Cl  Cl5       1.0  0.18105158698824653  0.9316136227199789  0.7285884262323274  1.0000
  Cl  Cl6       1.0  0.6905702000244887  0.5597923301955988  0.7756814974201587  1.0000
  Cl  Cl7       1.0  0.8078652788220282  0.058644634268354395  0.2754522195572803  1.0000
  Cl  Cl8       1.0  0.31785200862064755  0.4310670821829206  0.2289345325522091  1.0000
  O   O1        1.0  0.2152987733729432  0.6135463791799225  0.7925870721148127  1.0000
  O   O2        1.0  0.7097802379225727  0.8523059982158259  0.6973947233557565  1.0000
  O   O3        1.0  0.789501209694862  0.3512752781833086  0.19750846259828583  1.0000
  O   O4        1.0  0.28331123200308633  0.11298401931146171  0.2925064337945144  1.0000
  O   O5        1.0  0.44693813403263505  0.8720131995534643  0.8688774020828018  1.0000
  O   O6        1.0  0.97111507748194  0.6038478340163638  0.6094108215593365  1.0000
  O   O7        1.0  0.5289116298869132  0.10313340404602658  0.10934654527834904  1.0000
  O   O8        1.0  0.05100463491827871  0.3710612525524155  0.3696286566470589  1.0000
  O   O9        1.0  0.5247384128888585  0.8302621436637309  0.06663594624121316  1.0000
  O   O10       1.0  0.048421461412623  0.6814844938246906  0.3981896330112703  1.0000
  O   O11       1.0  0.4519193736405001  0.1828944361400744  0.8979439766305073  1.0000
  O   O12       1.0  0.976918488632876  0.3309335208708787  0.5656179875576864  1.0000
