data_image0
_chemical_formula_structural       Ag4H48C26S6N12O8
_chemical_formula_sum              "Ag4 H48 C26 S6 N12 O8"
_cell_length_a       8.107184314974129
_cell_length_b       8.122861398603554
_cell_length_c       16.965
_cell_angle_alpha    84.1044782865418
_cell_angle_beta     84.093037431901
_cell_angle_gamma    66.64749821330417

_space_group_name_H-M_alt    "P 1"
_space_group_IT_number       1

loop_
  _space_group_symop_operation_xyz
  'x, y, z'

loop_
  _atom_site_type_symbol
  _atom_site_label
  _atom_site_symmetry_multiplicity
  _atom_site_fract_x
  _atom_site_fract_y
  _atom_site_fract_z
  _atom_site_occupancy
  Ag  Ag1       1.0  0.2136724543251916  0.1656464997125227  0.7384461999720671  1.0000
  Ag  Ag2       1.0  0.833956385842974  0.7849721583791691  0.7615235128954225  1.0000
  Ag  Ag3       1.0  0.7863280543387815  0.8343559058349612  0.2615527135889479  1.0000
  Ag  Ag4       1.0  0.16604464793441312  0.2150289031368686  0.23847779873540986  1.0000
  H   H1        1.0  0.3667576035364064  0.7974125134522652  0.8440170134354189  1.0000
  H   H2        1.0  0.2027063048388058  0.6330159629854251  0.655987925405725  1.0000
  H   H3        1.0  0.6332425698455211  0.2025939241895571  0.1559840761119844  1.0000
  H   H4        1.0  0.7972931535983464  0.3669891306249511  0.34401385485091407  1.0000
  H   H5        1.0  0.8555974019020951  0.8357563866027036  0.5759628212676943  1.0000
  H   H6        1.0  0.16346609421150757  0.1440640427371704  0.9234963702091648  1.0000
  H   H7        1.0  0.14440043681415915  0.16424333088188794  0.4240369452489219  1.0000
  H   H8        1.0  0.8365391848538408  0.8559356747474212  0.0765018514936671  1.0000
  H   H9        1.0  0.3738148522962704  0.2758772388352709  0.5811026937854109  1.0000
  H   H10       1.0  0.7245711841502215  0.6268266981721524  0.9193791567143492  1.0000
  H   H11       1.0  0.6261797913588512  0.7241211346178744  0.4188984748613294  1.0000
  H   H12       1.0  0.2754301849092187  0.3731703312495398  0.08062174727669462  1.0000
  H   H13       1.0  0.5703670057969179  0.4542799410109239  0.8328875989209692  1.0000
  H   H14       1.0  0.5460198431684021  0.4286976464494074  0.6677981820894345  1.0000
  H   H15       1.0  0.4296336926984168  0.5457251525994522  0.1671123520030591  1.0000
  H   H16       1.0  0.4539790901553431  0.5713087911924148  0.3322023789951131  1.0000
  H   H17       1.0  0.6348582798606088  0.5880688633360549  0.7567430246507243  1.0000
  H   H18       1.0  0.4108301025971458  0.3656786999641639  0.7438525905504605  1.0000
  H   H19       1.0  0.3651406534631292  0.41193757430576733  0.24325694698495684  1.0000
  H   H20       1.0  0.5891705958981889  0.6343263936462122  0.2561473603735607  1.0000
  H   H21       1.0  0.7901489239404426  0.9763635804582833  0.4319187438906553  1.0000
  H   H22       1.0  0.0236859110157681  0.2085573917197365  0.0675638424569556  1.0000
  H   H23       1.0  0.20984323959831397  0.0236347929948622  0.5680813678303736  1.0000
  H   H24       1.0  0.9763244737330086  0.7914356056076173  0.9324350480944973  1.0000
  H   H25       1.0  0.881838631930357  0.1030011939695328  0.4796876339132509  1.0000
  H   H26       1.0  0.8951520451506382  0.1186927611128326  0.019911037549761115  1.0000
  H   H27       1.0  0.1181507162099749  0.8970012115779511  0.5203106496241219  1.0000
  H   H28       1.0  0.10485886471154518  0.8812988921830751  0.9800884827249092  1.0000
  H   H29       1.0  0.6055092521347661  0.3501551367517308  0.4717561382319602  1.0000
  H   H30       1.0  0.6487832799548843  0.3952352955143468  0.028015657517251203  1.0000
  H   H31       1.0  0.3944791912294435  0.6498432367014146  0.5282423881005016  1.0000
  H   H32       1.0  0.3512244348461664  0.6047550137501146  0.9719840859898099  1.0000
  H   H33       1.0  0.4987455265066671  0.2169441479487944  0.4400331805714259  1.0000
  H   H34       1.0  0.7831909546826594  0.4998762078491765  0.06046851221618249  1.0000
  H   H35       1.0  0.5012414869679986  0.7830515374414588  0.5599679060772331  1.0000
  H   H36       1.0  0.21681499494679463  0.5001154454467311  0.9395318414513979  1.0000
  H   H37       1.0  0.7305309287386379  0.5985912855343329  0.6233794771581458  1.0000
  H   H38       1.0  0.4020534560165175  0.2687041430028216  0.876620774910073  1.0000
  H   H39       1.0  0.2694630443523706  0.4014151521074893  0.3766219173193122  1.0000
  H   H40       1.0  0.5979539235024803  0.7312901983559782  0.1233776078901769  1.0000
  H   H41       1.0  0.8358969879447857  0.3567986841940751  0.6359445138991475  1.0000
  H   H42       1.0  0.6442941477966926  0.1630874638374991  0.8638898226296732  1.0000
  H   H43       1.0  0.1640943151985041  0.6432050653848549  0.3640571440850451  1.0000
  H   H44       1.0  0.3557119916641228  0.8369068775213009  0.1361092106054542  1.0000
  H   H45       1.0  0.8127088631342404  0.46590984512150146  0.5392266327256863  1.0000
  H   H46       1.0  0.535237462367448  0.1865327483983421  0.9606813843731244  1.0000
  H   H47       1.0  0.18728439501200714  0.5340952484888746  0.46077545246099316  1.0000
  H   H48       1.0  0.4647688669247215  0.8134642810233572  0.03931691787841629  1.0000
  C   C1        1.0  0.24297296325195114  0.756873836948941  0.7499905582324757  1.0000
  C   C2        1.0  0.7570289753015658  0.2431312566614352  0.2500105106032676  1.0000
  C   C3        1.0  0.5231407280980421  0.5494629040534633  0.7816295921460608  1.0000
  C   C4        1.0  0.4502731018134228  0.4766002712506534  0.7188797125649558  1.0000
  C   C5        1.0  0.4768612104554818  0.4505421895569127  0.2183702977919495  1.0000
  C   C6        1.0  0.5497258315103224  0.5234061663911689  0.2811202590707254  1.0000
  C   C7        1.0  0.7693669940776219  0.0594854878111803  0.4820469718812745  1.0000
  C   C8        1.0  0.9397318143667661  0.2302352749278214  0.017604008172831715  1.0000
  C   C9        1.0  0.23062640951931704  0.9405128856419651  0.5179518999560102  1.0000
  C   C10       1.0  0.06027556515223153  0.7697590664309857  0.9823943746274183  1.0000
  C   C11       1.0  0.5872370404026555  0.2227436436424455  0.4835999019177848  1.0000
  C   C12       1.0  0.7768996140582872  0.41267679160159787  0.016471629876484397  1.0000
  C   C13       1.0  0.4127536932465503  0.7772520417478077  0.5163998228751154  1.0000
  C   C14       1.0  0.22310404528616357  0.5873175497572021  0.9835292936772575  1.0000
  C   C15       1.0  0.6078689360051257  0.0494281004935431  0.6020431538556892  1.0000
  C   C16       1.0  0.9502379785749895  0.392289178582601  0.8979103198792515  1.0000
  C   C17       1.0  0.39213138282749355  0.9505716169910414  0.39795884848437163  1.0000
  C   C18       1.0  0.04976906566195541  0.6077091948705373  0.10209082835625341  1.0000
  C   C19       1.0  0.02044226502636799  0.4846160748003427  0.6007810571686178  1.0000
  C   C20       1.0  0.5158244845231864  0.9793661467108024  0.8992588057245783  1.0000
  C   C21       1.0  0.9795509931198724  0.5153890188100334  0.3992198491203284  1.0000
  C   C22       1.0  0.484185375112176  0.0206281946480047  0.10074122345024962  1.0000
  C   C23       1.0  0.8370271618606608  0.4772991676030713  0.6006152430844622  1.0000
  C   C24       1.0  0.5235390837262913  0.1623052375353637  0.8993270863947629  1.0000
  C   C25       1.0  0.1629648562273971  0.5227059260073048  0.3993863136393685  1.0000
  C   C26       1.0  0.476469535850889  0.8376891038234362  0.1006724143172093  1.0000
  S   S1        1.0  0.05067503783113382  0.9488929217137851  0.7498321525357596  1.0000
  S   S2        1.0  0.9493226554344218  0.0511135159280371  0.2501678800859324  1.0000
  S   S3        1.0  0.5450946708539136  0.9715237232177643  0.6935312491793084  1.0000
  S   S4        1.0  0.028530237063563425  0.45475169604880955  0.806437342675558  1.0000
  S   S5        1.0  0.45490440792052317  0.0284759942668273  0.3064702246978968  1.0000
  S   S6        1.0  0.9714777119495112  0.5452507094986743  0.1935641522137175  1.0000
  N   N1        1.0  0.3657280237727676  0.7087145021413264  0.8042512096559876  1.0000
  N   N2        1.0  0.2913484697677833  0.6339863536901333  0.6958713819078  1.0000
  N   N3        1.0  0.6342744398941634  0.2912892474376036  0.19574931000524737  1.0000
  N   N4        1.0  0.7086538040677866  0.3660147078259044  0.30412810039042876  1.0000
  N   N5        1.0  0.7564595195701643  0.958705695308069  0.5577903026789812  1.0000
  N   N6        1.0  0.04032071996243761  0.2429484683846539  0.9417375627428726  1.0000
  N   N7        1.0  0.2435315937417641  0.0412953662079687  0.4422097284933386  1.0000
  N   N8        1.0  0.9596848943849636  0.7570472170055993  0.058260840769030195  1.0000
  N   N9        1.0  0.51067788434478  0.20789075212204008  0.5649526012960564  1.0000
  N   N10       1.0  0.7923257088421138  0.4901024111668519  0.9353764507638048  1.0000
  N   N11       1.0  0.48931232419101894  0.7921062772996521  0.4350482621202191  1.0000
  N   N12       1.0  0.20767919056051912  0.509891930191948  0.06462382235505972  1.0000
  O   O1        1.0  0.155621988559993  0.3353210616715927  0.6035890101594958  1.0000
  O   O2        1.0  0.6653191117165067  0.8442721698506614  0.8967604261314363  1.0000
  O   O3        1.0  0.8443700295280651  0.6646840319387906  0.3964113676666017  1.0000
  O   O4        1.0  0.334683497401123  0.1557248595710305  0.1032404168735965  1.0000
  O   O5        1.0  0.03302697148869528  0.6372872949238726  0.5973723156846377  1.0000
  O   O6        1.0  0.36277201043088797  0.9670722910654206  0.9024214774640812  1.0000
  O   O7        1.0  0.966965761544138  0.3627191427179497  0.40262913977882425  1.0000
  O   O8        1.0  0.6372343188612889  0.0329247383562787  0.09757918258291909  1.0000
