data_image0
_chemical_formula_structural       Zn2H22C24N4Cl4O8
_chemical_formula_sum              "Zn2 H22 C24 N4 Cl4 O8"
_cell_length_a       9.555301364009365
_cell_length_b       10.94435899567332
_cell_length_c       11.01854581377856
_cell_angle_alpha    90.79368157309797
_cell_angle_beta     90.01492455583214
_cell_angle_gamma    89.66006586118846

_space_group_name_H-M_alt    "P 1"
_space_group_IT_number       1

loop_
  _space_group_symop_operation_xyz
  'x, y, z'

loop_
  _atom_site_type_symbol
  _atom_site_label
  _atom_site_symmetry_multiplicity
  _atom_site_fract_x
  _atom_site_fract_y
  _atom_site_fract_z
  _atom_site_occupancy
  Zn  Zn1       1.0  0.6412210449244994  0.4979105374509061  0.4998334390822237  1.0000
  Zn  Zn2       1.0  0.3568751658646576  0.5025758014593579  0.49976851859552335  1.0000
  H   H1        1.0  0.7221599625412766  0.10970428497257959  0.4724789180531559  1.0000
  H   H2        1.0  0.7155240645246224  0.44771209083892655  0.1126262409175638  1.0000
  H   H3        1.0  0.2808556767751966  0.5512969170865601  0.8870189262610637  1.0000
  H   H4        1.0  0.7151043068212958  0.44889017060571473  0.884471575324973  1.0000
  H   H5        1.0  0.13244203255851522  0.6498468048545475  0.6133451044229475  1.0000
  H   H6        1.0  0.8630706520144854  0.6486526880347583  0.6142174693891463  1.0000
  H   H7        1.0  0.6303606575614111  0.7867857679922922  0.30482025180780437  1.0000
  H   H8        1.0  0.8463930730543154  0.8075993983221393  0.20728161123884092  1.0000
  H   H9        1.0  0.8821507219038336  0.8067649556203023  0.366920067945685  1.0000
  H   H10       1.0  0.8762636461753813  0.9472807047969668  0.28590104623279444  1.0000
  H   H11       1.0  0.44521215454152946  0.9196423979363073  0.23115320050056448  1.0000
  H   H12       1.0  0.2774349386301225  0.08918746268464871  0.48876848150349156  1.0000
  H   H13       1.0  0.26413521766279047  0.8071417746674213  0.1388580398162631  1.0000
  H   H14       1.0  0.1727252330464282  0.9237074538245409  0.2221312762058361  1.0000
  H   H15       1.0  0.193119134841794  0.7738481225959857  0.2832883864991587  1.0000
  H   H16       1.0  0.8657338496317734  0.3464145558324745  0.3826687529831005  1.0000
  H   H17       1.0  0.13571876324584048  0.34693231686385667  0.3825999031345972  1.0000
  H   H18       1.0  0.7233205938331011  0.9061430026019579  0.4969560914004845  1.0000
  H   H19       1.0  0.2813948959735555  0.8853527583209981  0.450888206776277  1.0000
  H   H20       1.0  0.5677474910481166  0.8893891959622736  0.6718369672834044  1.0000
  H   H21       1.0  0.3851363600726287  0.9031923618166787  0.6488394636615383  1.0000
  H   H22       1.0  0.2813010437589298  0.5498055133441326  0.11529091320412022  1.0000
  C   C1        1.0  0.4990143983709885  0.4999401957919929  0.2623242819781026  1.0000
  C   C2        1.0  0.9255468242955517  0.582155559398757  0.5630551185625521  1.0000
  C   C3        1.0  0.927161204076171  0.4134674563171572  0.4335630287332394  1.0000
  C   C4        1.0  0.0730264342527462  0.4139625024937459  0.43324939847423855  1.0000
  C   C5        1.0  0.499378197798208  0.26153556004522466  0.4906657983529358  1.0000
  C   C6        1.0  0.4978465431002164  0.5019061827510639  0.7371173891956461  1.0000
  C   C7        1.0  0.4988001108521729  0.7405673673221783  0.49378835905299223  1.0000
  C   C8        1.0  0.6338286743719691  0.07016192899731519  0.42327943858452244  1.0000
  C   C9        1.0  0.363097885514378  0.06745485890450448  0.4260677542133209  1.0000
  C   C10       1.0  0.6413986754899312  0.9264992557212325  0.42855624483387805  1.0000
  C   C11       1.0  0.374382637122622  0.9242815043860304  0.4078479473588602  1.0000
  C   C12       1.0  0.48757903226299953  0.9297440152059622  0.6131983765809679  1.0000
  C   C13       1.0  0.4999733256058292  0.0701510213725456  0.6178591060832305  1.0000
  C   C14       1.0  0.49867534090655136  0.12059336829452859  0.48405904133644384  1.0000
  C   C15       1.0  0.501876752895747  0.8802809074846037  0.48202852392017803  1.0000
  C   C16       1.0  0.8277313589886645  0.8568062665993423  0.2932641440852706  1.0000
  C   C17       1.0  0.24523731990507258  0.8450210099641424  0.2302654333557896  1.0000
  C   C18       1.0  0.37552959536294134  0.527815908716967  0.0635980355121291  1.0000
  C   C19       1.0  0.6211317198554126  0.47071365252921293  0.0621897122904045  1.0000
  C   C20       1.0  0.37538514745585877  0.5287199774111996  0.9374485299523201  1.0000
  C   C21       1.0  0.6209170428471181  0.4714236713024676  0.9359902127448906  1.0000
  C   C22       1.0  0.4980921173491382  0.5007645186834324  0.8728344577160457  1.0000
  C   C23       1.0  0.49852813805044593  0.4991423479672221  0.1267090637961843  1.0000
  C   C24       1.0  0.0710438450427588  0.5828262303708556  0.5625980249465385  1.0000
  N   N1        1.0  0.8556906368509728  0.4974722273467764  0.49857075237702725  1.0000
  N   N2        1.0  0.14265144817748168  0.4988419414188314  0.497862697706168  1.0000
  N   N3        1.0  0.6779612876377996  0.8693612033228675  0.3130261451897809  1.0000
  N   N4        1.0  0.37932804064202935  0.8730322129636789  0.286291349509888  1.0000
  Cl  Cl1       1.0  0.6538871697670388  0.1281395439066699  0.2725593193262128  1.0000
  Cl  Cl2       1.0  0.31021893226917996  0.14151223831067483  0.2887814813847669  1.0000
  Cl  Cl3       1.0  0.6587569681080795  0.11264489335589188  0.6962882857224955  1.0000
  Cl  Cl4       1.0  0.3582624545936142  0.13303638128387973  0.7074696417756314  1.0000
  O   O1        1.0  0.6179417131650169  0.4992177453146026  0.31494665251541687  1.0000
  O   O2        1.0  0.3806700520846249  0.5022324519441739  0.3156725912631515  1.0000
  O   O3        1.0  0.6184870717912858  0.3116050288148742  0.4935624365828488  1.0000
  O   O4        1.0  0.3817787381639093  0.3150575418792201  0.49656598083318226  1.0000
  O   O5        1.0  0.6163563329978102  0.49701571566417607  0.6839502506336927  1.0000
  O   O6        1.0  0.37925795820778063  0.5078635698363811  0.6842600057771904  1.0000
  O   O7        1.0  0.6163409572707154  0.6859178713720411  0.5008965139007913  1.0000
  O   O8        1.0  0.37947352639724846  0.6910302847024425  0.5015613498851224  1.0000
