data_image0
_chemical_formula_structural       Mg6H36C90N6O30
_chemical_formula_sum              "Mg6 H36 C90 N6 O30"
_cell_length_a       6.843447355560448
_cell_length_b       39.59122755645856
_cell_length_c       39.591515886874355
_cell_angle_alpha    119.67248438669957
_cell_angle_beta     93.29968949602541
_cell_angle_gamma    93.29937957143855

_space_group_name_H-M_alt    "P 1"
_space_group_IT_number       1

loop_
  _space_group_symop_operation_xyz
  'x, y, z'

loop_
  _atom_site_type_symbol
  _atom_site_label
  _atom_site_symmetry_multiplicity
  _atom_site_fract_x
  _atom_site_fract_y
  _atom_site_fract_z
  _atom_site_occupancy
  Mg  Mg1       1.0  0.20422374807375138  0.6701711094659687  0.30867255675050864  1.0000
  Mg  Mg2       1.0  0.8955480081032832  0.6913895344053315  0.3615224542300056  1.0000
  Mg  Mg3       1.0  0.534132333381642  0.6385376325709302  0.32988774107084157  1.0000
  Mg  Mg4       1.0  0.7957772338487176  0.32982905383212113  0.6913276248081317  1.0000
  Mg  Mg5       1.0  0.10445282785212133  0.3086103367519399  0.6384778338359711  1.0000
  Mg  Mg6       1.0  0.4658683565564203  0.3614619464432777  0.6701121483421275  1.0000
  H   H1        1.0  0.9880603746521004  0.06454750105973521  0.5538174908525948  1.0000
  H   H2        1.0  0.22468826175182957  0.9725426102550897  0.4528245427054431  1.0000
  H   H3        1.0  0.512238163001669  0.017748011375232395  0.46191029513813936  1.0000
  H   H4        1.0  0.8824427707457759  0.14829357113275418  0.5840041972834558  1.0000
  H   H5        1.0  0.052582350030242336  0.2144637038973798  0.6242718401932381  1.0000
  H   H6        1.0  0.33835148113788455  0.19833620264636653  0.5837064565925943  1.0000
  H   H7        1.0  0.4342903350347386  0.44618709910163556  0.510744226134719  1.0000
  H   H8        1.0  0.7720349303594959  0.5471372645689312  0.5197129058271841  1.0000
  H   H9        1.0  0.05036015828239484  0.5380729980061433  0.5558760314398656  1.0000
  H   H10       1.0  0.29842558576391554  0.4159932070665064  0.5643256973835095  1.0000
  H   H11       1.0  0.4282570229076725  0.375717984037145  0.5902292893786837  1.0000
  H   H12       1.0  0.7544225917993117  0.4162561194972624  0.6146038302601085  1.0000
  H   H13       1.0  0.9235670790142623  0.48924937170739474  0.9354293248206959  1.0000
  H   H14       1.0  0.2522412230373235  0.4802750172049742  0.027414377638201988  1.0000
  H   H15       1.0  0.49454083350921263  0.44414968180029046  0.982211243894476  1.0000
  H   H16       1.0  0.7340854008396462  0.4356816799900329  0.8516338415030591  1.0000
  H   H17       1.0  0.8380187686582803  0.40976923829657613  0.7854424783046527  1.0000
  H   H18       1.0  0.13989310846141487  0.38537735369368414  0.8016448588897875  1.0000
  H   H19       1.0  0.011938997632725407  0.9354523701132461  0.44618278266321454  1.0000
  H   H20       1.0  0.7753141838412176  0.027457553027289798  0.5471756534033646  1.0000
  H   H21       1.0  0.48776560029487864  0.9822518597506192  0.5380900220281719  1.0000
  H   H22       1.0  0.11755821112641496  0.8517065921630902  0.415995479114841  1.0000
  H   H23       1.0  0.9474184859000161  0.7855361672587691  0.37572819529256685  1.0000
  H   H24       1.0  0.661649354691825  0.8016636685052844  0.4162925685725158  1.0000
  H   H25       1.0  0.5657087451651253  0.5538121877829597  0.48925474491472454  1.0000
  H   H26       1.0  0.22796458796781144  0.45286289874823626  0.4802880189218116  1.0000
  H   H27       1.0  0.9496392141532582  0.4619268731735745  0.44412575755698225  1.0000
  H   H28       1.0  0.701573494486226  0.584006079820341  0.4356737788262849  1.0000
  H   H29       1.0  0.5717423493520145  0.624281887134707  0.40977073155695376  1.0000
  H   H30       1.0  0.24557341514260866  0.5837428752801797  0.3853957233566803  1.0000
  H   H31       1.0  0.07642936587913601  0.5107504994947546  0.06457041443444213  1.0000
  H   H32       1.0  0.7477600508192739  0.519725730374752  0.972585590905773  1.0000
  H   H33       1.0  0.5054604403473845  0.5558510657794357  0.017788724649499037  1.0000
  H   H34       1.0  0.2659171907204583  0.564318775433165  0.14836624809841248  1.0000
  H   H35       1.0  0.16198221326418155  0.5902309250015136  0.21455770325398765  1.0000
  H   H36       1.0  0.8601068477419533  0.6146236860448155  0.19835549375703485  1.0000
  C   C1        1.0  0.31309670208148094  0.11974150119627322  0.5678692208795867  1.0000
  C   C2        1.0  0.2619451385162109  0.07794942160419542  0.5379460154096236  1.0000
  C   C3        1.0  0.09979057198531649  0.053184445852927795  0.53354258953555  1.0000
  C   C4        1.0  0.0844089632462044  0.014012498236809296  0.5027070222948211  1.0000
  C   C5        1.0  0.23421793248054001  0.0023653711985502997  0.47714871344475557  1.0000
  C   C6        1.0  0.39791967841402  0.0276401208533699  0.48183882773135184  1.0000
  C   C7        1.0  0.4107762934399091  0.0656370982514005  0.512939532351659  1.0000
  C   C8        1.0  0.5648335593882622  0.0988711311048931  0.5264014232475206  1.0000
  C   C9        1.0  0.5970165707114603  0.16877146767063783  0.5812726637167884  1.0000
  C   C10       1.0  0.7995710611023482  0.1734953304058848  0.5926091049912543  1.0000
  C   C11       1.0  0.8956771908037597  0.2106707440749034  0.6153292355218626  1.0000
  C   C12       1.0  0.795365964482457  0.24447514973734735  0.628343365336093  1.0000
  C   C13       1.0  0.5891457931146533  0.23931077195595662  0.6163083591877979  1.0000
  C   C14       1.0  0.4946628997565342  0.201385698028588  0.5926505642713878  1.0000
  C   C15       1.0  0.46766204114843657  0.2721831696868833  0.6274762841587319  1.0000
  C   C16       1.0  0.7452027668119428  0.43213565764763456  0.5519127730572962  1.0000
  C   C17       1.0  0.7241014523827688  0.4620316879892811  0.5399993531639071  1.0000
  C   C18       1.0  0.5663365161273719  0.46643910415499334  0.5196393479929926  1.0000
  C   C19       1.0  0.5817442161095983  0.4972728276721695  0.5112944893253515  1.0000
  C   C20       1.0  0.7571866159574299  0.5228133418394308  0.5252086017204152  1.0000
  C   C21       1.0  0.9161711751187414  0.5181342207607216  0.5458149996567557  1.0000
  C   C22       1.0  0.8979256333629594  0.4870317498889706  0.5526985670088396  1.0000
  C   C23       1.0  0.038477548519331654  0.4735908422481003  0.5724937468038933  1.0000
  C   C24       1.0  0.015762387465585417  0.41872000437166423  0.5875348286212798  1.0000
  C   C25       1.0  0.20692939154134393  0.40737751300892466  0.5809110506988162  1.0000
  C   C26       1.0  0.28023269271702844  0.384639892305934  0.5953554578075784  1.0000
  C   C27       1.0  0.16684208237498416  0.37159293756715767  0.6161025371178966  1.0000
  C   C28       1.0  0.9726232711231121  0.38362319993166943  0.6229640594789743  1.0000
  C   C29       1.0  0.9018441276121011  0.4073201915547385  0.6087330036576618  1.0000
  C   C30       1.0  0.8400882324425396  0.372463406613015  0.6446860476385015  1.0000
  C   C31       1.0  0.19338239154822662  0.4480896829527481  0.8802085670578778  1.0000
  C   C32       1.0  0.18415938683886432  0.45999099224023615  0.9220151137949772  1.0000
  C   C33       1.0  0.046750047233324266  0.4803601995922833  0.9467919116958968  1.0000
  C   C34       1.0  0.07048807262155074  0.4887098533213247  0.9859746602225672  1.0000
  C   C35       1.0  0.23201852537965112  0.47480070315032213  0.9976016373464989  1.0000
  C   C36       1.0  0.370434680528149  0.454205656251176  0.9723164019402477  1.0000
  C   C37       1.0  0.34533802911119693  0.447299208201926  0.9343205417028246  1.0000
  C   C38       1.0  0.46604939733377654  0.42750215886539417  0.9010762339432505  1.0000
  C   C39       1.0  0.4282553510331156  0.4124382004299534  0.8311631588389691  1.0000
  C   C40       1.0  0.6260391058594622  0.41907674743799106  0.8264281691349213  1.0000
  C   C41       1.0  0.6848913633164103  0.4046356180987871  0.7892469753060853  1.0000
  C   C42       1.0  0.5507300247288002  0.38384919581409355  0.7554587151560243  1.0000
  C   C43       1.0  0.3496596311252135  0.37700121975120743  0.7606347368491841  1.0000
  C   C44       1.0  0.29318105826001783  0.391239287550988  0.7985652041297088  1.0000
  C   C45       1.0  0.19538530017586458  0.35528191396768705  0.7277609660363427  1.0000
  C   C46       1.0  0.6868988631352978  0.8802595385904793  0.43213134069690556  1.0000
  C   C47       1.0  0.7380511603598381  0.9220501574548905  0.4620533251924997  1.0000
  C   C48       1.0  0.9002088002240927  0.9468154253166788  0.46645692623974383  1.0000
  C   C49       1.0  0.9155915807247867  0.9859867886365736  0.4972929736254773  1.0000
  C   C50       1.0  0.7657858308160143  0.9976344999273006  0.5228516037215557  1.0000
  C   C51       1.0  0.6020808655318324  0.9723591660188905  0.5181609156087819  1.0000
  C   C52       1.0  0.5892217611162637  0.9343630650769796  0.48706036752648185  1.0000
  C   C53       1.0  0.43517327711595055  0.9011290321258656  0.47359780619109443  1.0000
  C   C54       1.0  0.40298441111045247  0.8312286956229612  0.41872650752116425  1.0000
  C   C55       1.0  0.2004299207195644  0.8265048328877141  0.40739006624669855  1.0000
  C   C56       1.0  0.10432218140564949  0.7893291270947101  0.38467028025343825  1.0000
  C   C57       1.0  0.204633407752091  0.7555247214333887  0.3716564030193724  1.0000
  C   C58       1.0  0.410853725112098  0.7606893913567135  0.3836915552405104  1.0000
  C   C59       1.0  0.5053366183696612  0.7986144652795913  0.40734833983623303  1.0000
  C   C60       1.0  0.5323389407488932  0.7278169936100767  0.37252364481973654  1.0000
  C   C61       1.0  0.25479426587421034  0.5678624606905133  0.4480868620514971  1.0000
  C   C62       1.0  0.275894846568697  0.5379678910731727  0.46000074517873213  1.0000
  C   C63       1.0  0.4336625641227628  0.5335601827318469  0.48036012821680174  1.0000
  C   C64       1.0  0.4182551561500888  0.5027270434996821  0.48870553161029334  1.0000
  C   C65       1.0  0.24281422007338457  0.4771865293212088  0.47479244408608434  1.0000
  C   C66       1.0  0.08382497791593838  0.48186506616315944  0.4541857103535707  1.0000
  C   C67       1.0  0.1020724212686375  0.5129684134427848  0.44730209060982434  1.0000
  C   C68       1.0  0.9615153851394994  0.5264078604210667  0.4275061368000765  1.0000
  C   C69       1.0  0.984234937179842  0.5812786982492496  0.41246484605301253  1.0000
  C   C70       1.0  0.793068225038219  0.5926217738936331  0.4190884109608037  1.0000
  C   C71       1.0  0.719768143238376  0.6153599788513374  0.40464483025839837  1.0000
  C   C72       1.0  0.8331586075630713  0.6284066414470432  0.3838973522950654  1.0000
  C   C73       1.0  0.027375809177307576  0.6163760869574234  0.3770359218911567  1.0000
  C   C74       1.0  0.09815495266317253  0.5926790953332315  0.3912667251322973  1.0000
  C   C75       1.0  0.15991245752066174  0.6275361724023086  0.3553140943546398  1.0000
  C   C76       1.0  0.8066206379633627  0.5519116488951568  0.11979170818194268  1.0000
  C   C77       1.0  0.8158420330099362  0.5400100474814309  0.07798500082183327  1.0000
  C   C78       1.0  0.9532480073228556  0.519639963736097  0.05320798818223703  1.0000
  C   C79       1.0  0.9295099819094902  0.5112903100059327  0.014024987075402045  1.0000
  C   C80       1.0  0.7679798211609353  0.525200044461947  0.0023985546773133944  1.0000
  C   C81       1.0  0.6295682029660978  0.5457953834536581  0.027683474646558234  1.0000
  C   C82       1.0  0.6546635367046746  0.5527021236605593  0.0656794664066569  1.0000
  C   C83       1.0  0.533949095173874  0.572498880887693  0.09892385157323258  1.0000
  C   C84       1.0  0.5717446051702525  0.5875628393085534  0.16883719380784623  1.0000
  C   C85       1.0  0.3739620220300709  0.580923708000917  0.17357190591638288  1.0000
  C   C86       1.0  0.31510961863119047  0.5953645452004253  0.21075345883272703  1.0000
  C   C87       1.0  0.4492724208642471  0.616150967468286  0.24454148095279052  1.0000
  C   C88       1.0  0.6503414968145976  0.6229992356899458  0.2393658433624709  1.0000
  C   C89       1.0  0.7068158245848581  0.6087614600758684  0.20143472076377136  1.0000
  C   C90       1.0  0.804615681746597  0.6447182493304027  0.2722392155223049  1.0000
  N   N1        1.0  0.49526602264110414  0.1308099607160145  0.5590786685269222  1.0000
  N   N2        1.0  0.9362052279418338  0.4409163785685807  0.5717596806922317  1.0000
  N   N3        1.0  0.36447174779661407  0.42822032217559075  0.8691329186717668  1.0000
  N   N4        1.0  0.5047334955856473  0.8691902025966556  0.4409212459013859  1.0000
  N   N5        1.0  0.06379531602915739  0.5590829083048021  0.4282403152280666  1.0000
  N   N6        1.0  0.6355299640114611  0.5717813018288426  0.1308672355105501  1.0000
  O   O1        1.0  0.7117700858081693  0.7334832762464601  0.38610109857808106  1.0000
  O   O2        1.0  0.45222546187563495  0.6929131026210413  0.34802681404260494  1.0000
  O   O3        1.0  0.10268648333145337  0.720547744823534  0.3487220257536948  1.0000
  O   O4        1.0  0.22146833952144362  0.14080757087306486  0.5950433962184293  1.0000
  O   O5        1.0  0.7215805030188136  0.0995509528870286  0.5132862022242223  1.0000
  O   O6        1.0  0.32576800973122755  0.6139558415041436  0.34738480488500323  1.0000
  O   O7        1.0  0.10417741642383062  0.6520124559927112  0.344887834878513  1.0000
  O   O8        1.0  0.7540895925275352  0.6513453292740294  0.371858013749659  1.0000
  O   O9        1.0  0.6263327751551985  0.40499391796444684  0.5458456591797758  1.0000
  O   O10       1.0  0.20827750162278147  0.4867115470650701  0.5862992363103886  1.0000
  O   O11       1.0  0.9784052050130045  0.6526132650618734  0.2665653189346175  1.0000
  O   O12       1.0  0.7593652793322789  0.6551612468569203  0.3071481022477302  1.0000
  O   O13       1.0  0.3823333868689006  0.6282345812602941  0.2795275093850408  1.0000
  O   O14       1.0  0.08059134822482864  0.45418344423671186  0.8591451557644022  1.0000
  O   O15       1.0  0.6221118260134446  0.4136984764173021  0.9003877912752787  1.0000
  O   O16       1.0  0.28823075012208926  0.26651659490968166  0.6138989369077238  1.0000
  O   O17       1.0  0.5477768377252091  0.3070867685193974  0.6519732359933601  1.0000
  O   O18       1.0  0.8973128889533655  0.2794521263494402  0.6512782477621145  1.0000
  O   O19       1.0  0.7785352776823445  0.8591920081063548  0.40495576455435167  1.0000
  O   O20       1.0  0.2784160879421977  0.9004492104604296  0.4867144408442673  1.0000
  O   O21       1.0  0.6742328261990309  0.3860440296520053  0.6526152306008016  1.0000
  O   O22       1.0  0.8958234195315672  0.3479874151645533  0.6551124531874707  1.0000
  O   O23       1.0  0.24591270709844085  0.348654541867532  0.628142288866485  1.0000
  O   O24       1.0  0.3736778683416518  0.5950050766491658  0.45415252445763354  1.0000
  O   O25       1.0  0.7917199690148498  0.5132874476977918  0.4137005844367396  1.0000
  O   O26       1.0  0.021595484950196944  0.3473863139534501  0.7334348230585166  1.0000
  O   O27       1.0  0.24063541063091526  0.34483833215840326  0.692852039745411  1.0000
  O   O28       1.0  0.617667449061358  0.3717652898958548  0.7204725261007641  1.0000
  O   O29       1.0  0.9194102175910362  0.5458178876257804  0.1408548523450792  1.0000
  O   O30       1.0  0.3778881301899235  0.5863025633211978  0.09961256137154363  1.0000
