data_image0
_chemical_formula_structural       Tl4H24C32N12
_chemical_formula_sum              "Tl4 H24 C32 N12"
_cell_length_a       5.319085406038239
_cell_length_b       10.999635866282555
_cell_length_c       14.250991506735907
_cell_angle_alpha    104.43489985391616
_cell_angle_beta     89.99958037270102
_cell_angle_gamma    89.99997444434246

_space_group_name_H-M_alt    "P 1"
_space_group_IT_number       1

loop_
  _space_group_symop_operation_xyz
  'x, y, z'

loop_
  _atom_site_type_symbol
  _atom_site_label
  _atom_site_symmetry_multiplicity
  _atom_site_fract_x
  _atom_site_fract_y
  _atom_site_fract_z
  _atom_site_occupancy
  Tl  Tl1       1.0  0.7782188889665138  0.10691272034946311  0.13203800108931318  1.0000
  Tl  Tl2       1.0  0.27822442801242897  0.3930899301474183  0.36796926637387617  1.0000
  Tl  Tl3       1.0  0.221775293140567  0.8930903512855225  0.867959367072913  1.0000
  Tl  Tl4       1.0  0.7217791541162769  0.6069131637552799  0.6320372282172213  1.0000
  H   H1        1.0  0.137239476000083  0.20469736400560376  0.9645979540257625  1.0000
  H   H2        1.0  0.6372488234021318  0.29530538628034003  0.535411974881917  1.0000
  H   H3        1.0  0.8627471859287966  0.7953047911521338  0.03540836124796696  1.0000
  H   H4        1.0  0.36276791895517857  0.7046883080760791  0.4645878120310412  1.0000
  H   H5        1.0  0.5317375366413302  0.3714632170566645  0.9772672201390831  1.0000
  H   H6        1.0  0.03174080259128689  0.12853776002661016  0.5227363397244814  1.0000
  H   H7        1.0  0.46825664538208406  0.6285398751380598  0.022738572431684586  1.0000
  H   H8        1.0  0.9682759398427196  0.8714559154833806  0.4772557248139789  1.0000
  H   H9        1.0  0.8671557810792481  0.48527888822513177  0.05717050680455318  1.0000
  H   H10       1.0  0.3671602203922575  0.014719899475956299  0.44283297556809476  1.0000
  H   H11       1.0  0.13283840095773067  0.5147185714422162  0.9428342097138509  1.0000
  H   H12       1.0  0.6328414818281871  0.9852878573610084  0.557161779123234  1.0000
  H   H13       1.0  0.17290575563389873  0.6447393212922704  0.14699745600934475  1.0000
  H   H14       1.0  0.672910614196809  0.8552633877744567  0.35300387295605146  1.0000
  H   H15       1.0  0.8270809063158993  0.3552628287255287  0.8530067531622475  1.0000
  H   H16       1.0  0.3270892079659475  0.14473874852938448  0.6469947199239667  1.0000
  H   H17       1.0  0.1351906761494988  0.7194040953811649  0.3273437095135207  1.0000
  H   H18       1.0  0.6351991927988437  0.7805949066039656  0.17265911826266475  1.0000
  H   H19       1.0  0.8648035058946422  0.2805961771232433  0.6726601409629821  1.0000
  H   H20       1.0  0.3648025093929661  0.21940159888474406  0.8273391005962905  1.0000
  H   H21       1.0  0.7935436782778641  0.6295107302876131  0.41062780345014704  1.0000
  H   H22       1.0  0.2935378531736177  0.8704871446867272  0.08937087263621628  1.0000
  H   H23       1.0  0.20645614388696032  0.37048765271129  0.5893707740956768  1.0000
  H   H24       1.0  0.7064657290591114  0.12950747986516117  0.9106255834677838  1.0000
  C   C1        1.0  0.23560588005897645  0.25869266768742694  0.028359259867848173  1.0000
  C   C2        1.0  0.7356197790860366  0.24131003630157005  0.47165023806351747  1.0000
  C   C3        1.0  0.7643770218227319  0.7413104262270095  0.9716472347534332  1.0000
  C   C4        1.0  0.2643932032659393  0.7586845865316785  0.5283455159927184  1.0000
  C   C5        1.0  0.43616280426287096  0.34239033310828393  0.03524415912638548  1.0000
  C   C6        1.0  0.936173165664414  0.15761025550322216  0.46476018253908064  1.0000
  C   C7        1.0  0.5638200976442818  0.6576108781570865  0.9647598707086328  1.0000
  C   C8        1.0  0.0638398166947169  0.8423871801670869  0.5352347054752469  1.0000
  C   C9        1.0  0.4811544825996564  0.38409129051436247  0.13571745535902113  1.0000
  C   C10       1.0  0.981155601957241  0.11590924533286535  0.3642860529648288  1.0000
  C   C11       1.0  0.5188378194267359  0.6159099190323686  0.8642858724282403  1.0000
  C   C12       1.0  0.018855500391303803  0.8840919402168337  0.6357074463183493  1.0000
  C   C13       1.0  0.6640913951023252  0.4756731921497134  0.18663273254379212  1.0000
  C   C14       1.0  0.1640946357146902  0.0243230028710641  0.3133679963696423  1.0000
  C   C15       1.0  0.33590090694931973  0.5243233201975739  0.8133682944650713  1.0000
  C   C16       1.0  0.8359183466889066  0.9756791128655703  0.6866221720826285  1.0000
  C   C17       1.0  0.8538256274326559  0.520845157914458  0.13534210240866426  1.0000
  C   C18       1.0  0.35381986392992104  0.9791573561316509  0.36466291071019424  1.0000
  C   C19       1.0  0.14617231464018943  0.4791560567689998  0.8646633314724992  1.0000
  C   C20       1.0  0.6461949984477046  0.02085040069785289  0.6353318439619212  1.0000
  C   C21       1.0  0.02424073832604281  0.6088211530436992  0.18527304400235775  1.0000
  C   C22       1.0  0.5242500803643965  0.8911779662795566  0.31472659744147785  1.0000
  C   C23       1.0  0.9757459236467415  0.39117723852922365  0.8147290437329031  1.0000
  C   C24       1.0  0.4757516218464418  0.1088251019245305  0.6852693666416838  1.0000
  C   C25       1.0  0.0045051219833212  0.6505169104234126  0.285907528509746  1.0000
  C   C26       1.0  0.5045014650759257  0.849485994887864  0.21409639809556308  1.0000
  C   C27       1.0  0.9954947001189467  0.34948430254566887  0.7140972033346243  1.0000
  C   C28       1.0  0.4955002371204031  0.15050863309171797  0.7859014620792731  1.0000
  C   C29       1.0  0.8129087074435122  0.6006076387022147  0.3317664764727651  1.0000
  C   C30       1.0  0.31291068667351857  0.8993845869049647  0.16823317312961436  1.0000
  C   C31       1.0  0.1870892346822828  0.3993860573781872  0.6682340125016776  1.0000
  C   C32       1.0  0.687092895561463  0.10060909889236307  0.831763103632326  1.0000
  N   N1        1.0  0.16685445248780442  0.24978561404493144  0.11808590327961346  1.0000
  N   N2        1.0  0.6668626042882978  0.25021810843380615  0.3819246767069158  1.0000
  N   N3        1.0  0.8331322094273192  0.7502193590898045  0.8819216520543447  1.0000
  N   N4        1.0  0.3331466179842835  0.7497821520688887  0.6180742595093134  1.0000
  N   N5        1.0  0.3164697093023392  0.3258863784877305  0.1836663324552602  1.0000
  N   N6        1.0  0.8164698413189415  0.17411529156422026  0.31634134606186126  1.0000
  N   N7        1.0  0.6835244727210681  0.6741167137069863  0.8163394601155144  1.0000
  N   N8        1.0  0.18353938097002498  0.8258868413076641  0.6836558427363497  1.0000
  N   N9        1.0  0.6454593815891131  0.516336211677121  0.28433466585728684  1.0000
  N   N10       1.0  0.14545657251390057  0.9836609028657645  0.2156684753132011  1.0000
  N   N11       1.0  0.3545404405408519  0.48366217988833415  0.7156674218587608  1.0000
  N   N12       1.0  0.8545507698034882  0.016337464709060598  0.7843237839152407  1.0000
