data_image0
_chemical_formula_structural       Cu8H96C76N24O24
_chemical_formula_sum              "Cu8 H96 C76 N24 O24"
_cell_length_a       12.997040629085248
_cell_length_b       13.95270464919178
_cell_length_c       16.425051482413334
_cell_angle_alpha    90.00046671658475
_cell_angle_beta     90.00143010280617
_cell_angle_gamma    90.00037923514353

_space_group_name_H-M_alt    "P 1"
_space_group_IT_number       1

loop_
  _space_group_symop_operation_xyz
  'x, y, z'

loop_
  _atom_site_type_symbol
  _atom_site_label
  _atom_site_symmetry_multiplicity
  _atom_site_fract_x
  _atom_site_fract_y
  _atom_site_fract_z
  _atom_site_occupancy
  Cu  Cu1       1.0  0.7231077287270296  0.20867884448919938  0.3461547288952077  1.0000
  Cu  Cu2       1.0  0.7769076156333483  0.7913268711392122  0.8461599670720759  1.0000
  Cu  Cu3       1.0  0.2230998146738088  0.2913258412069835  0.6538398225191102  1.0000
  Cu  Cu4       1.0  0.27689336030501716  0.7086821130751276  0.15384336244313357  1.0000
  Cu  Cu5       1.0  0.4449771499350774  0.4770807385652205  0.4104394627124322  1.0000
  Cu  Cu6       1.0  0.055034882536233495  0.5229210809165109  0.910440287415206  1.0000
  Cu  Cu7       1.0  0.9449660226256  0.022915996842257893  0.589558257466891  1.0000
  Cu  Cu8       1.0  0.5550335418003273  0.9770800860408072  0.08955926448489043  1.0000
  H   H1        1.0  0.7175989142588577  0.129134297806452  0.17714549268635696  1.0000
  H   H2        1.0  0.7823972549885381  0.8708654935217125  0.6771489535501021  1.0000
  H   H3        1.0  0.21760073860932036  0.37087393750041997  0.8228459057938127  1.0000
  H   H4        1.0  0.2824000702953597  0.629128473718083  0.3228538757890007  1.0000
  H   H5        1.0  0.6541840914545389  0.24883748950433926  0.5650752656582868  1.0000
  H   H6        1.0  0.8458416306652126  0.7511683920868675  0.06507315588442712  1.0000
  H   H7        1.0  0.15414591115658993  0.25115530419079585  0.43492522867200734  1.0000
  H   H8        1.0  0.3458330390250168  0.7488474671711385  0.9349248394855538  1.0000
  H   H9        1.0  0.542560598039813  0.461584820932174  0.19926417120316847  1.0000
  H   H10       1.0  0.9574370376813947  0.5384166163705189  0.6992718411052155  1.0000
  H   H11       1.0  0.04256397779700189  0.03840585178387811  0.8007359431531216  1.0000
  H   H12       1.0  0.45743613415624657  0.9615898965549688  0.30073079591341684  1.0000
  H   H13       1.0  0.49266707724314074  0.1620901541412394  0.5202120184866035  1.0000
  H   H14       1.0  0.0073565104519489  0.8379165163066346  0.020233648212013105  1.0000
  H   H15       1.0  0.9926331873281454  0.337886807209692  0.47978542660245443  1.0000
  H   H16       1.0  0.5073417423609499  0.6621001245482601  0.9797917493303175  1.0000
  H   H17       1.0  0.5768560780058039  0.08443118694236768  0.5761363038001763  1.0000
  H   H18       1.0  0.9231615296331768  0.9155848349260722  0.07615938465846031  1.0000
  H   H19       1.0  0.0768148711510577  0.41556328043005647  0.42385779108125393  1.0000
  H   H20       1.0  0.42315295868436925  0.5844279172810045  0.9238657100526172  1.0000
  H   H21       1.0  0.5702505241726215  0.0775223046242672  0.46708084869862193  1.0000
  H   H22       1.0  0.9297824804921645  0.9225053576287222  0.9671076708428361  1.0000
  H   H23       1.0  0.0701943371253151  0.4224807224508423  0.5329052007297008  1.0000
  H   H24       1.0  0.42976502020360385  0.577523202865059  0.032911466473692  1.0000
  H   H25       1.0  0.11604395996983638  0.21524482459346927  0.1861297696314281  1.0000
  H   H26       1.0  0.3839579263840989  0.7847433721547362  0.6861255112856385  1.0000
  H   H27       1.0  0.6160425321099724  0.2847484508532999  0.8138510974041325  1.0000
  H   H28       1.0  0.8839540977913458  0.7152254191897072  0.3138519286349252  1.0000
  H   H29       1.0  0.07993407840552182  0.16839885960906997  0.09123274471180312  1.0000
  H   H30       1.0  0.4200594319615619  0.8316020427415934  0.5912392649476177  1.0000
  H   H31       1.0  0.5799482844996503  0.3316106776520157  0.9087425380141102  1.0000
  H   H32       1.0  0.920058260354743  0.6683777216738561  0.4087474123484257  1.0000
  H   H33       1.0  0.9445907568408457  0.28768423561435696  0.9334405862909423  1.0000
  H   H34       1.0  0.5554111803698589  0.7123208852353922  0.43343672831447594  1.0000
  H   H35       1.0  0.44459608974514  0.21231966453836296  0.06655834408883272  1.0000
  H   H36       1.0  0.05541126165257991  0.7876774171847882  0.5665561339423208  1.0000
  H   H37       1.0  0.0428625431759215  0.2058107231641912  0.960567986614983  1.0000
  H   H38       1.0  0.4571310643379221  0.7941965948719695  0.4605653304025382  1.0000
  H   H39       1.0  0.5428660162947737  0.2942193702463029  0.0394223926303852  1.0000
  H   H40       1.0  0.957141970582633  0.705776947630845  0.5394257328738805  1.0000
  H   H41       1.0  0.0686268773635348  0.30055768914130704  0.890833018363715  1.0000
  H   H42       1.0  0.4313799206580242  0.6994374915172018  0.39082371916200037  1.0000
  H   H43       1.0  0.5686303354653504  0.19946109572811113  0.10916578495631774  1.0000
  H   H44       1.0  0.9313813878333832  0.8005416259293057  0.6091601378394815  1.0000
  H   H45       1.0  0.1693761797993574  0.4991127183927943  0.22475581342223455  1.0000
  H   H46       1.0  0.3306169213433847  0.5008973506339629  0.7247400168642886  1.0000
  H   H47       1.0  0.6693761331294539  0.0008966533316439001  0.7752565493937882  1.0000
  H   H48       1.0  0.8306185112089326  0.9991004971638588  0.2752534157608793  1.0000
  H   H49       1.0  0.17084650354735936  0.37627143648535377  0.25178119430412244  1.0000
  H   H50       1.0  0.3291459102707108  0.6237317251228092  0.7517589110048207  1.0000
  H   H51       1.0  0.6708480174879271  0.12372791037626736  0.7482251093008119  1.0000
  H   H52       1.0  0.8291465444130851  0.8762704137777104  0.24821927189059073  1.0000
  H   H53       1.0  0.05490430675937569  0.4426324416264081  0.2590630550925966  1.0000
  H   H54       1.0  0.4450891060939526  0.5573715067121155  0.759051129359037  1.0000
  H   H55       1.0  0.5549135828945638  0.057358307223538  0.7409513063641741  1.0000
  H   H56       1.0  0.9450830579274694  0.9426356467802532  0.24094091344211688  1.0000
  H   H57       1.0  0.7885258010329537  0.0805224927642101  0.039804599519676714  1.0000
  H   H58       1.0  0.7114583463078503  0.9194788456559947  0.5398069936929561  1.0000
  H   H59       1.0  0.2885392235469553  0.419476145655487  0.9601882013042629  1.0000
  H   H60       1.0  0.2114659130697731  0.5805082341646752  0.46018956256060767  1.0000
  H   H61       1.0  0.9205594308443423  0.10049239952537899  0.0179667727019535  1.0000
  H   H62       1.0  0.5794240283758754  0.8995065789448661  0.5179712891932697  1.0000
  H   H63       1.0  0.4205810935461898  0.39951135258775844  0.9820243768134708  1.0000
  H   H64       1.0  0.07942319242904008  0.6004839876665355  0.4820281360354955  1.0000
  H   H65       1.0  0.8300350814684379  0.1939793019475999  0.003478574803999401  1.0000
  H   H66       1.0  0.6699502294485172  0.8060245542638782  0.5034836266518639  1.0000
  H   H67       1.0  0.33005730532227784  0.30601600869651685  0.9965144379298965  1.0000
  H   H68       1.0  0.16994743719195776  0.6939687201799813  0.4965163706658375  1.0000
  H   H69       1.0  0.9377809007323776  0.3092378174373209  0.352460374788862  1.0000
  H   H70       1.0  0.5622146376671182  0.6907593582135475  0.8524606741350313  1.0000
  H   H71       1.0  0.437765148192696  0.19074453947911962  0.6475365941953231  1.0000
  H   H72       1.0  0.0622347527981049  0.8092475867166016  0.14754267290127393  1.0000
  H   H73       1.0  0.0553330189404377  0.2731580045190753  0.3070239676933754  1.0000
  H   H74       1.0  0.4446665218748294  0.7268456880436815  0.807024771532909  1.0000
  H   H75       1.0  0.5553127509609225  0.22683418013408382  0.692956916516792  1.0000
  H   H76       1.0  0.9446846859314777  0.7731607461835918  0.19296117488941186  1.0000
  H   H77       1.0  0.9854677812622158  0.1927652927119681  0.3705584086244684  1.0000
  H   H78       1.0  0.514532174529151  0.8072342069921705  0.8705622224764938  1.0000
  H   H79       1.0  0.4854622888719788  0.3072245250617343  0.6294315885426159  1.0000
  H   H80       1.0  0.0145339639735411  0.6927717273898039  0.12943652871093295  1.0000
  H   H81       1.0  0.1278876877377897  0.5450922253718247  0.07951766110738133  1.0000
  H   H82       1.0  0.37209468143772995  0.45490498073908003  0.5795029759664347  1.0000
  H   H83       1.0  0.6278977545344306  0.9549172742742086  0.9204912460122048  1.0000
  H   H84       1.0  0.8721122380036022  0.045073388023524806  0.4204853887685972  1.0000
  H   H85       1.0  0.45991797468997225  0.30020003654778543  0.18912949547096503  1.0000
  H   H86       1.0  0.0400832367050725  0.6997932059411979  0.6891190695639866  1.0000
  H   H87       1.0  0.9599220039312258  0.19979320749393986  0.8108837408866238  1.0000
  H   H88       1.0  0.5400822266695329  0.8002143192929836  0.3108862750203231  1.0000
  H   H89       1.0  0.3856520880726038  0.3887873958321962  0.13619711742740756  1.0000
  H   H90       1.0  0.11433437542283538  0.6112010377496304  0.6361869390744277  1.0000
  H   H91       1.0  0.8856610022651878  0.11120969089158447  0.8638085624547005  1.0000
  H   H92       1.0  0.6143356633062709  0.8887961943305102  0.36381743817715073  1.0000
  H   H93       1.0  0.34540815962083116  0.3464848313156778  0.23377434989986065  1.0000
  H   H94       1.0  0.1545752234937368  0.6535231742390195  0.7337628240407599  1.0000
  H   H95       1.0  0.8454166079916376  0.1535148742835304  0.766228099038429  1.0000
  H   H96       1.0  0.6545839072628894  0.8464800394101742  0.26623626062656314  1.0000
  C   C1        1.0  0.5828135785422363  0.32602090726463456  0.42334802579613046  1.0000
  C   C2        1.0  0.9172057371427585  0.6739941505986806  0.9233527921329598  1.0000
  C   C3        1.0  0.08278547076880467  0.1739800472608479  0.5766559282377061  1.0000
  C   C4        1.0  0.41720450255287034  0.8260192815746237  0.07665757307745481  1.0000
  C   C5        1.0  0.9539482498820676  0.20104578187944358  0.1702811277945884  1.0000
  C   C6        1.0  0.5460500112088766  0.7989446262960483  0.6702824634455598  1.0000
  C   C7        1.0  0.45395362613517415  0.2989517255178812  0.829708855174687  1.0000
  C   C8        1.0  0.046049707136639  0.7010400010269036  0.3297120401632086  1.0000
  C   C9        1.0  0.5769162968763907  0.35045729805039366  0.3337946034883004  1.0000
  C   C10       1.0  0.923087886317262  0.6495626329007749  0.8337968822366479  1.0000
  C   C11       1.0  0.0769069948551362  0.14955365409439741  0.6662086253474657  1.0000
  C   C12       1.0  0.4230911863134493  0.8504486854021847  0.16621299047841387  1.0000
  C   C13       1.0  0.7574702004614196  0.1472228293316107  0.508677330249178  1.0000
  C   C14       1.0  0.7425483585643207  0.8527825102978567  0.008671444769625204  1.0000
  C   C15       1.0  0.2574260565205789  0.35276486703181575  0.4913264236780392  1.0000
  C   C16       1.0  0.24255005451060901  0.6472448966262762  0.991323899752928  1.0000
  C   C17       1.0  0.4089203950809193  0.5339039443458731  0.24570739870519992  1.0000
  C   C18       1.0  0.09109414038990588  0.4660919919908719  0.7457042821024019  1.0000
  C   C19       1.0  0.9089076079362287  0.9660843519429319  0.7542900171505594  1.0000
  C   C20       1.0  0.5910933004436387  0.03392048089833819  0.25429009473430153  1.0000
  C   C21       1.0  0.9206027535134922  0.21447715653278715  0.2513843955117565  1.0000
  C   C22       1.0  0.5794042185816437  0.7855168978240028  0.7513887330746274  1.0000
  C   C23       1.0  0.4205923987875906  0.2855222955392804  0.7486134516159029  1.0000
  C   C24       1.0  0.0794076096776024  0.7144715185985574  0.24861921536221845  1.0000
  C   C25       1.0  0.07138740666547251  0.3207463924834428  0.09865477637076481  1.0000
  C   C26       1.0  0.4286101842833007  0.6792524309786641  0.5986409311520263  1.0000
  C   C27       1.0  0.5713956796203874  0.1792630922708369  0.9013550404116447  1.0000
  C   C28       1.0  0.9286052463898075  0.8207281028125022  0.4013459151623665  1.0000
  C   C29       1.0  0.654274644151414  0.2005261717375575  0.5120895732793471  1.0000
  C   C30       1.0  0.8457547943543915  0.7994942516251771  0.012097536630022903  1.0000
  C   C31       1.0  0.15424001590405106  0.29947593971347425  0.4879103140824057  1.0000
  C   C32       1.0  0.3457406039916505  0.700533791156765  0.9879126335318419  1.0000
  C   C33       1.0  0.0574668588202272  0.34412493039751263  0.015607795605966104  1.0000
  C   C34       1.0  0.44253196223073843  0.6558759619102615  0.515594673010469  1.0000
  C   C35       1.0  0.5574721965946736  0.15589163563618055  0.9843980929986601  1.0000
  C   C36       1.0  0.9425321156631129  0.8441003574141419  0.4843900132762614  1.0000
  C   C37       1.0  0.8677747725815265  0.16497990755134143  0.12868089063459826  1.0000
  C   C38       1.0  0.6322206388941966  0.8350158345597337  0.6286866143259432  1.0000
  C   C39       1.0  0.36778017755770515  0.33501993582542144  0.8713195651695217  1.0000
  C   C40       1.0  0.1322206199150671  0.6649678903097325  0.37132420474799244  1.0000
  C   C41       1.0  0.4753212141816689  0.44377534695847487  0.23744780023730538  1.0000
  C   C42       1.0  0.0246799811238319  0.5562126262067721  0.7374470372026283  1.0000
  C   C43       1.0  0.9753180832976796  0.05620867474282681  0.7625602611130164  1.0000
  C   C44       1.0  0.524683085653983  0.9437933707311288  0.2625586117126204  1.0000
  C   C45       1.0  0.5675593754639507  0.1258465138702505  0.5198095908011952  1.0000
  C   C46       1.0  0.9324703065956897  0.8741790007033997  0.019834396100122807  1.0000
  C   C47       1.0  0.0675088772414867  0.37414717945540577  0.4801770142717886  1.0000
  C   C48       1.0  0.4324568803336391  0.62585029308088  0.9801872297029561  1.0000
  C   C49       1.0  0.09925696291487898  0.40717649823529456  0.13655294839939813  1.0000
  C   C50       1.0  0.4007379751441248  0.5928226893490772  0.6365330847141453  1.0000
  C   C51       1.0  0.599266504725513  0.09283244154113392  0.8634622899984025  1.0000
  C   C52       1.0  0.9007378436903792  0.9071569560435648  0.363455645900686  1.0000
  C   C53       1.0  0.059334916419054196  0.2230701357150622  0.13678570731436684  1.0000
  C   C54       1.0  0.4406677232927052  0.7769226038532437  0.6367837337747277  1.0000
  C   C55       1.0  0.55934037375156  0.276930674173272  0.8631989092561059  1.0000
  C   C56       1.0  0.940657811233912  0.7230558540725909  0.3632003067367863  1.0000
  C   C57       1.0  0.0272544221132378  0.2811952752650626  0.946566310007704  1.0000
  C   C58       1.0  0.4727456687742375  0.7188111915250132  0.44655978891812975  1.0000
  C   C59       1.0  0.527254722899805  0.2188289883727492  0.05343471947508501  1.0000
  C   C60       1.0  0.9727490889554249  0.781165313973787  0.5534297565252615  1.0000
  C   C61       1.0  0.12487577452254328  0.43239862265168927  0.22235149774495266  1.0000
  C   C62       1.0  0.37512340601735866  0.5676028227909667  0.722332171094557  1.0000
  C   C63       1.0  0.6248770474355609  0.0676061746811669  0.7776618117499369  1.0000
  C   C64       1.0  0.8751153644439853  0.9323874153779879  0.27765727071719953  1.0000
  C   C65       1.0  0.8508748491364032  0.1334500731989436  0.04305409465845141  1.0000
  C   C66       1.0  0.6491140170507208  0.866554163288626  0.5430567172052819  1.0000
  C   C67       1.0  0.3508901011642607  0.3665518161925049  0.9569423741730179  1.0000
  C   C68       1.0  0.1491180107957319  0.6334339658606253  0.4569434770448383  1.0000
  C   C69       1.0  0.9782094398380109  0.2488882151762581  0.3239133191641913  1.0000
  C   C70       1.0  0.5217882766783575  0.7511079694875277  0.8239174977572434  1.0000
  C   C71       1.0  0.4781950159432924  0.251107291504418  0.6760759256068669  1.0000
  C   C72       1.0  0.021802706800677595  0.7488951428186467  0.17608322348068842  1.0000
  C   C73       1.0  0.41242365409542714  0.3644448152500174  0.19604794757166397  1.0000
  C   C74       1.0  0.08756854244191462  0.6355520772209786  0.6960367992862899  1.0000
  C   C75       1.0  0.9124300859776396  0.13554956957265318  0.803957652738575  1.0000
  C   C76       1.0  0.5875723875510843  0.8644550238299402  0.3039603517628181  1.0000
  N   N1        1.0  0.09936553538569373  0.47506842993062987  0.07787208926984591  1.0000
  N   N2        1.0  0.40062447595640543  0.5249323439108621  0.5778541898764261  1.0000
  N   N3        1.0  0.5993756741735226  0.024941943942089  0.9221455865897357  1.0000
  N   N4        1.0  0.9006297540428321  0.9750480175265749  0.4221388003331016  1.0000
  N   N5        1.0  0.7902956722320341  0.16064170431427982  0.18330276960054456  1.0000
  N   N6        1.0  0.7097029993067138  0.8393545626699533  0.6833100550860821  1.0000
  N   N7        1.0  0.2902924621559748  0.339355511576521  0.8166967631324342  1.0000
  N   N8        1.0  0.2097058446538469  0.6606382400413652  0.31669986061058353  1.0000
  N   N9        1.0  0.8207846606892204  0.18951899548214604  0.2579549915100828  1.0000
  N   N10       1.0  0.6792194407922948  0.8104758386957583  0.7579566042420114  1.0000
  N   N11       1.0  0.32077504578634114  0.3104798416279876  0.7420420998182069  1.0000
  N   N12       1.0  0.17922013918845886  0.6895167761820814  0.24204844697393926  1.0000
  N   N13       1.0  0.5069326596767425  0.4153584032824043  0.31828916153268244  1.0000
  N   N14       1.0  0.9930748819341559  0.5846463278569374  0.8182942021838855  1.0000
  N   N15       1.0  0.0069326175181459  0.08462846640561139  0.6817139013499516  1.0000
  N   N16       1.0  0.4930691298227643  0.915371155251087  0.18171583649089484  1.0000
  N   N17       1.0  0.0753056901505786  0.4384098760978147  0.004173325716848802  1.0000
  N   N18       1.0  0.4246889235216571  0.5615923397276106  0.5041579816711064  1.0000
  N   N19       1.0  0.5753099484966667  0.06161038340565739  0.9958402214862193  1.0000
  N   N20       1.0  0.9246962631478155  0.9383817196010253  0.49583304899957187  1.0000
  N   N21       1.0  0.6432272780965891  0.252502794201284  0.4365574601833516  1.0000
  N   N22       1.0  0.85680707256882  0.7475174075844251  0.9365621487756999  1.0000
  N   N23       1.0  0.14318927459500227  0.24750928308321818  0.5634440352454391  1.0000
  N   N24       1.0  0.3567941272169293  0.752499952686669  0.06344763104490882  1.0000
  O   O1        1.0  0.8023639095855658  0.1444446711611603  0.43781953904612453  1.0000
  O   O2        1.0  0.6976643255017763  0.8555604918730709  0.9378212186717081  1.0000
  O   O3        1.0  0.3023304817990251  0.3555504689051149  0.5621881467157195  1.0000
  O   O4        1.0  0.19765364989297043  0.6444601882266452  0.062194547237552904  1.0000
  O   O5        1.0  0.633992174707842  0.3056372452003657  0.28288253934193364  1.0000
  O   O6        1.0  0.8660281005853746  0.6943807632063609  0.7828906964109665  1.0000
  O   O7        1.0  0.133970946357401  0.19438480911269806  0.7171139030954452  1.0000
  O   O8        1.0  0.36602422238264143  0.8056223197231701  0.21711074218923446  1.0000
  O   O9        1.0  0.38925641419495344  0.5628964664846591  0.3194538008296704  1.0000
  O   O10       1.0  0.1107658310526034  0.4371008952222511  0.8194545258262027  1.0000
  O   O11       1.0  0.8892495606836731  0.9370874085031173  0.6805578381284719  1.0000
  O   O12       1.0  0.6107513324455454  0.0629124156033285  0.18055606927670453  1.0000
  O   O13       1.0  0.528758400752949  0.37328709127307036  0.4744951351224744  1.0000
  O   O14       1.0  0.9712648347702809  0.6267184241495869  0.9744951643366309  1.0000
  O   O15       1.0  0.0287414249780511  0.12671639707080828  0.5255047062000601  1.0000
  O   O16       1.0  0.4712500141122575  0.8732831569705013  0.025506528258098606  1.0000
  O   O17       1.0  0.7905647274709721  0.10663110137075188  0.5711248101012245  1.0000
  O   O18       1.0  0.7094373337394799  0.8933540538118834  0.07113011809158112  1.0000
  O   O19       1.0  0.2905466029331905  0.393355365536685  0.428876554244866  1.0000
  O   O20       1.0  0.20943523442689838  0.606662398590508  0.928882836515996  1.0000
  O   O21       1.0  0.3746932925823998  0.5729124619025043  0.18298410396864992  1.0000
  O   O22       1.0  0.1253231135953357  0.427092188977518  0.6829911359495358  1.0000
  O   O23       1.0  0.8746598919994141  0.9270827905834194  0.8170254203673937  1.0000
  O   O24       1.0  0.6253383768295393  0.07292837871258229  0.31702340023443304  1.0000
