data_image0
_chemical_formula_structural       Mn4H64C104N20O16
_chemical_formula_sum              "Mn4 H64 C104 N20 O16"
_cell_length_a       14.753310756489826
_cell_length_b       15.678316841412952
_cell_length_c       16.571932965976814
_cell_angle_alpha    93.16360899738254
_cell_angle_beta     109.45256837689212
_cell_angle_gamma    110.72599932176874

_space_group_name_H-M_alt    "P 1"
_space_group_IT_number       1

loop_
  _space_group_symop_operation_xyz
  'x, y, z'

loop_
  _atom_site_type_symbol
  _atom_site_label
  _atom_site_symmetry_multiplicity
  _atom_site_fract_x
  _atom_site_fract_y
  _atom_site_fract_z
  _atom_site_occupancy
  Mn  Mn1       1.0  0.8337389033636385  0.2602308462525045  0.32166818561390204  1.0000
  Mn  Mn2       1.0  0.1662620011010032  0.7397720116688545  0.6783350662520108  1.0000
  Mn  Mn3       1.0  0.6637823528897824  0.6701559907547364  0.7421048176076754  1.0000
  Mn  Mn4       1.0  0.3362199983579401  0.3298419772696874  0.25789441987376455  1.0000
  H   H1        1.0  0.824762723515491  0.39496097008787967  0.46999231646739753  1.0000
  H   H2        1.0  0.17523951875972438  0.6050432720463519  0.5300101928917726  1.0000
  H   H3        1.0  0.9343561030983595  0.47840277898342987  0.6263608035199086  1.0000
  H   H4        1.0  0.06565097079069902  0.5215993827394527  0.37364245534215723  1.0000
  H   H5        1.0  0.11158947595768604  0.472869461999423  0.6962451112490485  1.0000
  H   H6        1.0  0.8884141090648543  0.5271312839037137  0.30375401980864336  1.0000
  H   H7        1.0  0.17101534627407486  0.3850061772424597  0.6106970631388935  1.0000
  H   H8        1.0  0.8289865896931302  0.6149925009270305  0.3893044961652308  1.0000
  H   H9        1.0  0.03913638404403489  0.021532270278228804  0.3153175073282314  1.0000
  H   H10       1.0  0.9608607254021704  0.978468468395505  0.6846802858661649  1.0000
  H   H11       1.0  0.960853153228051  0.9038806792298716  0.17948023722289722  1.0000
  H   H12       1.0  0.03914971239918688  0.09612006542761971  0.8205186781476074  1.0000
  H   H13       1.0  0.8667263475294789  0.09724884527566502  0.03227306505773703  1.0000
  H   H14       1.0  0.13327414659140377  0.9027498423468002  0.9677298728361239  1.0000
  H   H15       1.0  0.9436133971488019  0.21425561306289612  0.16870650538245974  1.0000
  H   H16       1.0  0.05638576731006126  0.7857416584953327  0.8312923484472139  1.0000
  H   H17       1.0  0.7132171010239433  0.6867308398329971  0.9383308400346382  1.0000
  H   H18       1.0  0.2867876135815876  0.3132692170778171  0.061669201494382306  1.0000
  H   H19       1.0  0.7990476098877012  0.804211850205377  0.0768944210593148  1.0000
  H   H20       1.0  0.2009530965350379  0.1957888946965909  0.9231044505710104  1.0000
  H   H21       1.0  0.8972548015163397  0.013140585535907702  0.9293950682350246  1.0000
  H   H22       1.0  0.10274899055913503  0.9868573770169675  0.07060339397805389  1.0000
  H   H23       1.0  0.8042337574404925  0.8872564576170846  0.7968464531359488  1.0000
  H   H24       1.0  0.1957707519931589  0.11274151414427541  0.20315343140704561  1.0000
  H   H25       1.0  0.6713587512784968  0.5228559117491188  0.605465057738286  1.0000
  H   H26       1.0  0.3286397959397576  0.4771448333973325  0.3945337701518455  1.0000
  H   H27       1.0  0.5538983543173117  0.36426874447805363  0.5096357352130456  1.0000
  H   H28       1.0  0.4461017357273035  0.635730609493848  0.4903628879684733  1.0000
  H   H29       1.0  0.37015515246169883  0.2905525888070316  0.5059247625531003  1.0000
  H   H30       1.0  0.6298429762642428  0.709444017891883  0.49407857793590904  1.0000
  H   H31       1.0  0.3118711877618238  0.3742587416747016  0.5959495953807733  1.0000
  H   H32       1.0  0.6881378371041434  0.6257413465985096  0.4040553601995428  1.0000
  H   H33       1.0  0.5583690791364758  0.8323640041722838  0.7935826437206615  1.0000
  H   H34       1.0  0.44162977525226665  0.16763744042062004  0.20641691171524462  1.0000
  H   H35       1.0  0.6363853918702418  0.9718384408081704  0.9104282527535263  1.0000
  H   H36       1.0  0.36361140531262487  0.028161618326215904  0.089571829501935  1.0000
  H   H37       1.0  0.5265108809485  0.8005665006984586  0.08078247276196751  1.0000
  H   H38       1.0  0.47348437238943575  0.1994349535918971  0.9192184175234817  1.0000
  H   H39       1.0  0.4472691199833605  0.6616877667927384  0.9633701417443137  1.0000
  H   H40       1.0  0.5527299394211838  0.3383109024127506  0.03662995148971495  1.0000
  H   H41       1.0  0.7755232680645675  0.0505186452613913  0.29557215940648257  1.0000
  H   H42       1.0  0.22447496994605115  0.9494814084014466  0.7044271475806101  1.0000
  H   H43       1.0  0.688396753346204  0.9073869929004844  0.1798222258508772  1.0000
  H   H44       1.0  0.311598400030256  0.0926158391300262  0.8201768872320943  1.0000
  H   H45       1.0  0.6056991232787252  0.07590138032368543  0.9933949355903877  1.0000
  H   H46       1.0  0.3943043537898844  0.9241056357078394  0.006606864023659391  1.0000
  H   H47       1.0  0.6991935204502367  0.21218443156514874  0.11646846349523082  1.0000
  H   H48       1.0  0.30081263004628755  0.7878205003180838  0.8835334385601571  1.0000
  H   H49       1.0  0.6514916062102715  0.058325107009274305  0.46494173165876884  1.0000
  H   H50       1.0  0.34850673481753336  0.9416735569691426  0.5350575425667046  1.0000
  H   H51       1.0  0.3510132809451036  0.0383009538648125  0.465670820436138  1.0000
  H   H52       1.0  0.648987935626792  0.9616977230590324  0.5343305231808062  1.0000
  H   H53       1.0  0.5165826649561893  0.24355810860615892  0.34873714570466063  1.0000
  H   H54       1.0  0.4834139321476343  0.7564398454716753  0.6512597629579419  1.0000
  H   H55       1.0  0.8450486874304842  0.5283831494106153  0.9411818602291507  1.0000
  H   H56       1.0  0.15494626571084774  0.47161271702647417  0.058814460073058704  1.0000
  H   H57       1.0  0.14444317534849194  0.5287588567217797  0.9562168891404853  1.0000
  H   H58       1.0  0.8555567056060552  0.4712432885632296  0.04378360952837574  1.0000
  H   H59       1.0  0.9709567784104819  0.631136551689643  0.7515355049591862  1.0000
  H   H60       1.0  0.029041256465397666  0.36886140886090163  0.2484624383991588  1.0000
  H   H61       1.0  0.30527753348286507  0.5835486979849592  0.8093586108681878  1.0000
  H   H62       1.0  0.6947231658099041  0.4164520747869532  0.19064448401169903  1.0000
  H   H63       1.0  0.18199941095988947  0.17896735250314316  0.39869074958063083  1.0000
  H   H64       1.0  0.8180007800647787  0.821030619747177  0.6013090474819907  1.0000
  C   C1        1.0  0.9019267091091265  0.3946496638049197  0.5042424007085131  1.0000
  C   C2        1.0  0.09807501980514377  0.6053517977148246  0.49575982744022445  1.0000
  C   C3        1.0  0.9626804192654037  0.4402737591324098  0.590582876611208  1.0000
  C   C4        1.0  0.03732367606237821  0.5597297793294729  0.40941834562100615  1.0000
  C   C5        1.0  0.06091241179954917  0.43701758912902733  0.6294838632414825  1.0000
  C   C6        1.0  0.9390920988087501  0.562985239187782  0.37051503716804757  1.0000
  C   C7        1.0  0.09452015378794698  0.38788798834915644  0.5816361591454611  1.0000
  C   C8        1.0  0.905484047612717  0.6121141484840392  0.4183632203610301  1.0000
  C   C9        1.0  0.02814635791012413  0.3428542027685566  0.49568625275078665  1.0000
  C   C10       1.0  0.9718530086649083  0.6571451658833853  0.5043145680290095  1.0000
  C   C11       1.0  0.053722812997257605  0.2854194348610123  0.4415714760659172  1.0000
  C   C12       1.0  0.946275936181081  0.7145785468422831  0.5584296995864407  1.0000
  C   C13       1.0  0.0334971007788099  0.19065189180720676  0.3332326330270804  1.0000
  C   C14       1.0  0.9665021637976138  0.8093488625477364  0.6667676171929671  1.0000
  C   C15       1.0  0.9937515849906262  0.12486208557230331  0.2512946876276986  1.0000
  C   C16       1.0  0.006250146979354567  0.8751393640031823  0.7487057305569423  1.0000
  C   C17       1.0  0.0003681570308486936  0.0376959267232309  0.25326592333679804  1.0000
  C   C18       1.0  0.9996297727907049  0.9623034314745809  0.746733259425895  1.0000
  C   C19       1.0  0.9561024983452454  0.9716197007548077  0.1767025213601912  1.0000
  C   C20       1.0  0.0438968692483641  0.028379663915707506  0.8232976960982372  1.0000
  C   C21       1.0  0.9064181371560378  0.9914180008893609  0.09600791815146438  1.0000
  C   C22       1.0  0.09358123247470469  0.008581355818314802  0.9039910926642281  1.0000
  C   C23       1.0  0.904599321104378  0.08033728263067988  0.094232659683037  1.0000
  C   C24       1.0  0.09540683331032793  0.9196627727899982  0.9057672098989827  1.0000
  C   C25       1.0  0.9467066798234286  0.14600581427785642  0.17076672669826817  1.0000
  C   C26       1.0  0.053294847993235736  0.8539935461667626  0.8292329311789788  1.0000
  C   C27       1.0  0.7541319676321263  0.7602125643637977  0.9394932636653766  1.0000
  C   C28       1.0  0.2458701796183647  0.23978817506662153  0.06050483269658  1.0000
  C   C29       1.0  0.8036226501084868  0.8259261410226486  0.01654114020680445  1.0000
  C   C30       1.0  0.1963755899392723  0.17407390467734274  0.9834569601375593  1.0000
  C   C31       1.0  0.8557517261701548  0.9199490291892617  0.015542067312353018  1.0000
  C   C32       1.0  0.1442462046699688  0.08005032502712343  0.9844565121289722  1.0000
  C   C33       1.0  0.8557690923768033  0.9420419913875834  0.9345571619167502  1.0000
  C   C34       1.0  0.14423325887091923  0.05795597663684052  0.06544207556468963  1.0000
  C   C35       1.0  0.8045153283063795  0.8719921698274007  0.8603610686535249  1.0000
  C   C36       1.0  0.1954862005288547  0.1280071866357915  0.13963798590236112  1.0000
  C   C37       1.0  0.5910598320349222  0.4868150493980323  0.6010758938245787  1.0000
  C   C38       1.0  0.4089412845754976  0.5131850052659671  0.3989236725898948  1.0000
  C   C39       1.0  0.5259422696719654  0.3992558486391147  0.5486327179206614  1.0000
  C   C40       1.0  0.4740580275816696  0.6007455825194015  0.4513648556041475  1.0000
  C   C41       1.0  0.4241502880501927  0.3582607782433486  0.5466803656509358  1.0000
  C   C42       1.0  0.5758504173539832  0.6417399706400388  0.45331910930075037  1.0000
  C   C43       1.0  0.39115951878244454  0.4050177661761368  0.5972673473994307  1.0000
  C   C44       1.0  0.6088474551451383  0.5949857732869008  0.4027341342601575  1.0000
  C   C45       1.0  0.4617778293969721  0.4921553563202322  0.6489817389023856  1.0000
  C   C46       1.0  0.5382257495141617  0.5078454134714222  0.3510210120834999  1.0000
  C   C47       1.0  0.4367701265793684  0.5452240701732549  0.7074752122935026  1.0000
  C   C48       1.0  0.563232012522576  0.45477670110852847  0.2925277106393835  1.0000
  C   C49       1.0  0.4589734145219636  0.6539406180884271  0.8045766261246357  1.0000
  C   C50       1.0  0.5410272888450719  0.3460601387578066  0.1954240554697862  1.0000
  C   C51       1.0  0.5001354948250452  0.7375111846994714  0.8713530134882038  1.0000
  C   C52       1.0  0.499864488128118  0.2624895748825367  0.1286480557403991  1.0000
  C   C53       1.0  0.5520081519535791  0.8257253116026461  0.8567334873585966  1.0000
  C   C54       1.0  0.4479925524320265  0.17427544126216796  0.14326659091445748  1.0000
  C   C55       1.0  0.5947779632571509  0.9039513900866609  0.9223072069302064  1.0000
  C   C56       1.0  0.4052176023441234  0.09605074374304222  0.07769139429418458  1.0000
  C   C57       1.0  0.5886891673086935  0.8963135983420046  0.0046596545811184165  1.0000
  C   C58       1.0  0.4113054716882446  0.10368645705544571  0.9953397806127885  1.0000
  C   C59       1.0  0.5344429812388893  0.8079797953558127  0.018109680041874274  1.0000
  C   C60       1.0  0.46555309553010465  0.19202026651434786  0.9818907898477679  1.0000
  C   C61       1.0  0.48964179284497067  0.7296497380996101  0.9521349369217519  1.0000
  C   C62       1.0  0.5103571635423876  0.2703503207902997  0.04786518907389587  1.0000
  C   C63       1.0  0.737658366156012  0.052901333827648514  0.22737623086404576  1.0000
  C   C64       1.0  0.26234141076278655  0.9471022051231944  0.7726249038877954  1.0000
  C   C65       1.0  0.6874472354896425  0.9732304595689598  0.16260421945919032  1.0000
  C   C66       1.0  0.31254873826217283  0.0267709919856216  0.8373962831920782  1.0000
  C   C67       1.0  0.6394890682840709  0.9788910932797779  0.07543377531919054  1.0000
  C   C68       1.0  0.3605069095420107  0.0211103423491181  0.9245643140466131  1.0000
  C   C69       1.0  0.6439168344263065  0.06694502894701772  0.05908960989795981  1.0000
  C   C70       1.0  0.3560811955128144  0.933057812047501  0.9409109692551142  1.0000
  C   C71       1.0  0.6955190477664388  0.14329573209059276  0.12768226543991545  1.0000
  C   C72       1.0  0.30448258322349625  0.8567070992064745  0.8723169788636158  1.0000
  C   C73       1.0  0.6828626520953591  0.19393704956050337  0.3771899092594495  1.0000
  C   C74       1.0  0.3171361001386897  0.8060609201985328  0.6228094564288044  1.0000
  C   C75       1.0  0.591806330082065  0.15315508611009684  0.4041441722469942  1.0000
  C   C76       1.0  0.40819334773774324  0.8468449660626121  0.5958549627931051  1.0000
  C   C77       1.0  0.5866147290376348  0.0804477729312154  0.4498741673334835  1.0000
  C   C78       1.0  0.4133829956120393  0.9195495001171352  0.5501248584431836  1.0000
  C   C79       1.0  0.5017940642143941  0.03792194596265829  0.4749390380593469  1.0000
  C   C80       1.0  0.4982057145854526  0.9620767244884763  0.5250612708618619  1.0000
  C   C81       1.0  0.42028418288040836  0.0693321767600708  0.4501699024902877  1.0000
  C   C82       1.0  0.5797163183704512  0.93066648299245  0.5498288121540044  1.0000
  C   C83       1.0  0.4246003465502781  0.1421426105425496  0.4045581736940065  1.0000
  C   C84       1.0  0.5753983047037252  0.8578567409380612  0.5954400181131377  1.0000
  C   C85       1.0  0.5114237571289451  0.18543858700666502  0.3825764408612073  1.0000
  C   C86       1.0  0.48857325321826284  0.8145586648889421  0.6174193526214468  1.0000
  C   C87       1.0  0.33593032327772937  0.1736379901090146  0.380317615207865  1.0000
  C   C88       1.0  0.6640680167315054  0.8263606778508292  0.6196822623389766  1.0000
  C   C89       1.0  0.8079981300462079  0.6065927638835263  0.8032409677801696  1.0000
  C   C90       1.0  0.19200165079077885  0.3934058986047617  0.1967581344983103  1.0000
  C   C91       1.0  0.8998853478774791  0.5816925724323029  0.8437398359263498  1.0000
  C   C92       1.0  0.10011545850674247  0.41830679472951  0.15626081290644583  1.0000
  C   C93       1.0  0.908676316469375  0.5419415873936871  0.9179127653480708  1.0000
  C   C94       1.0  0.09131976625494069  0.45805359005108665  0.0820844654254671  1.0000
  C   C95       1.0  0.9956919032690407  0.5211197789327926  0.9606013546175305  1.0000
  C   C96       1.0  0.004306538738809605  0.4788775033240499  0.039399093489052496  1.0000
  C   C97       1.0  0.07443674464918351  0.5423409016563882  0.9262611190029733  1.0000
  C   C98       1.0  0.925561386269976  0.45766055761655633  0.07374063403121062  1.0000
  C   C99       1.0  0.06639323065792273  0.5818716048192771  0.8518972313242303  1.0000
  C   C100      1.0  0.9336042859202536  0.4181284555607617  0.1481030666184183  1.0000
  C   C101      1.0  0.9784508243987488  0.6010473652745674  0.8099144984633427  1.0000
  C   C102      1.0  0.02154782685525446  0.39895198620604333  0.1900836933438016  1.0000
  C   C103      1.0  0.1524021978766255  0.6034112718053704  0.8176097023596115  1.0000
  C   C104      1.0  0.8475958339435439  0.39658670068943297  0.18239005096283023  1.0000
  N   N1        1.0  0.9859902923916691  0.24034264995939486  0.35815050400833576  1.0000
  N   N2        1.0  0.014009074183370144  0.759656718692547  0.6418503167714534  1.0000
  N   N3        1.0  0.7534964367650615  0.7823795003571021  0.8619473691430815  1.0000
  N   N4        1.0  0.2465058124840454  0.21761985337032294  0.1380512977786168  1.0000
  N   N5        1.0  0.7428632970613266  0.13731333044852792  0.210706830405357  1.0000
  N   N6        1.0  0.2571376114775957  0.8626895115471526  0.7892940081750838  1.0000
  N   N7        1.0  0.5076763857653859  0.6309805263761132  0.7565641474892149  1.0000
  N   N8        1.0  0.4923246257907152  0.3690209259351462  0.24343665832960681  1.0000
  N   N9        1.0  0.9337047692205757  0.3469992035070533  0.4574962387977807  1.0000
  N   N10       1.0  0.06629521271401721  0.6530015600563743  0.5425054337521829  1.0000
  N   N11       1.0  0.5599311129283393  0.5324926454575944  0.6501844304951662  1.0000
  N   N12       1.0  0.44007256899997327  0.4675067346496463  0.3498182877291001  1.0000
  N   N13       1.0  0.3482064549810174  0.5151119861910942  0.7225735133470652  1.0000
  N   N14       1.0  0.6517949647256246  0.4848887838450438  0.27742919389864085  1.0000
  N   N15       1.0  0.36435994870271327  0.5844209934641642  0.7843652382690751  1.0000
  N   N16       1.0  0.6356403414209383  0.4155804655642968  0.21563655850529537  1.0000
  N   N17       1.0  0.1245253174684393  0.20631661696751996  0.3993028957321486  1.0000
  N   N18       1.0  0.8754733317484238  0.7936827424759301  0.6006965027177246  1.0000
  N   N19       1.0  0.1393618756408941  0.26651069695785884  0.4683873331409601  1.0000
  N   N20       1.0  0.8606365673855264  0.7334865813175641  0.531612511644255  1.0000
  O   O1        1.0  0.7511496188932937  0.15844589803734266  0.3931278331672986  1.0000
  O   O2        1.0  0.2488507783218167  0.8415541553810115  0.6068715175599807  1.0000
  O   O3        1.0  0.6895198797346751  0.26260799063392437  0.3376148536859277  1.0000
  O   O4        1.0  0.3104794919332008  0.7373913581109123  0.6623829504870359  1.0000
  O   O5        1.0  0.3466959479800734  0.24469282666638753  0.3443116915891197  1.0000
  O   O6        1.0  0.6532997245565683  0.7553030410163473  0.655684844400277  1.0000
  O   O7        1.0  0.256850890296036  0.1301248626387874  0.3984228501177753  1.0000
  O   O8        1.0  0.74314662628214  0.8698751977412442  0.6015774478248659  1.0000
  O   O9        1.0  0.7366540340944567  0.586978018270962  0.8346852459731482  1.0000
  O   O10       1.0  0.2633454395720348  0.41301994477088033  0.1653131287595571  1.0000
  O   O11       1.0  0.8048640892124225  0.6496051347624245  0.7393364676559671  1.0000
  O   O12       1.0  0.19513569060600133  0.35039353170728305  0.26066323794387364  1.0000
  O   O13       1.0  0.22998142081077316  0.583349446642046  0.8563593200414986  1.0000
  O   O14       1.0  0.7700139384439595  0.4166457454827609  0.14364010833032376  1.0000
  O   O15       1.0  0.14081159928369397  0.639359211723175  0.7493117762579332  1.0000
  O   O16       1.0  0.8591887958942837  0.36064084965801874  0.2506887811120819  1.0000
