data_image0
_chemical_formula_structural       Zn8H40C80O58
_chemical_formula_sum              "Zn8 H40 C80 O58"
_cell_length_a       23.793053954189503
_cell_length_b       23.794358779158074
_cell_length_c       23.79282417304409
_cell_angle_alpha    66.23340070603092
_cell_angle_beta     72.63830152490489
_cell_angle_gamma    107.37085510447943

_space_group_name_H-M_alt    "P 1"
_space_group_IT_number       1

loop_
  _space_group_symop_operation_xyz
  'x, y, z'

loop_
  _atom_site_type_symbol
  _atom_site_label
  _atom_site_symmetry_multiplicity
  _atom_site_fract_x
  _atom_site_fract_y
  _atom_site_fract_z
  _atom_site_occupancy
  Zn  Zn1       1.0  0.05630039388157809  0.9562218171240106  0.4874858132640866  1.0000
  Zn  Zn2       1.0  0.05630026550289098  0.10007855426815841  0.4562261036475306  1.0000
  Zn  Zn3       1.0  0.9436931730799215  0.9874800129998609  0.4562175364680171  1.0000
  Zn  Zn4       1.0  0.943709825386591  0.9562202303956653  0.6000821817252059  1.0000
  Zn  Zn5       1.0  0.9436991595852929  0.543776541056836  0.012514937639764278  1.0000
  Zn  Zn6       1.0  0.0563087768549123  0.5125212714241698  0.04378174681583858  1.0000
  Zn  Zn7       1.0  0.943697437357926  0.39991943584458084  0.043779950683976575  1.0000
  Zn  Zn8       1.0  0.056288606838677306  0.5437753487670279  0.8999196221450986  1.0000
  H   H1        1.0  0.9236342966198163  0.7982100226586227  0.7781508193989736  1.0000
  H   H2        1.0  0.07636765324790659  0.701789079641543  0.7218497824621721  1.0000
  H   H3        1.0  0.9236299595647495  0.7017836567859704  0.8745782895279322  1.0000
  H   H4        1.0  0.07637174851181787  0.7982157212927279  0.6254235357349599  1.0000
  H   H5        1.0  0.9236310365045809  0.12542619958740892  0.29819762277470113  1.0000
  H   H6        1.0  0.07637090937855356  0.3745744882358366  0.20180313828008428  1.0000
  H   H7        1.0  0.9236370884774062  0.22185531110505274  0.20177358507559956  1.0000
  H   H8        1.0  0.07636549504283605  0.2781465385297324  0.2982269409572567  1.0000
  H   H9        1.0  0.9190351886132859  0.6279801316212713  0.08598861500065867  1.0000
  H   H10       1.0  0.08096061630099871  0.5859807443592189  0.12801412086199804  1.0000
  H   H11       1.0  0.08063500577106429  0.7009449546990751  0.2426603836527761  1.0000
  H   H12       1.0  0.9193492668819444  0.7426190400386762  0.20095596892768702  1.0000
  H   H13       1.0  0.9193829943098635  0.7990777132896842  0.25731629612805296  1.0000
  H   H14       1.0  0.08057828157028948  0.7572885881464657  0.29913667186865217  1.0000
  H   H15       1.0  0.08091016880947423  0.8719506426516476  0.41408061075689756  1.0000
  H   H16       1.0  0.9190356612375792  0.9140137920024216  0.37199166139715356  1.0000
  H   H17       1.0  0.08097482320459176  0.4949475146946156  0.7910726991372884  1.0000
  H   H18       1.0  0.9190463597685364  0.2910225899612941  0.9949919180785541  1.0000
  H   H19       1.0  0.9193594199197861  0.176710495658739  0.8796939926677041  1.0000
  H   H20       1.0  0.08064456590244609  0.37966811029558295  0.6767412418777211  1.0000
  H   H21       1.0  0.08058431613740409  0.32328629179202306  0.6203086004572143  1.0000
  H   H22       1.0  0.9193864811564438  0.12030496868287358  0.8232887289984273  1.0000
  H   H23       1.0  0.9190364836331993  0.005025703487525682  0.7089568395538632  1.0000
  H   H24       1.0  0.08091005853071916  0.20896224239469063  0.505022147061453  1.0000
  H   H25       1.0  0.7860224547811541  0.4949687427187971  0.08595866659813098  1.0000
  H   H26       1.0  0.7860123052579695  0.29102911408342896  0.1280225018578207  1.0000
  H   H27       1.0  0.5564018641739281  0.17670786331353144  0.24268324762563498  1.0000
  H   H28       1.0  0.5564119804068355  0.3796920720608839  0.20089621006083994  1.0000
  H   H29       1.0  0.4435957720219221  0.32328632121902257  0.2573398971064832  1.0000
  H   H30       1.0  0.4435902550677254  0.12032867831749171  0.2990119742737535  1.0000
  H   H31       1.0  0.2139786366579486  0.005046591525527312  0.41396883555781017  1.0000
  H   H32       1.0  0.21398627714019366  0.2089697945085619  0.37197493599050796  1.0000
  H   H33       1.0  0.21398673130742898  0.5859407312657225  0.9949652472387172  1.0000
  H   H34       1.0  0.21397677140657823  0.6280118032551274  0.7910162580892575  1.0000
  H   H35       1.0  0.44358643658744484  0.7426796326339158  0.6766994594888373  1.0000
  H   H36       1.0  0.4435956965028252  0.7008810433894794  0.8796946526861047  1.0000
  H   H37       1.0  0.5564163076786526  0.7573433132107823  0.8232939063089687  1.0000
  H   H38       1.0  0.5564027464235649  0.799025003099068  0.6203277622683885  1.0000
  H   H39       1.0  0.7860137812979671  0.9139914842990466  0.5050490405462468  1.0000
  H   H40       1.0  0.7860247600301515  0.871981124285064  0.7089848331443492  1.0000
  C   C1        1.0  0.18400140646919277  0.0920078412514229  0.40798876134179807  1.0000
  C   C2        1.0  0.9999954314431108  0.13908442393250176  0.3609138939677978  1.0000
  C   C3        1.0  0.9999831350163857  0.9079888102615785  0.4080128935350442  1.0000
  C   C4        1.0  0.8160003653339272  0.9079908129166514  0.5920160409406421  1.0000
  C   C5        1.0  7.505415510247267e-06  0.8609138363734986  0.6390886142091787  1.0000
  C   C6        1.0  0.9999873854934546  0.09199900161437594  0.59200406495939  1.0000
  C   C7        1.0  1.4916886933870003e-07  0.5919931982975941  0.09200557483575972  1.0000
  C   C8        1.0  6.316465714851097e-06  0.36091552982689024  0.1390897413956722  1.0000
  C   C9        1.0  0.815998891141909  0.4079939007812145  0.0919927400694929  1.0000
  C   C10       1.0  0.9999972454100217  0.4079848059625065  0.9080117282618331  1.0000
  C   C11       1.0  0.999994927989597  0.6390847010094092  0.8609124882847394  1.0000
  C   C12       1.0  0.183999691590877  0.5919885994748243  0.907987106184464  1.0000
  C   C13       1.0  4.007143978247717e-06  0.8035762941626315  0.6964249896859727  1.0000
  C   C14       1.0  0.999998382405792  0.6964232416110364  0.8035769882749548  1.0000
  C   C15       1.0  0.956797773428903  0.7767177816585547  0.7664836926003249  1.0000
  C   C16       1.0  0.0432063749645477  0.7232835223639569  0.7335162106378873  1.0000
  C   C17       1.0  0.9567946126327341  0.723279071246097  0.819922334330485  1.0000
  C   C18       1.0  0.04320933782490482  0.7767215101641795  0.680077916842471  1.0000
  C   C19       1.0  0.9999980503184671  0.19642108965334878  0.3035768716030702  1.0000
  C   C20       1.0  5.016745575350282e-06  0.30358019697278144  0.19642373400023416  1.0000
  C   C21       1.0  0.9567952016886352  0.1800797379450788  0.27671016691848377  1.0000
  C   C22       1.0  0.04320786540749565  0.3199215582240598  0.2232883333732048  1.0000
  C   C23       1.0  0.9567982747997873  0.23352045277346908  0.22327159187304343  1.0000
  C   C24       1.0  0.04320542993345098  0.2664820052072159  0.27672667339670914  1.0000
  C   C25       1.0  0.9999980352394712  0.6285335950395493  0.12855522629229904  1.0000
  C   C26       1.0  0.9558512077888749  0.6580598014917882  0.1349711111371336  1.0000
  C   C27       1.0  0.9561826904130796  0.6930038837364025  0.17016096761484786  1.0000
  C   C28       1.0  0.9999911263929135  0.6991458729941871  0.19918072006207405  1.0000
  C   C29       1.0  0.04380672891139871  0.6701413524965645  0.19304005062085852  1.0000
  C   C30       1.0  0.04414504053466565  0.6349552923248822  0.1580861080747482  1.0000
  C   C31       1.0  0.9999931890383706  0.7345483934757342  0.23458572483481532  1.0000
  C   C32       1.0  0.9999868918695964  0.7654110179438833  0.2654554602546708  1.0000
  C   C33       1.0  0.9999740496934775  0.8008080360909275  0.3008633549208497  1.0000
  C   C34       1.0  0.9561747738130534  0.8298341411008469  0.30698407553654733  1.0000
  C   C35       1.0  0.9558371436886548  0.8650203666019184  0.34193648653139486  1.0000
  C   C36       1.0  0.9999700873054707  0.8714264179678397  0.37148468635946574  1.0000
  C   C37       1.0  0.044108924422346374  0.8418900079109407  0.36508145497146655  1.0000
  C   C38       1.0  0.04377020855176255  0.8069381491447344  0.32989603469610534  1.0000
  C   C39       1.0  1.1514182347108999e-05  0.37143401552520333  0.8714743447169295  1.0000
  C   C40       1.0  0.044161662666482436  0.4091609041379131  0.7978019379867829  1.0000
  C   C41       1.0  0.04382062648261343  0.3736402513906825  0.7631855822005278  1.0000
  C   C42       1.0  6.354318834672966e-06  0.300819583501152  0.8008541756943187  1.0000
  C   C43       1.0  0.956197600802376  0.2631545092548819  0.8736698709626864  1.0000
  C   C44       1.0  0.9558621336709192  0.29776383271827483  0.9091995416754203  1.0000
  C   C45       1.0  9.946095289555506e-07  0.2654190168416903  0.7654447576828006  1.0000
  C   C46       1.0  0.9999951020548894  0.23456625590195326  0.7345706660171057  1.0000
  C   C47       1.0  0.9999792784051422  0.19916358432751508  0.6991635494354467  1.0000
  C   C48       1.0  0.04377468941247997  0.23683470132689172  0.6263410423624619  1.0000
  C   C49       1.0  0.044110969499726566  0.2022225155743698  0.5908143717569486  1.0000
  C   C50       1.0  0.999971634395081  0.12854823238481575  0.6285444936552196  1.0000
  C   C51       1.0  0.9558367852059889  0.09081779378868081  0.7022208684701993  1.0000
  C   C52       1.0  0.9561770084340607  0.12634130882504016  0.7368342241492414  1.0000
  C   C53       1.0  0.7429081677361538  0.37144742162853117  0.12854108303844902  1.0000
  C   C54       1.0  0.7069674739820611  0.4091810015211479  0.13494761265603475  1.0000
  C   C55       1.0  0.6368279083197378  0.37365432663935394  0.17013282476296604  1.0000
  C   C56       1.0  0.6016744327475365  0.3008339899628966  0.19915366897821224  1.0000
  C   C57       1.0  0.6368201340865696  0.2631593914563768  0.19303083158771267  1.0000
  C   C58       1.0  0.7069599578132255  0.29777139680528836  0.15808252379409993  1.0000
  C   C59       1.0  0.5308634258546474  0.26543785169070583  0.23455354154546634  1.0000
  C   C60       1.0  0.46913755615428704  0.23458508129373026  0.2654045836218868  1.0000
  C   C61       1.0  0.398324833041741  0.1991757284631674  0.30080226167217455  1.0000
  C   C62       1.0  0.3631747117902862  0.23684110428523306  0.306946079740733  1.0000
  C   C63       1.0  0.2930366907113252  0.20222985352558712  0.34189480584321785  1.0000
  C   C64       1.0  0.25709078983442873  0.128558837614122  0.3714175821083144  1.0000
  C   C65       1.0  0.29303462814972636  0.0908321338796441  0.3649955946044231  1.0000
  C   C66       1.0  0.363174919102093  0.12635795661405078  0.3298121861024653  1.0000
  C   C67       1.0  0.2570890068737484  0.6285252869891311  0.8714418343863101  1.0000
  C   C68       1.0  0.2930365311425335  0.6349298473154621  0.9091748059999316  1.0000
  C   C69       1.0  0.3631769390200786  0.6701136441954889  0.8736517147528032  1.0000
  C   C70       1.0  0.3983243027317371  0.6991397528397559  0.8008300480325231  1.0000
  C   C71       1.0  0.36317204979236795  0.6930196726631693  0.763154476379121  1.0000
  C   C72       1.0  0.29303320111677067  0.6580722535105681  0.7977631460302347  1.0000
  C   C73       1.0  0.4691341019450944  0.7345477312835487  0.7654367388104076  1.0000
  C   C74       1.0  0.5308663254186571  0.7654073788088882  0.7345856663915811  1.0000
  C   C75       1.0  0.6016772234139862  0.8008112742350948  0.6991814686628713  1.0000
  C   C76       1.0  0.6368321837015497  0.8069586948424571  0.7368465728131924  1.0000
  C   C77       1.0  0.706969537883985  0.8419087995031945  0.7022389609800614  1.0000
  C   C78       1.0  0.7429114432675518  0.8714346175312501  0.6285664611936924  1.0000
  C   C79       1.0  0.7069633677383603  0.865016420155456  0.5908353168925019  1.0000
  C   C80       1.0  0.6368208702519026  0.8298226701248698  0.626362168737053  1.0000
  O   O1        1.0  0.999999265813784  0.999999339775549  0.500002325471101  1.0000
  O   O2        1.0  0.15250144172545527  0.02547931711907131  0.43383091999903917  1.0000
  O   O3        1.0  0.040415260537876925  0.15713917516725934  0.38327397295957155  1.0000
  O   O4        1.0  0.9592972247999613  0.9338339059395797  0.4136612830948321  1.0000
  O   O5        1.0  0.1525033533408049  0.12703454016255483  0.41366947356526396  1.0000
  O   O6        1.0  0.040681296699460634  0.9136560501211834  0.4338479984061578  1.0000
  O   O7        1.0  0.9595747727319974  0.07631138988978849  0.383272749044572  1.0000
  O   O8        1.0  0.8474943989827108  0.9338273247996512  0.5254891881192163  1.0000
  O   O9        1.0  0.9595948521588722  0.8832721345428425  0.657143018112805  1.0000
  O   O10       1.0  0.8475043278249427  0.9136617243962493  0.6270497370833965  1.0000
  O   O11       1.0  0.04042186769108715  0.8832746994107199  0.5763155020626273  1.0000
  O   O12       1.0  0.040680656115043144  0.12703120600608736  0.525474730128579  1.0000
  O   O13       1.0  0.9593084455465544  0.025468421343369112  0.6270369419340937  1.0000
  O   O14       1.0  7.937148110914916e-07  0.5000010104426879  0.9999983458282171  1.0000
  O   O15       1.0  0.9593031963452953  0.5863245509163447  0.06617066889076291  1.0000
  O   O16       1.0  0.040425084824874995  0.4236898079704687  0.1167317978817124  1.0000
  O   O17       1.0  0.8474959981385622  0.372962498805258  0.08633310304426084  1.0000
  O   O18       1.0  0.0407016033704649  0.5661653024800657  0.08633808526638378  1.0000
  O   O19       1.0  0.8474967238131227  0.47452396578756884  0.06614808469125665  1.0000
  O   O20       1.0  0.9595885756587138  0.34286025710351026  0.11672840290633958  1.0000
  O   O21       1.0  0.9592960523509859  0.3729566514650885  0.9745400199215339  1.0000
  O   O22       1.0  0.04040474510264862  0.6167230450319751  0.8428577548390092  1.0000
  O   O23       1.0  0.04068184722617468  0.4745131195047848  0.8729829754565585  1.0000
  O   O24       1.0  0.959582918313806  0.616727758788933  0.923685850402954  1.0000
  O   O25       1.0  0.1525067352740804  0.5661536866940793  0.9745142579590862  1.0000
  O   O26       1.0  0.1524950276518452  0.5863337328656968  0.8729518382078394  1.0000
  O   O27       1.0  0.9128270406052221  0.6543877660859823  0.10856160336959418  1.0000
  O   O28       1.0  0.08716897343764876  0.6085554420157495  0.15442215519134078  1.0000
  O   O29       1.0  0.08667643060706344  0.6750475626823732  0.2204179357065853  1.0000
  O   O30       1.0  0.9133072178875281  0.7203736382155984  0.17506043783112066  1.0000
  O   O31       1.0  0.9133208804723267  0.8249495902582995  0.27958481034953303  1.0000
  O   O32       1.0  0.08662347499115702  0.7795408260470682  0.3250255873877065  1.0000
  O   O33       1.0  0.08711345737065544  0.8455333959267933  0.39151754253280274  1.0000
  O   O34       1.0  0.9128263808429932  0.8914392143380355  0.3455842767092036  1.0000
  O   O35       1.0  0.08719696814174682  0.4785831525982476  0.7584566491403849  1.0000
  O   O36       1.0  0.9128408446610763  0.25840785878467193  0.9786269001394884  1.0000
  O   O37       1.0  0.9133216751243082  0.19290712020819012  0.9116361293041921  1.0000
  O   O38       1.0  0.086691792654662  0.4116058454384517  0.6929436757698965  1.0000
  O   O39       1.0  0.08663408434453858  0.3070823088001405  0.5883725158245953  1.0000
  O   O40       1.0  0.9133207894830163  0.0883697040011954  0.8070837086280989  1.0000
  O   O41       1.0  0.9128227355548615  0.021386937340814396  0.7415766605269739  1.0000
  O   O42       1.0  0.08711759686447351  0.24158320512014347  0.5213819680614619  1.0000
  O   O43       1.0  0.7370408992937313  0.478606886709102  0.10853218218707635  1.0000
  O   O44       1.0  0.7370295355627546  0.25841269334429756  0.154435035248575  1.0000
  O   O45       1.0  0.6045402806859598  0.19291249778532196  0.2204244297365818  1.0000
  O   O46       1.0  0.6045533463308602  0.41162788163430986  0.1750147971340254  1.0000
  O   O47       1.0  0.3954546087253945  0.30708690413546713  0.2795726592410402  1.0000
  O   O48       1.0  0.39545053756332743  0.08839185843250878  0.32490296241061856  1.0000
  O   O49       1.0  0.26295957725373137  0.02141207060861924  0.3913835506804374  1.0000
  O   O50       1.0  0.26296752979570925  0.2415841750375236  0.3455624117960667  1.0000
  O   O51       1.0  0.2629673958678537  0.6085095010975651  0.9786078223794091  1.0000
  O   O52       1.0  0.2629578600111342  0.6544223393199574  0.7584010247033602  1.0000
  O   O53       1.0  0.39544635468304523  0.720414926286246  0.6929041451577687  1.0000
  O   O54       1.0  0.39545586322516607  0.674997868214277  0.9116260619627993  1.0000
  O   O55       1.0  0.6045552205833572  0.7795769952287729  0.8070977548581267  1.0000
  O   O56       1.0  0.6045414160310398  0.8249190658615433  0.588391935374048  1.0000
  O   O57       1.0  0.7370311812026814  0.8914144804110512  0.5214111745975669  1.0000
  O   O58       1.0  0.7370454302756995  0.8455723583776733  0.7415975707452132  1.0000
