data_image0
_chemical_formula_structural       Cu6H8C16N14
_chemical_formula_sum              "Cu6 H8 C16 N14"
_cell_length_a       7.653683810909224
_cell_length_b       8.81159436132972
_cell_length_c       9.279666556843475
_cell_angle_alpha    62.6034036824937
_cell_angle_beta     65.76834926121445
_cell_angle_gamma    77.63981890181994

_space_group_name_H-M_alt    "P 1"
_space_group_IT_number       1

loop_
  _space_group_symop_operation_xyz
  'x, y, z'

loop_
  _atom_site_type_symbol
  _atom_site_label
  _atom_site_symmetry_multiplicity
  _atom_site_fract_x
  _atom_site_fract_y
  _atom_site_fract_z
  _atom_site_occupancy
  Cu  Cu1       1.0  0.7671163869513365  0.9644772866222836  0.2393931687503606  1.0000
  Cu  Cu2       1.0  0.2328833654874387  0.035515719554972194  0.7606120642251569  1.0000
  Cu  Cu3       1.0  0.644775448418365  0.34526369408860796  0.5324207897827977  1.0000
  Cu  Cu4       1.0  0.35523293590146926  0.6547282024157892  0.4675787237233352  1.0000
  Cu  Cu5       1.0  0.0814834773985211  0.13158348882139134  0.5283587521688489  1.0000
  Cu  Cu6       1.0  0.9185048013938018  0.8684336204640246  0.4716377596583923  1.0000
  H   H1        1.0  0.44681971846327434  0.49390310892114536  0.7785029403864813  1.0000
  H   H2        1.0  0.5531781934073123  0.5060962667127455  0.22149691451995318  1.0000
  H   H3        1.0  0.15784849216524321  0.6188922587037596  0.946036211178921  1.0000
  H   H4        1.0  0.8421574702543639  0.381116232942709  0.053955818933225444  1.0000
  H   H5        1.0  0.007408929955239817  0.455830641210447  0.26803690068702224  1.0000
  H   H6        1.0  0.9925996585629379  0.5441817423965106  0.7319514502570003  1.0000
  H   H7        1.0  0.41677422849925705  0.06116665956671599  0.26759635216175337  1.0000
  H   H8        1.0  0.5832164614434988  0.9388351248579595  0.7324135585652486  1.0000
  C   C1        1.0  0.6283389103481342  0.18829115841504768  0.9235686656247853  1.0000
  C   C2        1.0  0.3716563216015986  0.811705601055749  0.07643648574936171  1.0000
  C   C3        1.0  0.4553049911375383  0.26676159873622396  0.010203374343845445  1.0000
  C   C4        1.0  0.5446928776788839  0.7332390513160475  0.9897991724137186  1.0000
  C   C5        1.0  0.37947781356265153  0.4251329772977641  0.9190911974261341  1.0000
  C   C6        1.0  0.620518709890952  0.574865096460151  0.08090647023220027  1.0000
  C   C7        1.0  0.21860774642701847  0.4950186795805962  0.012333667482764068  1.0000
  C   C8        1.0  0.7813993137252312  0.5049949578822391  0.9876525071577051  1.0000
  C   C9        1.0  0.13531954442577643  0.4057941879002557  0.19168738493235074  1.0000
  C   C10       1.0  0.8646889472159388  0.5942207459224919  0.8083052751623968  1.0000
  C   C11       1.0  0.36403732830575564  0.1849203538128776  0.19105449336621663  1.0000
  C   C12       1.0  0.6359560738439003  0.8150827737355328  0.8089463544903808  1.0000
  C   C13       1.0  0.7326637822122566  0.7268305559704372  0.34194419066324144  1.0000
  C   C14       1.0  0.26733635776900405  0.27315478714831437  0.6580577858239991  1.0000
  C   C15       1.0  0.7404938611846462  0.09800553671738749  0.3599893355518376  1.0000
  C   C16       1.0  0.25952560920252676  0.9019673819327138  0.6400081754762114  1.0000
  N   N1        1.0  0.747878010309016  0.07803756180952348  0.0030522870209281736  1.0000
  N   N2        1.0  0.2521159408866326  0.9219566130928101  0.9969544325632569  1.0000
  N   N3        1.0  0.8903054871326577  0.03596214482814731  0.8830237505752125  1.0000
  N   N4        1.0  0.10968972328082324  0.9640346174006851  0.1169792516958452  1.0000
  N   N5        1.0  0.8605530259625812  0.11781365891579298  0.7346267528456067  1.0000
  N   N6        1.0  0.13944076374787076  0.88218307447643  0.2653778285800355  1.0000
  N   N7        1.0  0.6973729542264309  0.21445827316241406  0.7548222559973468  1.0000
  N   N8        1.0  0.3026195547299509  0.7855358756613525  0.2451838936383339  1.0000
  N   N9        1.0  0.20636093732753844  0.2517676702317573  0.28029228260530914  1.0000
  N   N10       1.0  0.7936406445519711  0.7482420189763986  0.7196996549609198  1.0000
  N   N11       1.0  0.7008544362632138  0.5793813999462003  0.4162496360470627  1.0000
  N   N12       1.0  0.2991562942572941  0.4206194999823865  0.5837462201800393  1.0000
  N   N13       1.0  0.6963811972492592  0.19768680396370533  0.4221797188030295  1.0000
  N   N14       1.0  0.30362366745603003  0.8023178107686988  0.5778251568381023  1.0000
