data_image0
_chemical_formula_structural       Zn8H78C102S6N6O32
_chemical_formula_sum              "Zn8 H78 C102 S6 N6 O32"
_cell_length_a       17.282334565948208
_cell_length_b       17.28234221896888
_cell_length_c       17.279413608108356
_cell_angle_alpha    89.12834813845184
_cell_angle_beta     89.12816592167471
_cell_angle_gamma    88.76907836969464

_space_group_name_H-M_alt    "P 1"
_space_group_IT_number       1

loop_
  _space_group_symop_operation_xyz
  'x, y, z'

loop_
  _atom_site_type_symbol
  _atom_site_label
  _atom_site_symmetry_multiplicity
  _atom_site_fract_x
  _atom_site_fract_y
  _atom_site_fract_z
  _atom_site_occupancy
  Zn  Zn1       1.0  0.4232295459056489  0.4232284701199162  0.6908336273375256  1.0000
  Zn  Zn2       1.0  0.576771024326078  0.5767704800405794  0.30916660862811096  1.0000
  Zn  Zn3       1.0  0.42309990589883734  0.2913775230638009  0.8239714361764073  1.0000
  Zn  Zn4       1.0  0.7086240115732778  0.576898418617567  0.17602742840994523  1.0000
  Zn  Zn5       1.0  0.5769012456247536  0.7086219909547536  0.1760287823273217  1.0000
  Zn  Zn6       1.0  0.2913765611673894  0.42310111021426167  0.8239739561406767  1.0000
  Zn  Zn7       1.0  0.2933609378989103  0.2933611933001359  0.6944313668394883  1.0000
  Zn  Zn8       1.0  0.7066396348066705  0.7066383354947304  0.30556886026553803  1.0000
  H   H1        1.0  0.4382878710485939  0.438287679207093  0.29882173874906937  1.0000
  H   H2        1.0  0.561712704148377  0.5617124282406251  0.7011790582181449  1.0000
  H   H3        1.0  0.4464720688316675  0.44647168569859724  0.44273271063950403  1.0000
  H   H4        1.0  0.5535279201257522  0.5535267006223137  0.5572681215108375  1.0000
  H   H5        1.0  0.26381213069610243  0.05356213334300719  0.6860813482240077  1.0000
  H   H6        1.0  0.9464387829548072  0.7361879643567021  0.31391737433712313  1.0000
  H   H7        1.0  0.7361872819697837  0.946436846444037  0.3139212198354003  1.0000
  H   H8        1.0  0.0535606394135115  0.26381332976451677  0.68607879232912  1.0000
  H   H9        1.0  0.46091811286353135  0.9097970307307293  0.8425691940068705  1.0000
  H   H10       1.0  0.0902036276266145  0.5390800281106463  0.1574294494843187  1.0000
  H   H11       1.0  0.5390818810240461  0.09020251284044888  0.15743104169946062  1.0000
  H   H12       1.0  0.9097969425875689  0.4609189220313609  0.8425702077585271  1.0000
  H   H13       1.0  0.4604704150435738  0.05469138166245808  0.8363435673566998  1.0000
  H   H14       1.0  0.9453091445869929  0.5395287034865673  0.16365544487319283  1.0000
  H   H15       1.0  0.5395290025524774  0.9453087553748457  0.1636584042586975  1.0000
  H   H16       1.0  0.054691428048414495  0.4604708252343669  0.8363424673406571  1.0000
  H   H17       1.0  0.2723416704146188  0.2723413448363702  0.46647494626235203  1.0000
  H   H18       1.0  0.7276571682757051  0.7276588068848326  0.5335241403403687  1.0000
  H   H19       1.0  0.2574045601655612  0.43503185233548436  0.06208109826464891  1.0000
  H   H20       1.0  0.5649662466073834  0.7425953432876468  0.9379194423709979  1.0000
  H   H21       1.0  0.7425965888490891  0.5649670830117302  0.9379179716541091  1.0000
  H   H22       1.0  0.43503548373420386  0.25740415595459604  0.06208076753144101  1.0000
  H   H23       1.0  0.2588134729555662  0.43696992469423884  0.20669411476492172  1.0000
  H   H24       1.0  0.563030495869171  0.7411857610483777  0.7933058227904298  1.0000
  H   H25       1.0  0.7411859470441584  0.5630307909035039  0.793305533098689  1.0000
  H   H26       1.0  0.43697065812826713  0.25881433160454737  0.20669438685269637  1.0000
  H   H27       1.0  0.2798953332109805  0.8049587141538053  0.8626862832603025  1.0000
  H   H28       1.0  0.1950419854540471  0.7201054755904719  0.13731243966754653  1.0000
  H   H29       1.0  0.7201046630978141  0.19504140799629244  0.1373122074170325  1.0000
  H   H30       1.0  0.8049585922343212  0.2798952105100979  0.8626889271618481  1.0000
  H   H31       1.0  0.28026454118639776  0.6600826406199616  0.8606227630149378  1.0000
  H   H32       1.0  0.3399194469116509  0.7197369476873873  0.13937627690367554  1.0000
  H   H33       1.0  0.7197354551048605  0.3399174815116552  0.13937514893960673  1.0000
  H   H34       1.0  0.6600805593451753  0.2802654890556439  0.8606239144996054  1.0000
  H   H35       1.0  0.4455969223878428  0.6619032803119183  0.6723660990386976  1.0000
  H   H36       1.0  0.3380969018043629  0.5544030048009673  0.32763389204676946  1.0000
  H   H37       1.0  0.5544030689907943  0.3380956845879198  0.32763298808265523  1.0000
  H   H38       1.0  0.6619042546669218  0.4455976664863284  0.6723663087357467  1.0000
  H   H39       1.0  0.4463947517874304  0.8063734205906953  0.6748080718265826  1.0000
  H   H40       1.0  0.1936277642476369  0.5536054370671122  0.32518981278987985  1.0000
  H   H41       1.0  0.5536058208655206  0.19362610814872028  0.3251904191100651  1.0000
  H   H42       1.0  0.8063745473682714  0.4463946260147083  0.6748098009278535  1.0000
  H   H43       1.0  0.0606393957705151  0.8115182878973285  0.7403016702652679  1.0000
  H   H44       1.0  0.1884837566220909  0.9393603150019844  0.25969972168255856  1.0000
  H   H45       1.0  0.939360024264296  0.18848242773737667  0.2596991350439312  1.0000
  H   H46       1.0  0.8115168210662773  0.06064037109858589  0.7403016451468434  1.0000
  H   H47       1.0  0.0585990620003898  0.7619845682011359  0.649303119348943  1.0000
  H   H48       1.0  0.2380156410337193  0.9414008945343394  0.3506988002899262  1.0000
  H   H49       1.0  0.9413997767425641  0.23801558357551753  0.35069770342215634  1.0000
  H   H50       1.0  0.7619837740884775  0.058598663868586684  0.6493031801860737  1.0000
  H   H51       1.0  0.10728481359857507  0.718785887947398  0.7303615977928645  1.0000
  H   H52       1.0  0.2812153485873238  0.8927160669043631  0.26964014646501516  1.0000
  H   H53       1.0  0.8927146039623821  0.28121424905293674  0.26963921637694455  1.0000
  H   H54       1.0  0.7187840714650306  0.10728464874882344  0.7303612375669745  1.0000
  H   H55       1.0  0.1700044997556844  0.7688848138219057  0.5633758197011716  1.0000
  H   H56       1.0  0.23111571965532107  0.8299941762614721  0.4366247914421494  1.0000
  H   H57       1.0  0.8299949153314259  0.23111474454405814  0.4366250033292475  1.0000
  H   H58       1.0  0.7688842692845483  0.17000421004095756  0.5633754619853947  1.0000
  H   H59       1.0  0.2585639967382037  0.8062515486450579  0.5983277853964354  1.0000
  H   H60       1.0  0.19374953539128373  0.7414356729275723  0.40167272106530316  1.0000
  H   H61       1.0  0.7414354208403041  0.1937485883737651  0.4016736074961714  1.0000
  H   H62       1.0  0.8062498796782904  0.25856388541991027  0.5983275232423183  1.0000
  H   H63       1.0  0.22490706504557073  0.7151162982429398  0.6334516761015153  1.0000
  H   H64       1.0  0.2848844418505365  0.7750920466016138  0.3665481742934135  1.0000
  H   H65       1.0  0.7750923549892407  0.2848844173917726  0.36654912920768373  1.0000
  H   H66       1.0  0.7151143919096298  0.22490694786932863  0.6334515087533178  1.0000
  H   H67       1.0  0.1366921967283119  0.06363079284948718  0.31834857250765947  1.0000
  H   H68       1.0  0.9363680526001231  0.8633087959268051  0.6816486492051724  1.0000
  H   H69       1.0  0.8633077971241719  0.9363687506847215  0.6816505057530763  1.0000
  H   H70       1.0  0.06363194374375782  0.13669132626025518  0.31835099891775087  1.0000
  H   H71       1.0  0.093139062728568  0.09313985797868438  0.22876285985251602  1.0000
  H   H72       1.0  0.9068603572536134  0.9068608576005768  0.7712362092883042  1.0000
  H   H73       1.0  0.1824431195762841  0.2558024979186796  0.1818475669230537  1.0000
  H   H74       1.0  0.7441968752924738  0.8175551584906485  0.8181528138109827  1.0000
  H   H75       1.0  0.8175568742762067  0.7441970456155288  0.818151511337689  1.0000
  H   H76       1.0  0.2558031185775532  0.1824443850620412  0.1818468431725506  1.0000
  H   H77       1.0  0.1601277029008088  0.16012682524524988  0.1528493619379674  1.0000
  H   H78       1.0  0.8398722909341315  0.8398727182704772  0.8471491375999778  1.0000
  C   C1        1.0  0.34761893551975487  0.3476239299692665  0.9674386802054687  1.0000
  C   C2        1.0  0.6523781791208877  0.652379159289687  0.032561545343682496  1.0000
  C   C3        1.0  0.3458849070434625  0.3458842751132565  0.05372221354375031  1.0000
  C   C4        1.0  0.6541156632233509  0.6541146750842015  0.9462791798674747  1.0000
  C   C5        1.0  0.35128866938826764  0.35128794449934014  0.30158898101307596  1.0000
  C   C6        1.0  0.648710743189902  0.6487110351952907  0.6984106934323577  1.0000
  C   C7        1.0  0.3476786872169413  0.34767768157467316  0.21589119057288295  1.0000
  C   C8        1.0  0.6523218879624935  0.6523224258545637  0.7841090276715407  1.0000
  C   C9        1.0  0.3608922861035778  0.5665348655872149  0.7634720046207946  1.0000
  C   C10       1.0  0.4334664034835782  0.6391069122503694  0.23652970027151107  1.0000
  C   C11       1.0  0.6391036561983016  0.4334647815659877  0.23653292107695026  1.0000
  C   C12       1.0  0.5665353317530871  0.360893744205164  0.7634687557413288  1.0000
  C   C13       1.0  0.40208609671493173  0.4020855382556617  0.336058965070997  1.0000
  C   C14       1.0  0.5979144784995826  0.5979145692105375  0.6639424106190078  1.0000
  C   C15       1.0  0.40682376180545526  0.4068224948889706  0.4163026353980542  1.0000
  C   C16       1.0  0.5931756408246898  0.593174170212734  0.5836953383214336  1.0000
  C   C17       1.0  0.36218110920873403  0.3621804804607294  0.5490753865188226  1.0000
  C   C18       1.0  0.6378159707804657  0.6378145078985468  0.4509243843560569  1.0000
  C   C19       1.0  0.3627633114996627  0.06280174728215118  0.7607657106454512  1.0000
  C   C20       1.0  0.9371988042339441  0.6372360660927681  0.2392346224049434  1.0000
  C   C21       1.0  0.637236101253947  0.937197232597306  0.23923975102792386  1.0000
  C   C22       1.0  0.0628017683488338  0.3627634625727224  0.7607615536405278  1.0000
  C   C23       1.0  0.3071039687365484  0.0224966020350692  0.7203381541770357  1.0000
  C   C24       1.0  0.9775047119375627  0.6928953847522975  0.2796604557786253  1.0000
  C   C25       1.0  0.6928925473654599  0.9775018729991553  0.2796644657494625  1.0000
  C   C26       1.0  0.022495875505853705  0.3071076157378982  0.7203362458259904  1.0000
  C   C27       1.0  0.3076246591731433  0.9423398417096746  0.7250633936419604  1.0000
  C   C28       1.0  0.05766204203258948  0.6923748449001079  0.27493492618569354  1.0000
  C   C29       1.0  0.6923747584404439  0.0576602953461105  0.2749391566962275  1.0000
  C   C30       1.0  0.9423385379892862  0.3076264196869687  0.7250618020007523  1.0000
  C   C31       1.0  0.3628088349222409  0.9004676537627317  0.7683542808935045  1.0000
  C   C32       1.0  0.09953376829094651  0.6371893401839016  0.23164391241456175  1.0000
  C   C33       1.0  0.6371905776910224  0.09953132596886856  0.23164655099751746  1.0000
  C   C34       1.0  0.9004668093272485  0.3628113458427434  0.7683551395236634  1.0000
  C   C35       1.0  0.4178484313692651  0.9417770292234446  0.8085832609486021  1.0000
  C   C36       1.0  0.0582226849076761  0.5821500107161554  0.19141609001911772  1.0000
  C   C37       1.0  0.582150988718176  0.058223686466710896  0.19141928052897583  1.0000
  C   C38       1.0  0.9417773064534244  0.4178489541651941  0.8085824183794373  1.0000
  C   C39       1.0  0.4178703764564561  0.022247523409625096  0.8051806563755052  1.0000
  C   C40       1.0  0.9777532940588782  0.5821281319505331  0.19481895553629872  1.0000
  C   C41       1.0  0.5821261445932535  0.9777521088933412  0.19482194582977294  1.0000
  C   C42       1.0  0.022246707197616896  0.41787314746830617  0.8051795174198234  1.0000
  C   C43       1.0  0.3628795190047285  0.1490321661852505  0.7573489298903411  1.0000
  C   C44       1.0  0.8509682299794008  0.6371197817202015  0.2426509644594789  1.0000
  C   C45       1.0  0.6371169995009609  0.8509668874094132  0.2426513662843704  1.0000
  C   C46       1.0  0.1490317837516031  0.36288439098138525  0.757350936530358  1.0000
  C   C47       1.0  0.35976697860616713  0.3597653526858764  0.4627907710668568  1.0000
  C   C48       1.0  0.6402353280620332  0.6402335531272028  0.537208860372104  1.0000
  C   C49       1.0  0.3043086718881867  0.30430816982902786  0.34948685102418864  1.0000
  C   C50       1.0  0.6956913244556944  0.695691952358032  0.6505127970987347  1.0000
  C   C51       1.0  0.308431252664164  0.3084312021102988  0.42963988325656294  1.0000
  C   C52       1.0  0.6915669998041452  0.6915672285025776  0.5703598172520759  1.0000
  C   C53       1.0  0.2958802791720814  0.3961679896739909  0.09446479048603612  1.0000
  C   C54       1.0  0.6038295201660019  0.7041193488007379  0.9055362194819879  1.0000
  C   C55       1.0  0.7041202885857986  0.603830381852127  0.9055354543402104  1.0000
  C   C56       1.0  0.3961716313751252  0.2958801652362979  0.0944645777445459  1.0000
  C   C57       1.0  0.29676833219451737  0.396965074333032  0.17497481363322723  1.0000
  C   C58       1.0  0.6030336970691152  0.703230790257372  0.8250267633840168  1.0000
  C   C59       1.0  0.7032316617106034  0.6030344692566273  0.8250260007958873  1.0000
  C   C60       1.0  0.39696630178369935  0.2967699106010286  0.17497403332388473  1.0000
  C   C61       1.0  0.3167886165681679  0.7732988657476553  0.8217879117376655  1.0000
  C   C62       1.0  0.22670253001348328  0.6832115680780716  0.17821012271863884  1.0000
  C   C63       1.0  0.68321311368571  0.22670063340217436  0.17820940455080603  1.0000
  C   C64       1.0  0.7732974688042445  0.3167891327433594  0.8217895165436815  1.0000
  C   C65       1.0  0.31642472789977216  0.6928083455463321  0.8202515706029914  1.0000
  C   C66       1.0  0.30719296783570377  0.6835758204433091  0.17974749001862023  1.0000
  C   C67       1.0  0.6835746920999526  0.30719237005141037  0.1797480772606121  1.0000
  C   C68       1.0  0.6928081936008255  0.3164260081312094  0.8202532717654735  1.0000
  C   C69       1.0  0.3625212819436285  0.6526273275020883  0.7660900194170638  1.0000
  C   C70       1.0  0.34737390323677897  0.6374788191562782  0.2339089125436544  1.0000
  C   C71       1.0  0.6374787094174721  0.34737163737926824  0.23390848898149133  1.0000
  C   C72       1.0  0.6526272630948213  0.36252416663153036  0.7660900953508404  1.0000
  C   C73       1.0  0.4097067783299054  0.6936793230824208  0.7139210355997961  1.0000
  C   C74       1.0  0.3063214854380192  0.590294625099105  0.2860772944975878  1.0000
  C   C75       1.0  0.5902932204702792  0.306321377720529  0.28607802493972667  1.0000
  C   C76       1.0  0.6936796784723641  0.4097077821097841  0.7139234584258959  1.0000
  C   C77       1.0  0.4101584694629993  0.7741247838118709  0.7156280269695118  1.0000
  C   C78       1.0  0.22587755067385734  0.5898412179760439  0.28436985408102805  1.0000
  C   C79       1.0  0.5898426795165648  0.2258741514983811  0.2843698855036579  1.0000
  C   C80       1.0  0.7741241846154311  0.41015943853493997  0.7156303381001906  1.0000
  C   C81       1.0  0.36343437345362156  0.8145729559527553  0.7691596360308993  1.0000
  C   C82       1.0  0.1854278183662217  0.6365648870390925  0.2308378347564215  1.0000
  C   C83       1.0  0.636566201725806  0.18542715147647468  0.23084058221351708  1.0000
  C   C84       1.0  0.8145727543218158  0.36343464173728524  0.7691618136258144  1.0000
  C   C85       1.0  0.19055708429296203  0.8724537898058243  0.7162795511217938  1.0000
  C   C86       1.0  0.12754759529553183  0.8094428977341293  0.28372000124637253  1.0000
  C   C87       1.0  0.8094423357243058  0.12754692581040666  0.28372067546460766  1.0000
  C   C88       1.0  0.8724518271780469  0.19055839649799106  0.7162796377566282  1.0000
  C   C89       1.0  0.0932043149967399  0.7740135890508455  0.7004594966907192  1.0000
  C   C90       1.0  0.2259874857836977  0.9067957508896994  0.2995417935767223  1.0000
  C   C91       1.0  0.9067951050380714  0.2259871265838597  0.2995413086184797  1.0000
  C   C92       1.0  0.7740119342686569  0.09320496476349399  0.7004595904552743  1.0000
  C   C93       1.0  0.20709878477441632  0.773839358810747  0.614165174770207  1.0000
  C   C94       1.0  0.22616128670771465  0.7929006202292682  0.3858353726111332  1.0000
  C   C95       1.0  0.7929000539685375  0.2261607929658993  0.38583564800089937  1.0000
  C   C96       1.0  0.7738381283618522  0.20709893811821437  0.614164871696488  1.0000
  C   C97       1.0  0.20375725813642023  0.20375522987002626  0.3345261713191335  1.0000
  C   C98       1.0  0.7962427382074608  0.7962448923170341  0.6654734768037899  1.0000
  C   C99       1.0  0.11294910545430527  0.11294943377897937  0.28485161373352247  1.0000
  C   C100      1.0  0.8870503120364859  0.8870507031474303  0.7151468855451102  1.0000
  C   C101      1.0  0.19385054586554423  0.19385081895775605  0.19284601366008763  1.0000
  C   C102      1.0  0.8061494479869467  0.8061487245764526  0.8071530646006482  1.0000
  S   S1        1.0  0.15202307031635337  0.9104339157073439  0.7956321855365688  1.0000
  S   S2        1.0  0.08956747409577301  0.8479789182635996  0.20436861487775812  1.0000
  S   S3        1.0  0.8479769285364612  0.08956678515105657  0.20436861117133281  1.0000
  S   S4        1.0  0.9104325321610531  0.15202351847942444  0.7956315765255227  1.0000
  S   S5        1.0  0.18015416615138244  0.1801520642353722  0.4250708064460582  1.0000
  S   S6        1.0  0.8198458277011086  0.8198474792988364  0.5749282718146774  1.0000
  N   N1        1.0  0.16365998196601336  0.8123659939009186  0.6760721026452431  1.0000
  N   N2        1.0  0.1876353537470976  0.8363399839291218  0.32392797665972495  1.0000
  N   N3        1.0  0.8363394355774003  0.1876341430809347  0.3239281328017683  1.0000
  N   N4        1.0  0.812364066252627  0.16366073166862088  0.6760716712038857  1.0000
  N   N5        1.0  0.17150169229319093  0.1714999732026357  0.27204417324917785  1.0000
  N   N6        1.0  0.8284983015768432  0.8284995703500541  0.7279554837343484  1.0000
  O   O1        1.0  0.3583946108798984  0.35839628399386214  0.7579988407114159  1.0000
  O   O2        1.0  0.6416059593693718  0.6416026661851075  0.2420019739770184  1.0000
  O   O3        1.0  0.4042145226601406  0.533567066738449  0.7126178890134156  1.0000
  O   O4        1.0  0.4664323678254476  0.5957894458076111  0.28738422893223975  1.0000
  O   O5        1.0  0.5957889366437498  0.46643065219781477  0.2873800067757841  1.0000
  O   O6        1.0  0.5335687935409152  0.40421238269297527  0.7126142179606775  1.0000
  O   O7        1.0  0.301417805277616  0.3956461058632428  0.9339480453986654  1.0000
  O   O8        1.0  0.6043559064893245  0.6985790862401016  0.066055242923639  1.0000
  O   O9        1.0  0.6985833388945935  0.604351672326125  0.0660545145780702  1.0000
  O   O10       1.0  0.3956463977050291  0.30141924093860695  0.9339443973759246  1.0000
  O   O11       1.0  0.40901814466673864  0.4090188978127501  0.579473860717144  1.0000
  O   O12       1.0  0.5909812729117689  0.5909812392060658  0.42052753217545563  1.0000
  O   O13       1.0  0.31599339674101395  0.5328253447991287  0.8119975163436594  1.0000
  O   O14       1.0  0.46717763131608325  0.6840070124430893  0.18800126817208  1.0000
  O   O15       1.0  0.6840100798622828  0.46717642455924835  0.18799973869848693  1.0000
  O   O16       1.0  0.532823520102248  0.3159925014645708  0.8119954779948914  1.0000
  O   O17       1.0  0.4133645846064198  0.18210547717442432  0.7979841792484166  1.0000
  O   O18       1.0  0.8178955654105167  0.5866345481866161  0.20201568020875274  1.0000
  O   O19       1.0  0.5866371482441082  0.8178946007391587  0.20201717923900023  1.0000
  O   O20       1.0  0.18210326584071623  0.4133638676129933  0.7979828542530002  1.0000
  O   O21       1.0  0.3127159265686076  0.18276644084586013  0.7143110138010941  1.0000
  O   O22       1.0  0.817234359798995  0.6872839270803298  0.2856889989188361  1.0000
  O   O23       1.0  0.6872858038080665  0.8172330584333448  0.2856903535469256  1.0000
  O   O24       1.0  0.1827667891981122  0.31271500824840354  0.7143094922771241  1.0000
  O   O25       1.0  0.3168338276668551  0.31683282945969893  0.5856852438168475  1.0000
  O   O26       1.0  0.6831673163825515  0.6831649486003001  0.41431326510033273  1.0000
  O   O27       1.0  0.2563849268487601  0.9010820434091399  0.6803866438370251  1.0000
  O   O28       1.0  0.0989193846058498  0.7436142258531361  0.3196117041180955  1.0000
  O   O29       1.0  0.7436150670563607  0.09891750018051226  0.31961417059209657  1.0000
  O   O30       1.0  0.9010794590146317  0.2563870831183194  0.6803867860406144  1.0000
  O   O31       1.0  0.2567870356452318  0.2567854877840006  0.30810135334889577  1.0000
  O   O32       1.0  0.7432123818806458  0.7432146491793714  0.6918983033753251  1.0000
