data_image0
_chemical_formula_structural       Zn2H46C68S2N6O20
_chemical_formula_sum              "Zn2 H46 C68 S2 N6 O20"
_cell_length_a       8.125922030054381
_cell_length_b       10.093083353122147
_cell_length_c       19.0655
_cell_angle_alpha    102.67738176763804
_cell_angle_beta     97.3392760560009
_cell_angle_gamma    93.1291485710468

_space_group_name_H-M_alt    "P 1"
_space_group_IT_number       1

loop_
  _space_group_symop_operation_xyz
  'x, y, z'

loop_
  _atom_site_type_symbol
  _atom_site_label
  _atom_site_symmetry_multiplicity
  _atom_site_fract_x
  _atom_site_fract_y
  _atom_site_fract_z
  _atom_site_occupancy
  Zn  Zn1       1.0  0.5190020565539015  0.5760699836511733  0.2755429132887173  1.0000
  Zn  Zn2       1.0  0.4810005297024701  0.4239315548158729  0.7244585077286844  1.0000
  H   H1        1.0  0.34547795219974387  0.8295307469653821  0.4430155821082451  1.0000
  H   H2        1.0  0.6545233932613499  0.1704707915016641  0.5569847223374609  1.0000
  H   H3        1.0  0.0787508478692089  0.4135606112970081  0.8849707361732231  1.0000
  H   H4        1.0  0.9212516320524599  0.5864399079126841  0.11503265866733159  1.0000
  H   H5        1.0  0.9035927432807682  0.8104665575229433  0.44876568941437267  1.0000
  H   H6        1.0  0.0964106584320703  0.1895309039147008  0.5512358268378179  1.0000
  H   H7        1.0  0.06320837347590921  0.9197921007006329  0.5696980578198065  1.0000
  H   H8        1.0  0.9367978288316081  0.0802084185090592  0.430303441659639  1.0000
  H   H9        1.0  0.6009291519215125  0.9487746833992858  0.6592983464719495  1.0000
  H   H10       1.0  0.3990765539336394  0.051232970611842205  0.3407023813794297  1.0000
  H   H11       1.0  0.240065442157558  0.8861841281554348  0.7173769592590489  1.0000
  H   H12       1.0  0.7599345561735475  0.11381639105425731  0.2826242024381145  1.0000
  H   H13       1.0  0.8273896580667852  0.7104814886849979  0.8542461210906751  1.0000
  H   H14       1.0  0.17260495174438967  0.2895149534953063  0.1457521755209115  1.0000
  H   H15       1.0  0.7560143637684148  0.8913120118746889  0.7893412462125724  1.0000
  H   H16       1.0  0.2439803523774629  0.10868544956296232  0.21065769911395194  1.0000
  H   H17       1.0  0.3052150491946009  0.5271476694478991  0.13549231264232733  1.0000
  H   H18       1.0  0.6947794542818713  0.47284775347505104  0.8645084823000316  1.0000
  H   H19       1.0  0.21951271665866304  0.6571376361048423  0.0417103622651283  1.0000
  H   H20       1.0  0.7804843747430752  0.342858806075462  0.9582896429822229  1.0000
  H   H21       1.0  0.5358439458760387  0.002904883442632  0.175839235864828  1.0000
  H   H22       1.0  0.46415810870681906  0.9970915587376724  0.8241605151007292  1.0000
  H   H23       1.0  0.6154872818205419  0.8572412964933633  0.26163145750905403  1.0000
  H   H24       1.0  0.38450846245121545  0.1427541264295868  0.7383678314669027  1.0000
  H   H25       1.0  0.22834789945029138  0.8600116379660179  0.9996666244677428  1.0000
  H   H26       1.0  0.7716551832584457  0.1399827656995853  0.00033189662439529256  1.0000
  H   H27       1.0  0.4330809481540356  0.11101343334645719  0.1030571082830249  1.0000
  H   H28       1.0  0.5669233753499867  0.888980970319146  0.8969414803655695  1.0000
  H   H29       1.0  0.4578371958744967  0.3103709973560314  0.059331677747365995  1.0000
  H   H30       1.0  0.5421690064330207  0.6896295218536608  0.940667199193989  1.0000
  H   H31       1.0  0.33343816124780545  0.4602466748781282  0.9800365660619121  1.0000
  H   H32       1.0  0.6665604899533264  0.539752825074217  0.019963879363864078  1.0000
  H   H33       1.0  0.9830192673597368  0.1514677575001286  0.8657329876706044  1.0000
  H   H34       1.0  0.016978249380812792  0.8485327617095706  0.1342675144060266  1.0000
  H   H35       1.0  0.0902181121088574  0.987585964707506  0.9370271756423635  1.0000
  H   H36       1.0  0.9097831270175333  0.0124145545021861  0.06297405361126349  1.0000
  H   H37       1.0  0.1557433443304177  0.6294382984076847  0.2659446912854193  1.0000
  H   H38       1.0  0.8442594545953597  0.3705652785740554  0.734054355608535  1.0000
  H   H39       1.0  0.9411898976585675  0.6148527257536429  0.3466558658595886  1.0000
  H   H40       1.0  0.058808966211962896  0.3851488127133962  0.653342729950353  1.0000
  H   H41       1.0  0.2676448075252651  0.3777041570414852  0.4575508635809271  1.0000
  H   H42       1.0  0.7323515747547091  0.622297381425561  0.5424486461313408  1.0000
  H   H43       1.0  0.4603110466589229  0.3882228928758451  0.3673762056021985  1.0000
  H   H44       1.0  0.539690192467468  0.611777626333847  0.6326234501285697  1.0000
  H   H45       1.0  0.8537948008654368  0.5376195194442417  0.4495566895916809  1.0000
  H   H46       1.0  0.1462089198515173  0.4623809997654504  0.550442052236761  1.0000
  C   C1        1.0  0.582754069812836  0.7632729037823794  0.4080292911100117  1.0000
  C   C2        1.0  0.4172497572388139  0.2367286346846669  0.5919716729562268  1.0000
  C   C3        1.0  0.6633680209957262  0.822842380245895  0.48482346806262205  1.0000
  C   C4        1.0  0.3366321900047851  0.17716017747849833  0.5151784665568044  1.0000
  C   C5        1.0  0.8381963076519623  0.8425639906779736  0.49522357509297166  1.0000
  C   C6        1.0  0.1618062786044163  0.1574375477890655  0.5047778459244299  1.0000
  C   C7        1.0  0.9279054586237552  0.9043829681091681  0.5625804926898468  1.0000
  C   C8        1.0  0.0720985810973076  0.0956206088725651  0.437420719791028  1.0000
  C   C9        1.0  0.83957846663602  0.9451563198128524  0.6207466796121679  1.0000
  C   C10       1.0  0.1604246512938658  0.0548503149409285  0.37925326441136065  1.0000
  C   C11       1.0  0.6677188345739822  0.9198512176268352  0.6131062136172573  1.0000
  C   C12       1.0  0.33228304256061847  0.08015541712694581  0.3868941873574343  1.0000
  C   C13       1.0  0.5758632536653535  0.8596987259600938  0.5451226796996238  1.0000
  C   C14       1.0  0.42413717000456336  0.1403058702789934  0.45487897882681955  1.0000
  C   C15       1.0  0.390355229712803  0.838072123544059  0.5473461258201695  1.0000
  C   C16       1.0  0.6096451939571209  0.1619324726950282  0.4526550081986612  1.0000
  C   C17       1.0  0.9976117260569453  0.9033565759594424  0.7527378205657486  1.0000
  C   C18       1.0  0.002383911880109199  0.0966378277061608  0.24725924617241904  1.0000
  C   C19       1.0  0.1533299944831441  0.8519177153632428  0.7501473309618804  1.0000
  C   C20       1.0  0.8466645089933279  0.1480777075597075  0.24985031693476864  1.0000
  C   C21       1.0  0.1928436828048135  0.7504241456498235  0.7870089214204796  1.0000
  C   C22       1.0  0.8071535149316276  0.2495733157878277  0.21299015901896473  1.0000
  C   C23       1.0  0.0762303501853197  0.7008433911995553  0.825784047078038  1.0000
  C   C24       1.0  0.923767875677001  0.2991520317233949  0.1742143279955997  1.0000
  C   C25       1.0  0.9193984705217275  0.7512059160359641  0.825954453236875  1.0000
  C   C26       1.0  0.0805972737500298  0.24878950688699322  0.1740427377086107  1.0000
  C   C27       1.0  0.8788419351867985  0.8533242905038848  0.7895162163698118  1.0000
  C   C28       1.0  0.1211535964155459  0.1466690939043716  0.2104817751762766  1.0000
  C   C29       1.0  0.35204951114268823  0.6832082005594273  0.7777233740528473  1.0000
  C   C30       1.0  0.6479466584678732  0.3167912993929178  0.2222764117523965  1.0000
  C   C31       1.0  0.12689032659590543  0.5987454018786025  0.8692025860655122  1.0000
  C   C32       1.0  0.8731071901446441  0.4012551173310897  0.1307973915035063  1.0000
  C   C33       1.0  0.3550330604579912  0.6321321955792172  0.1416084914902598  1.0000
  C   C34       1.0  0.6449604148926085  0.3678652658584269  0.8583919598026669  1.0000
  C   C35       1.0  0.30623946687938997  0.7052241592825084  0.09015963102102378  1.0000
  C   C36       1.0  0.6937555682705961  0.2947763599271838  0.9098407359426943  1.0000
  C   C37       1.0  0.36925167787230606  0.8418056632108488  0.10051617448453236  1.0000
  C   C38       1.0  0.6307419038129964  0.1581928174841494  0.8994844010157124  1.0000
  C   C39       1.0  0.4835061140264755  0.8971890497449309  0.1635985622813081  1.0000
  C   C40       1.0  0.5164948060958067  0.10280841169271332  0.8364001963198859  1.0000
  C   C41       1.0  0.5270011042651603  0.8174922984247175  0.21249569135265026  1.0000
  C   C42       1.0  0.47299588080187505  0.1825031244982398  0.7875041896873824  1.0000
  C   C43       1.0  0.3100471319052858  0.9190062532851044  0.04760938014568686  1.0000
  C   C44       1.0  0.6899527600911242  0.08099324666724071  0.9523890348060677  1.0000
  C   C45       1.0  0.3486154164389816  0.0538687701145264  0.055352278765141705  1.0000
  C   C46       1.0  0.6513901478603188  0.9461256335510768  0.9446453284246702  1.0000
  C   C47       1.0  0.2822809487722964  0.1363470747382323  0.0063498764106170915  1.0000
  C   C48       1.0  0.7177225592752521  0.8636514059567659  0.9936496660184277  1.0000
  C   C49       1.0  0.3511080802764609  0.2717564327160318  0.017466944524571187  1.0000
  C   C50       1.0  0.6488969875704742  0.7282451057510144  0.9825330380828846  1.0000
  C   C51       1.0  0.2842055282866198  0.3549145819910465  0.9739842603536533  1.0000
  C   C52       1.0  0.7157932292492076  0.6450859372186457  0.02601630927944139  1.0000
  C   C53       1.0  0.0880324579064578  0.18179677915587433  0.9092475069929835  1.0000
  C   C54       1.0  0.9119685685505275  0.8182017015391239  0.09075242483076099  1.0000
  C   C55       1.0  0.1489885832891034  0.0913071117745972  0.9494508520905639  1.0000
  C   C56       1.0  0.8510138966325727  0.908693407435095  0.05054939570428016  1.0000
  C   C57       1.0  0.174238187552227  0.5724047342267156  0.3081679141265568  1.0000
  C   C58       1.0  0.8257633705782722  0.42759884275502463  0.6918305407033145  1.0000
  C   C59       1.0  0.056415364536015006  0.5660833001526201  0.35420933649368896  1.0000
  C   C60       1.0  0.9435834993345225  0.4339182383144262  0.6457892593162526  1.0000
  C   C61       1.0  0.0909603811792508  0.5020372454154085  0.4122332366865677  1.0000
  C   C62       1.0  0.9090408579471401  0.4979632737942907  0.5877653700289613  1.0000
  C   C63       1.0  0.23812989116304098  0.4348987638834815  0.4161084971040054  1.0000
  C   C64       1.0  0.7618690790421923  0.5651037938409119  0.5838912719284935  1.0000
  C   C65       1.0  0.34616065637324306  0.44042619648326564  0.36627366194933586  1.0000
  C   C66       1.0  0.6538394482925725  0.5595753419837806  0.6337260504322941  1.0000
  C   C67       1.0  0.9784803951821103  0.5098416989312682  0.4662176703120622  1.0000
  C   C68       1.0  0.021520737609577595  0.490157801021077  0.5337813367037683  1.0000
  S   S1        1.0  0.9490107407810484  0.0343448956080152  0.7064518785557397  1.0000
  S   S2        1.0  0.050990392010639624  0.96565460434433  0.2935481774753228  1.0000
  N   N1        1.0  0.3179203284429022  0.5122644736481591  0.3144255561628455  1.0000
  N   N2        1.0  0.6820799888923119  0.4877391033335812  0.6855738801258084  1.0000
  N   N3        1.0  0.4635504255413068  0.686888738844104  0.2020319506978723  1.0000
  N   N4        1.0  0.5364441842698681  0.3131077033361933  0.7979689684518121  1.0000
  N   N5        1.0  0.1529976606135222  0.3119080374372558  0.9216572586585983  1.0000
  N   N6        1.0  0.8470010969223054  0.6880924817724363  0.07834383548210871  1.0000
  O   O1        1.0  0.44531863936244065  0.801879314363596  0.38413277415487107  1.0000
  O   O2        1.0  0.5546866411539001  0.1981242626181441  0.6158695548976993  1.0000
  O   O3        1.0  0.6617062826945812  0.6755861941089094  0.3689910404087798  1.0000
  O   O4        1.0  0.3382976506917714  0.3244163636154838  0.6310089988495378  1.0000
  O   O5        1.0  0.2833428337651895  0.8290211182912373  0.48749919334326114  1.0000
  O   O6        1.0  0.716658618030607  0.1709814394331559  0.5125017598173827  1.0000
  O   O7        1.0  0.3410201816147804  0.8324009756581674  0.6052090895116677  1.0000
  O   O8        1.0  0.6589787885904528  0.1676015820662258  0.3947912040284507  1.0000
  O   O9        1.0  0.834337795229537  0.11686295126830261  0.7457178499567335  1.0000
  O   O10       1.0  0.1656659254874171  0.8831375679413968  0.2542829899021868  1.0000
  O   O11       1.0  0.1031955953428181  0.0980250369571891  0.693372355407277  1.0000
  O   O12       1.0  0.8968080190394332  0.9019744629951562  0.30662940925955695  1.0000
  O   O13       1.0  0.3230639517734062  0.5520888967605799  0.7564492086973047  1.0000
  O   O14       1.0  0.6769358338883009  0.4479095839344183  0.24355222909284183  1.0000
  O   O15       1.0  0.4892786353584242  0.7509144084343476  0.787946629962434  1.0000
  O   O16       1.0  0.5107176405868401  0.24908611077534462  0.21205380455774758  1.0000
  O   O17       1.0  0.25635767836485  0.6228681655406021  0.9137005227083534  1.0000
  O   O18       1.0  0.7436403700492136  0.37713744995583204  0.0862990268820312  1.0000
  O   O19       1.0  0.023319388628735303  0.488583048417965  0.8573967119559214  1.0000
  O   O20       1.0  0.9766805033676746  0.5114164515343802  0.14260432553392377  1.0000
