data_image0
_chemical_formula_structural       Cd2H28C32N24O8
_chemical_formula_sum              "Cd2 H28 C32 N24 O8"
_cell_length_a       4.931514410936091
_cell_length_b       12.152694633075363
_cell_length_c       16.614754495230127
_cell_angle_alpha    89.99974534721358
_cell_angle_beta     97.42294623841185
_cell_angle_gamma    89.9997240659415

_space_group_name_H-M_alt    "P 1"
_space_group_IT_number       1

loop_
  _space_group_symop_operation_xyz
  'x, y, z'

loop_
  _atom_site_type_symbol
  _atom_site_label
  _atom_site_symmetry_multiplicity
  _atom_site_fract_x
  _atom_site_fract_y
  _atom_site_fract_z
  _atom_site_occupancy
  Cd  Cd1       1.0  1.7036682464981408e-06  0.9999990556009806  0.9999992597219814  1.0000
  Cd  Cd2       1.0  0.49999787548389907  0.49999904120220856  0.5000000506463635  1.0000
  H   H1        1.0  0.3209855439417879  0.7470968648690286  0.4381630384492325  1.0000
  H   H2        1.0  0.179013065734317  0.24709792315044868  0.06183684012204789  1.0000
  H   H3        1.0  0.6790060925952163  0.2529045089818495  0.5618399115335038  1.0000
  H   H4        1.0  0.8209888297847954  0.7529009821136868  0.9381622973884305  1.0000
  H   H5        1.0  0.9899382060461477  0.13479206016892678  0.3133702877838829  1.0000
  H   H6        1.0  0.5100723035674334  0.6347881950430149  0.1866351056368387  1.0000
  H   H7        1.0  0.010061644577987701  0.8652051993718929  0.6866287698670774  1.0000
  H   H8        1.0  0.48994183680341763  0.36520906447308465  0.8133675194740846  1.0000
  H   H9        1.0  0.4710959062500777  0.8987232447798944  0.14317011598117796  1.0000
  H   H10       1.0  0.028902687330841607  0.3987236294056374  0.35682987132521043  1.0000
  H   H11       1.0  0.5289080243366797  0.10127566047837182  0.8568303047605426  1.0000
  H   H12       1.0  0.9710971681734788  0.6012793901764156  0.6431685846305655  1.0000
  H   H13       1.0  0.8552894010263756  0.12576502190940883  0.1622439109931477  1.0000
  H   H14       1.0  0.64470896154468  0.6257632698108964  0.33776103735003454  1.0000
  H   H15       1.0  0.1447104496033376  0.8742314147686442  0.8377551466593616  1.0000
  H   H16       1.0  0.3552929044478077  0.37423728116786503  0.6622417102631459  1.0000
  H   H17       1.0  0.2803620898305397  0.9330941550905435  0.49814094575847173  1.0000
  H   H18       1.0  0.21963603767245127  0.4330946751169692  0.0018589117014755983  1.0000
  H   H19       1.0  0.7196398007581662  0.06690639589731971  0.5018587934332075  1.0000
  H   H20       1.0  0.780359708359363  0.5669058758739567  0.998141791270889  1.0000
  H   H21       1.0  0.3101513724006324  0.8289548527780115  0.5738108001462692  1.0000
  H   H22       1.0  0.1898464363268957  0.32895614930726685  0.9261889966639458  1.0000
  H   H23       1.0  0.6898484683626974  0.17104569821027127  0.4261894608670715  1.0000
  H   H24       1.0  0.8101574942542841  0.6710435788137658  0.07381142407622582  1.0000
  H   H25       1.0  0.9845820341965278  0.890677231613026  0.541281874422637  1.0000
  H   H26       1.0  0.515415119583686  0.39067702468707216  0.9587187703728545  1.0000
  H   H27       1.0  0.015417781937109997  0.10932825654278842  0.45872139500287545  1.0000
  H   H28       1.0  0.484582681198333  0.60932270344248  0.0412808090950989  1.0000
  C   C1        1.0  0.9914982610249441  0.6710116903790608  0.4914015897407751  1.0000
  C   C2        1.0  0.5085240514266188  0.17101504905276244  0.008601137590346794  1.0000
  C   C3        1.0  0.008501560066989098  0.3289880377391654  0.508601078011317  1.0000
  C   C4        1.0  0.49147580410559744  0.8289838562154302  0.9913973183731953  1.0000
  C   C5        1.0  0.43198444958887455  0.953741161104247  0.2660160998923757  1.0000
  C   C6        1.0  0.06801954251181999  0.45373892302866636  0.23398271579196717  1.0000
  C   C7        1.0  0.568013356112388  0.046258567027130895  0.7339828778912789  1.0000
  C   C8        1.0  0.9319844077407495  0.5462616279624227  0.7660152982094389  1.0000
  C   C9        1.0  0.1260169663251602  0.772784303365114  0.4574320227003739  1.0000
  C   C10       1.0  0.37398334486758955  0.272782630409381  0.04256723701257669  1.0000
  C   C11       1.0  0.8739685551425184  0.22722118481360104  0.5425682809494745  1.0000
  C   C12       1.0  0.6260165057286429  0.727218743445306  0.9574318206306032  1.0000
  C   C13       1.0  0.09818077301389389  0.08033680546830617  0.2761418134241822  1.0000
  C   C14       1.0  0.4018344074062838  0.5803352435484469  0.2238598558598284  1.0000
  C   C15       1.0  0.9018252172367268  0.9196620997931859  0.7238568821272792  1.0000
  C   C16       1.0  0.5981797624856071  0.4196611931158003  0.7761391591468438  1.0000
  C   C17       1.0  0.6579901404141637  0.8851864854293154  0.3030960169182464  1.0000
  C   C18       1.0  0.8420108587072119  0.3851896989190847  0.1969057842256348  1.0000
  C   C19       1.0  0.3420056203977068  0.11481077411597337  0.696902881007432  1.0000
  C   C20       1.0  0.15799307677646368  0.6148124977920872  0.8030940348255697  1.0000
  C   C21       1.0  0.3589451760027202  0.9496592661456589  0.18151906330768947  1.0000
  C   C22       1.0  0.14104656266862747  0.4496555506937056  0.31848410209857997  1.0000
  C   C23       1.0  0.6410567244412135  0.05033881625752911  0.8184794725200462  1.0000
  C   C24       1.0  0.8589491932072593  0.5503441774380847  0.6815153975067361  1.0000
  C   C25       1.0  0.0216913698753771  0.07617591703558452  0.1923063166358716  1.0000
  C   C26       1.0  0.47830951328050025  0.576172875037507  0.3076996228058491  1.0000
  C   C27       1.0  0.9783084807431736  0.9238221653680085  0.8076927410135255  1.0000
  C   C28       1.0  0.5216964425409926  0.4238252073484786  0.6923032845372674  1.0000
  C   C29       1.0  0.17688363454391978  0.8625353473820995  0.5216885798228361  1.0000
  C   C30       1.0  0.32311371391504917  0.3625352456116601  0.978311691814156  1.0000
  C   C31       1.0  0.8231100567209638  0.13746849505850633  0.4783132466492717  1.0000
  C   C32       1.0  0.6768861317675245  0.6374653053784343  0.02168796751487891  1.0000
  N   N1        1.0  0.1535449209209787  0.010984629092746398  0.14496263370290313  1.0000
  N   N2        1.0  0.3464609655541153  0.5109840252585797  0.3550401016328877  1.0000
  N   N3        1.0  0.8464590145905929  0.9890134533045654  0.8550371853560746  1.0000
  N   N4        1.0  0.6535409250457533  0.48901488000374366  0.6449596375618967  1.0000
  N   N5        1.0  0.3020776050890532  0.019553265667241203  0.31377147484221973  1.0000
  N   N6        1.0  0.1979240754057727  0.5195490373393667  0.1862310684046022  1.0000
  N   N7        1.0  0.6979222504431634  0.980445639600944  0.6862269811213294  1.0000
  N   N8        1.0  0.8020900698675816  0.48045069076687236  0.8137709550173539  1.0000
  N   N9        1.0  0.9590078515724869  0.8121099728112426  0.3840469324228266  1.0000
  N   N10       1.0  0.5409900732923987  0.3121093258836752  0.1159519766495123  1.0000
  N   N11       1.0  0.040985844622795795  0.18789222390563512  0.6159542923680874  1.0000
  N   N12       1.0  0.45901182222112874  0.6878904022432337  0.8840471608594171  1.0000
  N   N13       1.0  0.7543800101876174  0.8829693584938951  0.38252837505713444  1.0000
  N   N14       1.0  0.7456169488753944  0.3829707726592275  0.11747086800351521  1.0000
  N   N15       1.0  0.2456116607896703  0.11703119250694981  0.6174703631370518  1.0000
  N   N16       1.0  0.2543828968016015  0.6170306011936405  0.8825287913239707  1.0000
  N   N17       1.0  0.8008777464742921  0.8165070617001363  0.2589699561694161  1.0000
  N   N18       1.0  0.6991201089115364  0.31650864003010787  0.24103013965602565  1.0000
  N   N19       1.0  0.19912617426839324  0.1834926664172656  0.7410316679393532  1.0000
  N   N20       1.0  0.30087974168470305  0.6834927338245792  0.7589689179871542  1.0000
  N   N21       1.0  0.9908410238615418  0.7703375346362193  0.3110018239613197  1.0000
  N   N22       1.0  0.5091574526803697  0.2703381524779473  0.18899904796916903  1.0000
  N   N23       1.0  0.009156752313103296  0.22966383920978467  0.68900076392503  1.0000
  N   N24       1.0  0.49084853264542266  0.7296615756444993  0.8110002492650352  1.0000
  O   O1        1.0  0.1491618414278122  0.6070512532610691  0.5354576366336659  1.0000
  O   O2        1.0  0.3508308410298114  0.10704953531705293  0.9645372638788886  1.0000
  O   O3        1.0  0.8508359839392624  0.39295012060312473  0.4645389344096742  1.0000
  O   O4        1.0  0.6491690095775837  0.8929501928120871  0.0354617937674035  1.0000
  O   O5        1.0  0.7340550903426859  0.6611211776478216  0.4758160659069405  1.0000
  O   O6        1.0  0.7659326174391055  0.1611214721897198  0.024182332707937296  1.0000
  O   O7        1.0  0.2659324711565105  0.3388777276246628  0.5241849193022787  1.0000
  O   O8        1.0  0.23406722824904597  0.8388782559376009  0.9758173266226536  1.0000
