data_image0
_chemical_formula_structural       Zn6H36C56O20
_chemical_formula_sum              "Zn6 H36 C56 O20"
_cell_length_a       11.968401184736239
_cell_length_b       15.595303950174184
_cell_length_c       15.595311353892205
_cell_angle_alpha    84.36406493956052
_cell_angle_beta     74.90941703658066
_cell_angle_gamma    74.9094524710377

_space_group_name_H-M_alt    "P 1"
_space_group_IT_number       1

loop_
  _space_group_symop_operation_xyz
  'x, y, z'

loop_
  _atom_site_type_symbol
  _atom_site_label
  _atom_site_symmetry_multiplicity
  _atom_site_fract_x
  _atom_site_fract_y
  _atom_site_fract_z
  _atom_site_occupancy
  Zn  Zn1       1.0  0.9999992052817603  4.1936121419816127e-07  0.9999993199248537  1.0000
  Zn  Zn2       1.0  0.49999983789065533  0.99999983129986  3.6497075231305665e-07  1.0000
  Zn  Zn3       1.0  0.2500006217925943  0.07454852727112643  0.9254505047810186  1.0000
  Zn  Zn4       1.0  0.24999978120343497  0.9293699000534378  0.07063021239073922  1.0000
  Zn  Zn5       1.0  0.7499999627406023  0.9254508476346575  0.07454961585284545  1.0000
  Zn  Zn6       1.0  0.7499994789983406  0.0706308008311751  0.929368766280767  1.0000
  H   H1        1.0  0.09224927761189858  0.35436134279460424  0.9229869089642693  1.0000
  H   H2        1.0  0.9581645595252866  0.506185190751502  0.9344454039633239  1.0000
  H   H3        1.0  0.6526500294874609  0.3925552358804509  0.0029991175233944948  1.0000
  H   H4        1.0  0.787050875622441  0.24225788549733812  0.9872156369974476  1.0000
  H   H5        1.0  0.8289662411045594  0.6127462343726365  0.8761017214530611  1.0000
  H   H6        1.0  0.6889836274098046  0.7620621206899544  0.8907775160347386  1.0000
  H   H7        1.0  0.43964202171824945  0.6607737932229084  0.10017160326700045  1.0000
  H   H8        1.0  0.578725004652021  0.5108958468691683  0.08660221798284348  1.0000
  H   H9        1.0  0.2058208185231153  0.9215152795869486  0.9143440594641136  1.0000
  H   H10       1.0  0.4077507927172236  0.0770137841183924  0.645640168479197  1.0000
  H   H11       1.0  0.541833846925222  0.06555714403991432  0.49381469952555085  1.0000
  H   H12       1.0  0.8473502530124436  0.9970026345435842  0.6074431021619234  1.0000
  H   H13       1.0  0.7129507053337321  0.0127851694223509  0.7577415326596297  1.0000
  H   H14       1.0  0.6710342935565662  0.1238986467095913  0.38725339320633634  1.0000
  H   H15       1.0  0.8110167315164034  0.10922189106194932  0.23793681652649928  1.0000
  H   H16       1.0  0.060357513918539545  0.8998262752718275  0.33922655957860576  1.0000
  H   H17       1.0  0.9212734574898961  0.9133983956715356  0.4891048040166837  1.0000
  H   H18       1.0  0.29418007701016086  0.08565543728477111  0.07848514562178371  1.0000
  H   H19       1.0  0.9077500019075445  0.6456393558952199  0.07701398966769094  1.0000
  H   H20       1.0  0.04183495665439806  0.4938148420156168  0.06555679444916511  1.0000
  H   H21       1.0  0.34734992137737203  0.6074434694308408  0.9970018405292081  1.0000
  H   H22       1.0  0.21294970247152628  0.7577414901400418  0.012783843649593497  1.0000
  H   H23       1.0  0.17103435630708222  0.38725313906995495  0.12389967915444093  1.0000
  H   H24       1.0  0.3110171873444115  0.23793658902472006  0.10922326439281704  1.0000
  H   H25       1.0  0.5603572320442964  0.33922690839330016  0.8998267354176833  1.0000
  H   H26       1.0  0.421273404538816  0.48910484814886257  0.9133982182873481  1.0000
  H   H27       1.0  0.7941790882254623  0.07848608942897072  0.08565536176229227  1.0000
  H   H28       1.0  0.5922502210202012  0.922986922646615  0.35436101488950567  1.0000
  H   H29       1.0  0.4581641147020149  0.9344448798971426  0.5061856971308815  1.0000
  H   H30       1.0  0.15265051762551  0.0029987388757249005  0.3925561414394424  1.0000
  H   H31       1.0  0.28705093563283407  0.9872162076687447  0.24225817330351157  1.0000
  H   H32       1.0  0.3289669439626549  0.876101395595903  0.6127478099692497  1.0000
  H   H33       1.0  0.18898190789545302  0.8907781387649722  0.7620642795373913  1.0000
  H   H34       1.0  0.9396411061756496  0.10017375674988223  0.6607726165248169  1.0000
  H   H35       1.0  0.078725833949683  0.08659964297163471  0.5108944315073816  1.0000
  H   H36       1.0  0.705820507523029  0.9143439376210123  0.9215149750120732  1.0000
  C   C1        1.0  0.02757783732215556  0.19690346469131015  0.9484765915613309  1.0000
  C   C2        1.0  0.9482825154222425  0.28856502832606873  0.9555411663399626  1.0000
  C   C3        1.0  0.9957053797534458  0.3636062777329131  0.9400302816376328  1.0000
  C   C4        1.0  0.9200304817408949  0.4485073911877677  0.946460408322821  1.0000
  C   C5        1.0  0.79522576341639  0.4607912237623211  0.970828613139183  1.0000
  C   C6        1.0  0.7488738368011953  0.38495056962009494  0.9863271385585791  1.0000
  C   C7        1.0  0.8241736102375725  0.30020326249183443  0.9777522527836525  1.0000
  C   C8        1.0  0.7139401242291045  0.5504756768043038  0.9799057668861836  1.0000
  C   C9        1.0  0.744254168825584  0.6228914335817778  0.9260255133556613  1.0000
  C   C10       1.0  0.6659758169721002  0.7066515129363398  0.9338597577910126  1.0000
  C   C11       1.0  0.5550915722831318  0.7207395861479641  0.9959006154709303  1.0000
  C   C12       1.0  0.5248649789816612  0.6492832971467095  0.050885230463940355  1.0000
  C   C13       1.0  0.6029991497847716  0.5655208629345481  0.04276466245389088  1.0000
  C   C14       1.0  0.4707446409834404  0.81044253191574  0.00325381769543755  1.0000
  C   C15       1.0  0.47242340365595953  0.0515226367928889  0.803097227980395  1.0000
  C   C16       1.0  0.551718402480688  0.04445830983591751  0.7114358261798801  1.0000
  C   C17       1.0  0.5042944225112223  0.059970057400384705  0.6363933705393663  1.0000
  C   C18       1.0  0.5799692689650585  0.0535409683824568  0.5514937861617214  1.0000
  C   C19       1.0  0.7047718250742818  0.029172821885410406  0.5392078912080721  1.0000
  C   C20       1.0  0.7511269657073997  0.013672904909469697  0.6150493622983577  1.0000
  C   C21       1.0  0.675827237482828  0.022247641282980603  0.6997964149832685  1.0000
  C   C22       1.0  0.7860601518179352  0.0200939545212151  0.4495241083111382  1.0000
  C   C23       1.0  0.7557464278554847  0.07397505406277823  0.37710689872119474  1.0000
  C   C24       1.0  0.8340257847982998  0.0661390159370967  0.29334799800914624  1.0000
  C   C25       1.0  0.9449077403448669  0.0040988376674775  0.27926034069182754  1.0000
  C   C26       1.0  0.9751348051709953  0.949113312229237  0.35071670037967806  1.0000
  C   C27       1.0  0.8969995787034719  0.9572348892636882  0.43447872035880414  1.0000
  C   C28       1.0  0.029256552348968422  0.9967444149193341  0.18955715386911726  1.0000
  C   C29       1.0  0.9724225169900224  0.8030965754055828  0.05152286927882696  1.0000
  C   C30       1.0  0.05171848543673709  0.711435679902131  0.04445873705510192  1.0000
  C   C31       1.0  0.00429521121896668  0.6363930964412746  0.05997047898305399  1.0000
  C   C32       1.0  0.07996966166792426  0.5514933119054459  0.05354031268409901  1.0000
  C   C33       1.0  0.2047730997772632  0.5392081416050872  0.029172502731583408  1.0000
  C   C34       1.0  0.25112566650004453  0.6150494646102161  0.013673779880271285  1.0000
  C   C35       1.0  0.17582524651685807  0.6997961036071702  0.02224822310029141  1.0000
  C   C36       1.0  0.28606046030408544  0.4495236981014799  0.02009435374768033  1.0000
  C   C37       1.0  0.2557466523678542  0.37710727540130057  0.07397590705871694  1.0000
  C   C38       1.0  0.3340262779972818  0.2933485345041404  0.06614062777270392  1.0000
  C   C39       1.0  0.4449079245788853  0.27926044881394324  0.004099662981090485  1.0000
  C   C40       1.0  0.47513451144113356  0.3507167385467937  0.9491144080012647  1.0000
  C   C41       1.0  0.3969988430802828  0.4344784987610666  0.957235991055093  1.0000
  C   C42       1.0  0.5292574346682741  0.18955751771952833  0.9967446479078251  1.0000
  C   C43       1.0  0.527577833863262  0.9484774055126053  0.196903975195184  1.0000
  C   C44       1.0  0.448281740928131  0.9555423932572965  0.2885648948270472  1.0000
  C   C45       1.0  0.4957057144583743  0.9400306464244251  0.36360671048073817  1.0000
  C   C46       1.0  0.42003065710118653  0.9464603984386744  0.44850755502514533  1.0000
  C   C47       1.0  0.29522680145912966  0.9708272094047103  0.4607919248821731  1.0000
  C   C48       1.0  0.2488744827151733  0.9863264743997037  0.38495058071046634  1.0000
  C   C49       1.0  0.32417485748655395  0.9777524061574994  0.3002039705804549  1.0000
  C   C50       1.0  0.21394175060746062  0.9799040951373359  0.5504765142982607  1.0000
  C   C51       1.0  0.24425307544575497  0.9260249801675331  0.6228940197176487  1.0000
  C   C52       1.0  0.16597369274605003  0.9338610212195988  0.7066503604824207  1.0000
  C   C53       1.0  0.055091103531111664  0.9959005298947189  0.7207388552184855  1.0000
  C   C54       1.0  0.024866854154929306  0.0508854040836155  0.6492819824623839  1.0000
  C   C55       1.0  0.1029992651725138  0.0427644782985155  0.5655204755515086  1.0000
  C   C56       1.0  0.9707418504026395  0.003256280830292701  0.8104426424142518  1.0000
  O   O1        1.0  0.1855235026971868  0.9650278933408603  0.9600225478566955  1.0000
  O   O2        1.0  0.1391377770605686  0.19023050008055262  0.9423414202075693  1.0000
  O   O3        1.0  0.9820197371400924  0.13230054739568692  0.9482494718106126  1.0000
  O   O4        1.0  0.3672136451714181  0.8159980845522767  0.05714829230531386  1.0000
  O   O5        1.0  0.5035989421862652  0.8748772108225469  0.9564727271278529  1.0000
  O   O6        1.0  0.31447723126500904  0.0399766312077361  0.03497153496014963  1.0000
  O   O7        1.0  0.3608633985680073  0.057657219765161506  0.8097691427385885  1.0000
  O   O8        1.0  0.5179803510253649  0.0517492039839951  0.8676998285006975  1.0000
  O   O9        1.0  0.13278789075996403  0.9428509715352504  0.18400296200293548  1.0000
  O   O10       1.0  0.9964037522996277  0.043524678918075196  0.12512241697515247  1.0000
  O   O11       1.0  0.8144759748471558  0.0349721438158355  0.03997581063487135  1.0000
  O   O12       1.0  0.8608627945941832  0.8097688762884234  0.05765742045264947  1.0000
  O   O13       1.0  0.01797952306167617  0.8677001534889257  0.0517495068608937  1.0000
  O   O14       1.0  0.6327871319057579  0.184003288135429  0.9428515912828672  1.0000
  O   O15       1.0  0.49640336368646854  0.12512217362161238  0.0435263982691083  1.0000
  O   O16       1.0  0.6855242107183415  0.9600227488330334  0.9650277680618515  1.0000
  O   O17       1.0  0.6391378325119916  0.9423428232719291  0.19023142045017483  1.0000
  O   O18       1.0  0.4820200161652509  0.9482508346497056  0.13230091231310578  1.0000
  O   O19       1.0  0.8672122333311875  0.05714973375275181  0.8159958390435309  1.0000
  O   O20       1.0  0.003594644012757314  0.9564760175631478  0.8748767393214012  1.0000
