data_image0
_chemical_formula_structural       Ho2H12C16N2O16
_chemical_formula_sum              "Ho2 H12 C16 N2 O16"
_cell_length_a       7.65056020272466
_cell_length_b       7.608541329349279
_cell_length_c       9.840912261378637
_cell_angle_alpha    111.14520043747052
_cell_angle_beta     97.70068504882214
_cell_angle_gamma    91.34613098832294

_space_group_name_H-M_alt    "P 1"
_space_group_IT_number       1

loop_
  _space_group_symop_operation_xyz
  'x, y, z'

loop_
  _atom_site_type_symbol
  _atom_site_label
  _atom_site_symmetry_multiplicity
  _atom_site_fract_x
  _atom_site_fract_y
  _atom_site_fract_z
  _atom_site_occupancy
  Ho  Ho1       1.0  0.6407023209678614  0.9679792741191662  0.8006220676120749  1.0000
  Ho  Ho2       1.0  0.35930163754397176  0.032022909794591194  0.19937795774887956  1.0000
  H   H1        1.0  0.5820720751924143  0.4441787477095858  0.39542125692413793  1.0000
  H   H2        1.0  0.4179332406756726  0.5558121337466843  0.6045705433803832  1.0000
  H   H3        1.0  0.029859115960334713  0.860451602922396  0.5948850354691048  1.0000
  H   H4        1.0  0.9701427815777066  0.13954335851908442  0.40512284778554186  1.0000
  H   H5        1.0  0.9882872487869747  0.5217106116217636  0.1505780403221096  1.0000
  H   H6        1.0  0.011726000734327596  0.47830393592310116  0.8494265139697177  1.0000
  H   H7        1.0  0.12775864390957992  0.762322911147912  0.3666733011421713  1.0000
  H   H8        1.0  0.8722495970911767  0.2376817487254073  0.6333360065823186  1.0000
  H   H9        1.0  0.4606575275201196  0.3071600865510362  0.8775439337635904  1.0000
  H   H10       1.0  0.5393326891645529  0.6928368930359811  0.12245928836418336  1.0000
  H   H11       1.0  0.31992719541864995  0.16022836653231562  0.8884402548853603  1.0000
  H   H12       1.0  0.6800671377536744  0.8397587611556219  0.11154832833084075  1.0000
  C   C1        1.0  0.6810709254411335  0.3034204281446619  0.1231970303472352  1.0000
  C   C2        1.0  0.3189444535104755  0.696589943398955  0.8767983967952376  1.0000
  C   C3        1.0  0.7720600238971187  0.46221571200737094  0.25738495018596563  1.0000
  C   C4        1.0  0.22794012528704852  0.5377882103808673  0.7426080803533353  1.0000
  C   C5        1.0  0.7043166235946572  0.5157197111836851  0.38982803959134327  1.0000
  C   C6        1.0  0.2956871571269843  0.48428119226096555  0.6101654983080708  1.0000
  C   C7        1.0  0.7928725504764528  0.6609701354791183  0.5192159861862038  1.0000
  C   C8        1.0  0.20711828528414603  0.3390325364957932  0.4807869183811776  1.0000
  C   C9        1.0  0.9506834111363602  0.7480430309336298  0.5031670742151279  1.0000
  C   C10       1.0  0.049319917674374394  0.2519535264204719  0.4968302378516115  1.0000
  C   C11       1.0  0.928120969645363  0.5547841380122166  0.2499160894915847  1.0000
  C   C12       1.0  0.0718824578738761  0.4452251641127489  0.7500859484377571  1.0000
  C   C13       1.0  0.9551657335281689  0.9555120727851757  0.04738578910208699  1.0000
  C   C14       1.0  0.0448309158662994  0.04449643427150819  0.9526000878353714  1.0000
  C   C15       1.0  0.4216966154829649  0.9269136666638146  0.4873067058531008  1.0000
  C   C16       1.0  0.5783047231884666  0.07307522936304167  0.5127186698046914  1.0000
  N   N1        1.0  0.009829107407938423  0.6926723714737694  0.37235647585011844  1.0000
  N   N2        1.0  0.9901741777383534  0.3073354307546055  0.6276491774663527  1.0000
  O   O1        1.0  0.7320857812494665  0.27740013362141974  9.856366583697457e-05  1.0000
  O   O2        1.0  0.26791571350203464  0.7226035336988659  0.9999036756305842  1.0000
  O   O3        1.0  0.558144740688526  0.19996358297160546  0.13872259916983865  1.0000
  O   O4        1.0  0.44185352885376966  0.800034375470723  0.8612857870095711  1.0000
  O   O5        1.0  0.7340031483514553  0.7101257393749022  0.6448949963308267  1.0000
  O   O6        1.0  0.2659949008999618  0.2898712019113033  0.3550947789686205  1.0000
  O   O7        1.0  0.7941066195134496  0.8915397001479306  0.9980417486726411  1.0000
  O   O8        1.0  0.2059058402251921  0.10846783065442618  0.0019586562877549002  1.0000
  O   O9        1.0  0.044171213849331474  0.953343296111228  0.16344516255254143  1.0000
  O   O10       1.0  0.9558362125766847  0.0466545006188213  0.8365529238464406  1.0000
  O   O11       1.0  0.4112312639712172  0.8575093614668461  0.5834182336278247  1.0000
  O   O12       1.0  0.588743167161347  0.14248844077524583  0.4165775324710809  1.0000
  O   O13       1.0  0.3125188356690742  0.8891066214568325  0.36740679089151473  1.0000
  O   O14       1.0  0.6874576722277085  0.11087397475741766  0.6325882558987318  1.0000
  O   O15       1.0  0.4035504968271866  0.18092435914741856  0.8237316775087039  1.0000
  O   O16       1.0  0.5964430206066496  0.8190668869585449  0.1762661490501571  1.0000
