data_image0
_chemical_formula_structural       Cd2H28C28N4Cl4
_chemical_formula_sum              "Cd2 H28 C28 N4 Cl4"
_cell_length_a       7.354193863649847
_cell_length_b       9.60593760165207
_cell_length_c       10.313892653128727
_cell_angle_alpha    91.15797699433305
_cell_angle_beta     102.42131927049167
_cell_angle_gamma    94.61511846016327

_space_group_name_H-M_alt    "P 1"
_space_group_IT_number       1

loop_
  _space_group_symop_operation_xyz
  'x, y, z'

loop_
  _atom_site_type_symbol
  _atom_site_label
  _atom_site_symmetry_multiplicity
  _atom_site_fract_x
  _atom_site_fract_y
  _atom_site_fract_z
  _atom_site_occupancy
  Cd  Cd1       1.0  0.2631175640961558  0.07563189307447259  0.027060640035145384  1.0000
  Cd  Cd2       1.0  0.7368843146223866  0.9243691337930073  0.9729416012047877  1.0000
  H   H1        1.0  0.2903346160756258  0.6374112822632227  0.04349532338577689  1.0000
  H   H2        1.0  0.7096608182234547  0.36259491837979857  0.9565021615802249  1.0000
  H   H3        1.0  0.10604795560868038  0.6673209806288368  0.8176066751819419  1.0000
  H   H4        1.0  0.8939392828780228  0.3326725830750306  0.18239213628965698  1.0000
  H   H5        1.0  0.9775103272461223  0.451856755358456  0.6698302938866617  1.0000
  H   H6        1.0  0.022479783927167298  0.5481378650267175  0.33017189920447265  1.0000
  H   H7        1.0  0.0332580675125769  0.21611433346422612  0.7647090008507005  1.0000
  H   H8        1.0  0.9667462013105919  0.783882550438278  0.23529254249482529  1.0000
  H   H9        1.0  0.5397442954567993  0.48088473869256637  0.3407375482600584  1.0000
  H   H10       1.0  0.4602585847443166  0.5191121361935487  0.6592628090869325  1.0000
  H   H11       1.0  0.33905776962885176  0.5701056055926159  0.2730010809095162  1.0000
  H   H12       1.0  0.6609409071187146  0.42989119741800147  0.7270024986306324  1.0000
  H   H13       1.0  0.5314148607873008  0.5841717868564019  0.19784954589935919  1.0000
  H   H14       1.0  0.46858720881616733  0.41583131730807565  0.8021547145855121  1.0000
  H   H15       1.0  0.4652549763556735  0.1954432946940159  0.6433018729544102  1.0000
  H   H16       1.0  0.5347451951956614  0.8045545687890153  0.3567019650099539  1.0000
  H   H17       1.0  0.7629101529058174  0.09205025264334668  0.6556262891245055  1.0000
  H   H18       1.0  0.23709154029742047  0.9079487033308807  0.3443729642720967  1.0000
  H   H19       1.0  0.8901091703076177  0.06858687553453541  0.44842192129100056  1.0000
  H   H20       1.0  0.10989262370770801  0.9314131254919502  0.5515773731296746  1.0000
  H   H21       1.0  0.7073907929100754  0.14286151501795527  0.23483739599812026  1.0000
  H   H22       1.0  0.2926151091163334  0.8571375192355221  0.7651576666069245  1.0000
  H   H23       1.0  0.18953015612613908  0.27489007168133367  0.5244930258133776  1.0000
  H   H24       1.0  0.8104716486284431  0.7251099421526632  0.4755043314105052  1.0000
  H   H25       1.0  0.1296826734567986  0.2575331715399542  0.34822882899700147  1.0000
  H   H26       1.0  0.8703189243039731  0.7424647457857745  0.6517694147771279  1.0000
  H   H27       1.0  0.25122171694861356  0.414437639912073  0.4282565191549493  1.0000
  H   H28       1.0  0.7487785822629363  0.5855613006419986  0.5717425168415103  1.0000
  C   C1        1.0  0.2597416820441865  0.40997497681503603  0.02441712149633449  1.0000
  C   C2        1.0  0.740261495223571  0.5900250268240939  0.9755843275212682  1.0000
  C   C3        1.0  0.2321712254759944  0.5451992002741549  0.9803231169128209  1.0000
  C   C4        1.0  0.7678278813680564  0.45480181496427713  0.019675783731635504  1.0000
  C   C5        1.0  0.1290452327403386  0.5622600369960368  0.8521186789023218  1.0000
  C   C6        1.0  0.8709508630176616  0.4377388316825446  0.14788357928728857  1.0000
  C   C7        1.0  0.057003032771795886  0.4440495586596568  0.7711688602687089  1.0000
  C   C8        1.0  0.9429962595875593  0.5559535274720274  0.22883302821907847  1.0000
  C   C9        1.0  0.0882675675630225  0.3125836968475966  0.8224726286274802  1.0000
  C   C10       1.0  0.9117329332727094  0.687417333810991  0.17752648941711863  1.0000
  C   C11       1.0  0.37000732651914353  0.38582891062189617  0.16037081346765802  1.0000
  C   C12       1.0  0.6299962378881006  0.6141752540150022  0.8396337054414287  1.0000
  C   C13       1.0  0.44999847646712243  0.5111964719274411  0.24853464033572686  1.0000
  C   C14       1.0  0.550004880946318  0.4888055962011819  0.7514707651236066  1.0000
  C   C15       1.0  0.4924399765197122  0.22293075117420355  0.32026100096837234  1.0000
  C   C16       1.0  0.5075575454477246  0.7770681713470678  0.6797356630310104  1.0000
  C   C17       1.0  0.4206856601757068  0.23920034152455832  0.4356548652580442  1.0000
  C   C18       1.0  0.5793159483243144  0.760797588608682  0.5643414413193  1.0000
  C   C19       1.0  0.522438076173877  0.19057805824688498  0.5543510206112358  1.0000
  C   C20       1.0  0.4775612215551064  0.8094250342885516  0.44564989927815896  1.0000
  C   C21       1.0  0.6911141751890213  0.13150516660824246  0.5616274686458737  1.0000
  C   C22       1.0  0.3088896015816545  0.8685011009406834  0.43837519511456674  1.0000
  C   C23       1.0  0.7602699972579641  0.11677224398478361  0.4465799146998321  1.0000
  C   C24       1.0  0.2397307052019499  0.8832308767783275  0.5534192853929125  1.0000
  C   C25       1.0  0.6590413678944247  0.159535247997475  0.32610421239505166  1.0000
  C   C26       1.0  0.34095724025880253  0.8404605483834187  0.6738935145306397  1.0000
  C   C27       1.0  0.23802982749454324  0.2997661656316382  0.4335401175907803  1.0000
  C   C28       1.0  0.761973169627538  0.7002317735179986  0.5664573749850916  1.0000
  N   N1        1.0  0.18644658080768287  0.29662911408564696  0.9454483770341255  1.0000
  N   N2        1.0  0.8135510151237213  0.7033708214691002  0.05455317098130756  1.0000
  N   N3        1.0  0.3941889246211687  0.2586500306096226  0.19318921600800815  1.0000
  N   N4        1.0  0.605815758189614  0.7413510463094325  0.8068105542370246  1.0000
  Cl  Cl1       1.0  0.9936289817060526  0.047556965936742294  0.1658025452749925  1.0000
  Cl  Cl2       1.0  0.00637720127813418  0.9524451778584788  0.8341965147958562  1.0000
  Cl  Cl3       1.0  0.45177009664063655  0.871291055371749  0.10705873982518448  1.0000
  Cl  Cl4       1.0  0.5482344799884302  0.1287089700912887  0.8929419579941676  1.0000
