data_image0
_chemical_formula_structural       Hg4H28C44N12Cl8O4F8
_chemical_formula_sum              "Hg4 H28 C44 N12 Cl8 O4 F8"
_cell_length_a       3.925385249
_cell_length_b       10.731759742109638
_cell_length_c       31.538
_cell_angle_alpha    99.91343114534176
_cell_angle_beta     90.0
_cell_angle_gamma    90.0

_space_group_name_H-M_alt    "P 1"
_space_group_IT_number       1

loop_
  _space_group_symop_operation_xyz
  'x, y, z'

loop_
  _atom_site_type_symbol
  _atom_site_label
  _atom_site_symmetry_multiplicity
  _atom_site_fract_x
  _atom_site_fract_y
  _atom_site_fract_z
  _atom_site_occupancy
  Hg  Hg1       1.0  0.06772583660870883  0.8194107273102773  0.7617114868274442  1.0000
  Hg  Hg2       1.0  0.5676945977640531  0.18057945452140695  0.7382882550759291  1.0000
  Hg  Hg3       1.0  0.9323084914868718  0.18057945452140695  0.2382866696868717  1.0000
  Hg  Hg4       1.0  0.4322964224803912  0.8194126191851223  0.2617131830475614  1.0000
  H   H1        1.0  0.6120163621168189  0.4536044276961491  0.854965770452246  1.0000
  H   H2        1.0  0.11205269600278463  0.5463980513220575  0.6450308869193222  1.0000
  H   H3        1.0  0.3879542779623862  0.5464046728840372  0.1450293723611864  1.0000
  H   H4        1.0  0.8879892746547569  0.4535987520715992  0.3549717795152674  1.0000
  H   H5        1.0  0.7338438948721873  0.5584710506832806  0.7910025982567531  1.0000
  H   H6        1.0  0.2338496585102945  0.4415304823975035  0.7089952720105259  1.0000
  H   H7        1.0  0.2661496728929081  0.4415437255214626  0.2089950965945491  1.0000
  H   H8        1.0  0.7661566468580789  0.558455915684469  0.29100615069758357  1.0000
  H   H9        1.0  0.2369321585026398  0.8509028760788766  0.8708120722869523  1.0000
  H   H10       1.0  0.7369212998232302  0.14909203543992788  0.6291869954606569  1.0000
  H   H11       1.0  0.763071599345075  0.14910054887675978  0.1291887625116885  1.0000
  H   H12       1.0  0.2630799105038335  0.8508981463917493  0.3708136976761552  1.0000
  H   H13       1.0  0.7494907667341695  0.6400449105057433  0.11323749685307402  1.0000
  H   H14       1.0  0.24948634028965705  0.3599632441370204  0.386764249178853  1.0000
  H   H15       1.0  0.2505257287168234  0.3599660819492954  0.8867644154254536  1.0000
  H   H16       1.0  0.7505225125993749  0.6400382889437637  0.6132358406331022  1.0000
  H   H17       1.0  0.017491276816073806  0.8452471162120219  0.14910208849549633  1.0000
  H   H18       1.0  0.5174804181366639  0.1547572546810443  0.3508972163296208  1.0000
  H   H19       1.0  0.9825303136762287  0.15476198436817157  0.8508981275629068  1.0000
  H   H20       1.0  0.4825131496284386  0.8452404946500421  0.6491020176645819  1.0000
  H   H21       1.0  0.28034445798163443  0.9300172985951318  0.0245088896105798  1.0000
  H   H22       1.0  0.7803310517815591  0.0699870722979341  0.4754916835257887  1.0000
  H   H23       1.0  0.7196414672214999  0.069992747922484  0.975490747707738  1.0000
  H   H24       1.0  0.21965996846287797  0.9300106770331524  0.5245075504684138  1.0000
  H   H25       1.0  0.857785869771071  0.6310518834018382  0.9684110862684889  1.0000
  H   H26       1.0  0.3577712532439393  0.36894681186667094  0.531590739763736  1.0000
  H   H27       1.0  0.1421975079114048  0.3689515415537982  0.0315906997635835  1.0000
  H   H28       1.0  0.6422197670005048  0.6310490455895632  0.4684099687884569  1.0000
  C   C1        1.0  0.7458146944292425  0.5439802352625733  0.8589992074027039  1.0000
  C   C2        1.0  0.24583574319127885  0.4560194059433655  0.6409979178778898  1.0000
  C   C3        1.0  0.254158493170614  0.4560260275053451  0.14099735455318552  1.0000
  C   C4        1.0  0.7541883948216752  0.5439745596380163  0.35900426523229356  1.0000
  C   C5        1.0  0.8178127231761041  0.6003391870718175  0.8232834889736227  1.0000
  C   C6        1.0  0.3178210343348624  0.399658562259269  0.6767141596315227  1.0000
  C   C7        1.0  0.18217829706834016  0.3996708594457984  0.17671392880001238  1.0000
  C   C8        1.0  0.6821929135954721  0.6003325655098379  0.3232878572320601  1.0000
  C   C9        1.0  0.09255652043135143  0.7629940733180759  0.8671863336286734  1.0000
  C   C10       1.0  0.5925533043139026  0.2370017841381582  0.6328121553788435  1.0000
  C   C11       1.0  0.9074344998130925  0.2370112435124128  0.13281366076760293  1.0000
  C   C12       1.0  0.4074530010544706  0.7629893436309487  0.3671879590178691  1.0000
  C   C13       1.0  0.0097009586536032  0.7073341692662466  0.9029680532834305  1.0000
  C   C14       1.0  0.5097053850981155  0.2926616881899875  0.5970313869575108  1.0000
  C   C15       1.0  0.9902773239875702  0.2926683097519671  0.0970314577884324  1.0000
  C   C16       1.0  0.4903009202702578  0.7073313314539716  0.40296915534808164  1.0000
  C   C17       1.0  0.11372386955235213  0.7716503466985074  0.9473538508324283  1.0000
  C   C18       1.0  0.6137206534349033  0.2283436188828745  0.5526448444218275  1.0000
  C   C19       1.0  0.8862620556507823  0.22835686200682653  0.05264593731709509  1.0000
  C   C20       1.0  0.38628055689216023  0.7716437251365348  0.4473544141571395  1.0000
  C   C21       1.0  0.0129490474885117  0.7519606591874393  0.02343133599789129  1.0000
  C   C22       1.0  0.5129483788917144  0.24804087389334478  0.476568436736251  1.0000
  C   C23       1.0  0.987044520276591  0.24804654951789468  0.9765694033850707  1.0000
  C   C24       1.0  0.4870451888733811  0.7519549835628894  0.523431954738129  1.0000
  C   C25       1.0  0.868554239579048  0.6736483916079833  0.050078612954756394  1.0000
  C   C26       1.0  0.3685472656138772  0.3263569252224983  0.44992328390838315  1.0000
  C   C27       1.0  0.1314648033926034  0.32635597928507554  0.9499232284928496  1.0000
  C   C28       1.0  0.6314590397544961  0.6736427159834334  0.5500773292281238  1.0000
  C   C29       1.0  0.868245989579812  0.7040319017139467  0.09443957324398161  1.0000
  C   C30       1.0  0.3682492056972606  0.2959753069913944  0.40556243445022494  1.0000
  C   C31       1.0  0.1317705058711809  0.2959734151165421  0.9055616894635392  1.0000
  C   C32       1.0  0.6317570996711126  0.7040252801519671  0.5944379170240097  1.0000
  C   C33       1.0  0.016403485496461208  0.817408177780564  0.1142699917909766  1.0000
  C   C34       1.0  0.5163951743377027  0.1825980849873474  0.38573164340988353  1.0000
  C   C35       1.0  0.9836232000371512  0.1825980849873474  0.885731009254265  1.0000
  C   C36       1.0  0.4836034884687096  0.8174015562185842  0.6142680184931919  1.0000
  C   C37       1.0  0.1587844148950168  0.8945370776407626  0.0878977365054041  1.0000
  C   C38       1.0  0.658786293818878  0.1054663473148736  0.4121030982932368  1.0000
  C   C39       1.0  0.8412244379940077  0.1054710770020009  0.9121027412152786  1.0000
  C   C40       1.0  0.3412072739462246  0.8945304560787831  0.5878963973632452  1.0000
  C   C41       1.0  0.16406797273313606  0.8657408505347347  0.0433152222915538  1.0000
  C   C42       1.0  0.664069851656997  0.13426162848347897  0.4566852400137478  1.0000
  C   C43       1.0  0.8359255950319593  0.1342673041080289  0.9566846212735101  1.0000
  C   C44       1.0  0.3359237161080983  0.8657351749101848  0.5433145727205471  1.0000
  N   N1        1.0  0.8370719793266306  0.5979440735105399  0.8987662347433769  1.0000
  N   N2        1.0  0.3370879330473571  0.4020546217579692  0.6012317863551149  1.0000
  N   N3        1.0  0.1629037557938844  0.4020593514450965  0.1012314292771563  1.0000
  N   N4        1.0  0.6629362049655967  0.5979421816356875  0.39877024592384913  1.0000
  N   N5        1.0  0.9915281566290943  0.7094682040980941  0.82767484509251  1.0000
  N   N6        1.0  0.4915237301845751  0.2905285992955626  0.6723233822527278  1.0000
  N   N7        1.0  0.0084679586566594  0.2905408964820921  0.1723247368102747  1.0000
  N   N8        1.0  0.5084800276631398  0.7094587447238396  0.327676827559671  1.0000
  N   N9        1.0  0.9884482041574005  0.7127997957105876  0.9790879144701281  1.0000
  N   N10       1.0  0.48843613515092  0.2871988995579215  0.5209120090952268  1.0000
  N   N11       1.0  0.011535173525075503  0.2872055211199012  0.020912397003954194  1.0000
  N   N12       1.0  0.5115523375728657  0.7127960119608829  0.47908832696361964  1.0000
  Cl  Cl1       1.0  0.4638016104186989  0.9698951826404851  0.7979342045006916  1.0000
  Cl  Cl2       1.0  0.96380348934256  0.0301044585654466  0.7020635549355205  1.0000
  Cl  Cl3       1.0  0.5361995999083649  0.0301025666905943  0.2020643953378851  1.0000
  Cl  Cl4       1.0  0.0361977209845037  0.9698913988907875  0.2979362023832408  1.0000
  Cl  Cl5       1.0  0.7103328267487472  0.6744741949804194  0.7160281258533203  1.0000
  Cl  Cl6       1.0  0.21033604286619587  0.3255245002880898  0.7839714806342286  1.0000
  Cl  Cl7       1.0  0.2896760261402846  0.3255226084132445  0.2839701014919171  1.0000
  Cl  Cl8       1.0  0.7896600724195582  0.6744751409178419  0.21602754711322802  1.0000
  O   O1        1.0  0.2942157079471954  0.8673716466562382  0.952573356171257  1.0000
  O   O2        1.0  0.7942124918297397  0.1326232648625734  0.5474247603429133  1.0000
  O   O3        1.0  0.7057574796526682  0.1326327242368279  0.04742658280948581  1.0000
  O   O4        1.0  0.20576833833208505  0.8673659710316812  0.4525736578336819  1.0000
  F   F1        1.0  0.7170684713601221  0.5634703299768659  0.030542409545901695  1.0000
  F   F2        1.0  0.21706149739495126  0.43653025716649546  0.4694604785508147  1.0000
  F   F3        1.0  0.2829505716115223  0.4365330949787704  0.9694609618752281  1.0000
  F   F4        1.0  0.7829473554940736  0.5634712759142886  0.5305399283389464  1.0000
  F   F5        1.0  0.3013411232187552  0.006235619508672099  0.10692944403233892  1.0000
  F   F6        1.0  0.8013251694980357  0.9937668595095415  0.3930710182729626  1.0000
  F   F7        1.0  0.6986626346289597  0.9937744270089439  0.8930692420525477  1.0000
  F   F8        1.0  0.1986505656224793  0.006228052009262799  0.6069290007080783  1.0000
