data_image0
_chemical_formula_structural       Li8H40C56O24
_chemical_formula_sum              "Li8 H40 C56 O24"
_cell_length_a       7.139060690002379
_cell_length_b       10.486655372001968
_cell_length_c       16.171362910006874
_cell_angle_alpha    90.0000607712847
_cell_angle_beta     90.00008635687023
_cell_angle_gamma    89.99996434080686

_space_group_name_H-M_alt    "P 1"
_space_group_IT_number       1

loop_
  _space_group_symop_operation_xyz
  'x, y, z'

loop_
  _atom_site_type_symbol
  _atom_site_label
  _atom_site_symmetry_multiplicity
  _atom_site_fract_x
  _atom_site_fract_y
  _atom_site_fract_z
  _atom_site_occupancy
  Li  Li1       1.0  0.18862625386114473  0.519891578784062  0.4912093023088602  1.0000
  Li  Li2       1.0  0.6886251728960817  0.9801083552883233  0.008791413200533798  1.0000
  Li  Li3       1.0  0.8113743161245923  0.4801079629081927  0.9912081695775895  1.0000
  Li  Li4       1.0  0.3113737534103862  0.019891346629449903  0.5087908690458606  1.0000
  Li  Li5       1.0  0.8113734942847375  0.4801085198173995  0.5087905747577322  1.0000
  Li  Li6       1.0  0.3113745752508592  0.01989174331364301  0.9912090822431238  1.0000
  Li  Li7       1.0  0.18862683276474004  0.5198921356924586  0.0087910891123926  1.0000
  Li  Li8       1.0  0.6886273954799976  0.9801087519717132  0.4912090080211939  1.0000
  H   H1        1.0  0.3087568788908755  0.7420854089937166  0.5363818632515489  1.0000
  H   H2        1.0  0.8087575511479133  0.757915296566843  0.9636181340290902  1.0000
  H   H3        1.0  0.6912435421654096  0.2579143382980433  0.0363812967584991  1.0000
  H   H4        1.0  0.1912429248310161  0.2420851533435028  0.4636178417174363  1.0000
  H   H5        1.0  0.6912428692550066  0.25791468960773767  0.4636180138150436  1.0000
  H   H6        1.0  0.1912435977430889  0.24208575562771284  0.036382361415356  1.0000
  H   H7        1.0  0.3087576067239226  0.7420857603026081  0.9636179619314829  1.0000
  H   H8        1.0  0.8087568233148659  0.7579149452579516  0.536382035349156  1.0000
  H   H9        1.0  0.4812278007508796  0.6461587001639801  0.54170487774941  1.0000
  H   H10       1.0  0.981228366994529  0.8538419324720155  0.9582952345234261  1.0000
  H   H11       1.0  0.518772638441739  0.3538410558817874  0.0417042618826571  1.0000
  H   H12       1.0  0.0187720908491258  0.14615850868483454  0.45829537997815345  1.0000
  H   H13       1.0  0.5187719473960544  0.3538413984379859  0.4582956176942473  1.0000
  H   H14       1.0  0.018772781895421507  0.14615911972203582  0.04170464254395509  1.0000
  H   H15       1.0  0.4812285104475933  0.6461590427188642  0.9582949968073249  1.0000
  H   H16       1.0  0.9812290580412582  0.8538415899163285  0.5417044970889007  1.0000
  H   H17       1.0  0.6570980573491171  0.610099387695165  0.4033646980268841  1.0000
  H   H18       1.0  0.1570974549742772  0.8899024668937232  0.0966359964623962  1.0000
  H   H19       1.0  0.3429036140787147  0.38990287030944865  0.9033638096212967  1.0000
  H   H20       1.0  0.8429031713788363  0.11009737949027006  0.5966358684012505  1.0000
  H   H21       1.0  0.3429030915403928  0.38990261809177446  0.596635179040824  1.0000
  H   H22       1.0  0.8429022931737153  0.11009763170874726  0.9033651173583266  1.0000
  H   H23       1.0  0.6570961340661159  0.6100972282915013  0.0966354490682235  1.0000
  H   H24       1.0  0.15709657676809743  0.8899027191116959  0.4033646270424072  1.0000
  H   H25       1.0  0.3807744261584176  0.6871153599704486  0.3276115861523222  1.0000
  H   H26       1.0  0.8807740557884004  0.8128844928561847  0.1723880207148909  1.0000
  H   H27       1.0  0.6192255864237526  0.31288391267545285  0.8276114476739593  1.0000
  H   H28       1.0  0.11922542792101615  0.18711452451454144  0.6723880812142793  1.0000
  H   H29       1.0  0.6192253219864128  0.3128847386305012  0.6723876725371907  1.0000
  H   H30       1.0  0.11922569235748881  0.18711560574526945  0.8276118563517016  1.0000
  H   H31       1.0  0.3807727609770098  0.6871152323329073  0.17238781101476514  1.0000
  H   H32       1.0  0.8807757209698084  0.8128846204937261  0.3276117958524479  1.0000
  H   H33       1.0  0.5309498269959719  0.2832153368564364  0.3259647599371433  1.0000
  H   H34       1.0  0.03094964692447631  0.21678422256131574  0.17403489004274053  1.0000
  H   H35       1.0  0.4690501799761009  0.7167848866746882  0.8259654159963856  1.0000
  H   H36       1.0  0.9690512431401503  0.7832147975172818  0.6740346881570503  1.0000
  H   H37       1.0  0.46905132189441195  0.7167847617447195  0.674035117129911  1.0000
  H   H38       1.0  0.969050101221406  0.7832158760401389  0.8259649870238519  1.0000
  H   H39       1.0  0.5309495681693478  0.28321616551966144  0.1740344610705264  1.0000
  H   H40       1.0  0.03094990575066701  0.216784347490986  0.3259651889096844  1.0000
  C   C1        1.0  0.2806017375159938  0.39703624844666074  0.3397594710668343  1.0000
  C   C2        1.0  0.7806029188058192  0.10296320541184666  0.16023972698784664  1.0000
  C   C3        1.0  0.7193983164586515  0.6029630441784665  0.8397608345594278  1.0000
  C   C4        1.0  0.21939792425475  0.8970376991651325  0.6602391031424659  1.0000
  C   C5        1.0  0.7193980106292699  0.6029628965614012  0.660239787622359  1.0000
  C   C6        1.0  0.21939682934068125  0.8970378467830076  0.8397607684561379  1.0000
  C   C7        1.0  0.2806028324317396  0.3970370544226898  0.16023904250763368  1.0000
  C   C8        1.0  0.7806032246330904  0.10296335302789572  0.33975953717077795  1.0000
  C   C9        1.0  0.9778810892968011  0.5153722104983772  0.3395297077208852  1.0000
  C   C10       1.0  0.4778820183828217  0.9846256940823042  0.16046872713629057  1.0000
  C   C11       1.0  0.022117563152548304  0.4846251745639735  0.8395317621189662  1.0000
  C   C12       1.0  0.5221174247162282  0.015372350093599607  0.6604689387778677  1.0000
  C   C13       1.0  0.022115857359281708  0.4846250273239862  0.6604689325896514  1.0000
  C   C14       1.0  0.5221163290187435  0.015376311705736603  0.8395317683075518  1.0000
  C   C15       1.0  0.9778835857393207  0.5153739704448058  0.16046873332483358  1.0000
  C   C16       1.0  0.47788092268279325  0.9846306092863134  0.3395303199121642  1.0000
  C   C17       1.0  0.1328090803315405  0.45961482267159703  0.29498523313415587  1.0000
  C   C18       1.0  0.6328104715052166  0.040384693678454715  0.2050157215134192  1.0000
  C   C19       1.0  0.8671894203420933  0.5403843963181744  0.7949847972266111  1.0000
  C   C20       1.0  0.36718912337158127  0.9596162845365086  0.7050158573897389  1.0000
  C   C21       1.0  0.8671892670708987  0.5403852759306674  0.7050152623090397  1.0000
  C   C22       1.0  0.367189276641284  0.9596163585163997  0.7949847739305652  1.0000
  C   C23       1.0  0.13281032780422922  0.4596147486903919  0.20501507983965434  1.0000
  C   C24       1.0  0.6328092240325277  0.040384767659659815  0.29498587480792077  1.0000
  C   C25       1.0  0.81160281417894  0.5577279432416519  0.293567554359214  1.0000
  C   C26       1.0  0.31160393867070013  0.9422738460192905  0.2064338615212904  1.0000
  C   C27       1.0  0.18839568166117002  0.4422741341943849  0.793565980386461  1.0000
  C   C28       1.0  0.6883970617830715  0.05772427374860462  0.7064335946203499  1.0000
  C   C29       1.0  0.18839553322157346  0.44227406254587737  0.7064323227075562  1.0000
  C   C30       1.0  0.688397210221176  0.05772529898949591  0.7935666339225094  1.0000
  C   C31       1.0  0.8116040664840938  0.5577250108136697  0.2064332783027325  1.0000
  C   C32       1.0  0.3116012856219115  0.9422748712617874  0.2935681375766491  1.0000
  C   C33       1.0  0.6556467733581856  0.6062286992144907  0.3361761725278568  1.0000
  C   C34       1.0  0.1556463963605026  0.8937702952088036  0.16382390261583876  1.0000
  C   C35       1.0  0.3443532684052145  0.3937696339234337  0.8361759061128067  1.0000
  C   C36       1.0  0.8443544589132372  0.10622966167010624  0.6638237728764904  1.0000
  C   C37       1.0  0.344352974787519  0.39376949220067575  0.6638230861610166  1.0000
  C   C38       1.0  0.8443533517859976  0.10623075698605086  0.8361765928281455  1.0000
  C   C39       1.0  0.655646479740675  0.6062304646780209  0.16382397095377849  1.0000
  C   C40       1.0  0.15564668997714656  0.8937704369310571  0.3361761041905638  1.0000
  C   C41       1.0  0.5011599693143509  0.6518209263158214  0.2933553797151731  1.0000
  C   C42       1.0  0.0011597799799716  0.8481819478000151  0.20664521080534826  1.0000
  C   C43       1.0  0.4988399265486408  0.348181150771616  0.7933545667386142  1.0000
  C   C44       1.0  0.9988398204483675  0.15181712590835872  0.7066445968743622  1.0000
  C   C45       1.0  0.4988397788306572  0.3481810794714166  0.706644497352066  1.0000
  C   C46       1.0  0.998839968166962  0.15181815080195094  0.7933552846383092  1.0000
  C   C47       1.0  0.5011598215955716  0.6518179942359342  0.20664407357350703  1.0000
  C   C48       1.0  0.0011599276979553004  0.8481820191002074  0.29335528019189633  1.0000
  C   C49       1.0  0.42016486452432394  0.3314623646209754  0.2920183119202022  1.0000
  C   C50       1.0  0.9201647476607422  0.1685370302273698  0.2079809791855354  1.0000
  C   C51       1.0  0.5798350267864978  0.6685378030830196  0.7920190088401924  1.0000
  C   C52       1.0  0.07983625806409121  0.831462045677853  0.707980835810325  1.0000
  C   C53       1.0  0.5798348836215582  0.6685377339804789  0.7079815651463903  1.0000
  C   C54       1.0  0.0798335997395867  0.8314630683738785  0.7920182795035158  1.0000
  C   C55       1.0  0.4201647213589511  0.3314632491113232  0.207980868226727  1.0000
  C   C56       1.0  0.9201662915701763  0.16853709932961183  0.2920184228798063  1.0000
  O   O1        1.0  0.2962257807998228  0.39260973312357106  0.42023568491405416  1.0000
  O   O2        1.0  0.79622668384048  0.10738971412981614  0.0797647603117539  1.0000
  O   O3        1.0  0.703774547368859  0.6073896918489441  0.9202358042635126  1.0000
  O   O4        1.0  0.2037738850296478  0.892610104508414  0.5797647413981293  1.0000
  O   O5        1.0  0.703773967347118  0.6073903654783951  0.5797648105296032  1.0000
  O   O6        1.0  0.20377306430645353  0.8926103844721496  0.9202357351319037  1.0000
  O   O7        1.0  0.2962266015225765  0.3926104067527235  0.079764691180614  1.0000
  O   O8        1.0  0.7962258631172859  0.10738999409355192  0.42023575404552815  1.0000
  O   O9        1.0  0.9772256680317073  0.5289962566427777  0.41783603717924916  1.0000
  O   O10       1.0  0.4772263428019842  0.971003555404423  0.08216672588098109  1.0000
  O   O11       1.0  0.022774651955821002  0.4710031643808749  0.9178331356795084  1.0000
  O   O12       1.0  0.5227742342528998  0.028995313591309507  0.5821669472785942  1.0000
  O   O13       1.0  0.022772679374327302  0.47100288836812615  0.582166313394822  1.0000
  O   O14       1.0  0.5227720045985295  0.02899845038311351  0.917833151185789  1.0000
  O   O15       1.0  0.9772264969349963  0.5289959806273928  0.0821667413872191  1.0000
  O   O16       1.0  0.4772269146478366  0.9710028778286528  0.41783849518142796  1.0000
  O   O17       1.0  0.35456403055790997  0.6586688916630125  0.5168961701665467  1.0000
  O   O18       1.0  0.8545646927897579  0.8413308409363655  0.9831038576549459  1.0000
  O   O19       1.0  0.6454363241084025  0.34133082358378186  0.016896248570304796  1.0000
  O   O20       1.0  0.14543725032470436  0.15866964101915937  0.4831034777423113  1.0000
  O   O21       1.0  0.6454357175879724  0.3413312069384419  0.48310370690004584  1.0000
  O   O22       1.0  0.14543645610063297  0.15866925766479062  0.0168960194121084  1.0000
  O   O23       1.0  0.3545648247819814  0.6586692750173813  0.9831036284967494  1.0000
  O   O24       1.0  0.8545652993091296  0.8413304575811938  0.5168957809481468  1.0000
