data_image0
_chemical_formula_structural       Ag4H56C60S4N12O12
_chemical_formula_sum              "Ag4 H56 C60 S4 N12 O12"
_cell_length_a       6.739643338220161
_cell_length_b       9.048167415136081
_cell_length_c       24.243191624520815
_cell_angle_alpha    88.99619028756707
_cell_angle_beta     89.99923118677665
_cell_angle_gamma    89.99948740348403

_space_group_name_H-M_alt    "P 1"
_space_group_IT_number       1

loop_
  _space_group_symop_operation_xyz
  'x, y, z'

loop_
  _atom_site_type_symbol
  _atom_site_label
  _atom_site_symmetry_multiplicity
  _atom_site_fract_x
  _atom_site_fract_y
  _atom_site_fract_z
  _atom_site_occupancy
  Ag  Ag1       1.0  0.8980335502520306  0.9387770150656253  0.6618450491331059  1.0000
  Ag  Ag2       1.0  0.39801696754382476  0.06121602950278058  0.8381537297657216  1.0000
  Ag  Ag3       1.0  0.10198804223865918  0.06122828532556919  0.33815558685044766  1.0000
  Ag  Ag4       1.0  0.6019794011967577  0.938776088088815  0.16184445761982855  1.0000
  H   H1        1.0  0.2296966210792277  0.26075465825082483  0.9072594261333716  1.0000
  H   H2        1.0  0.7297218396642008  0.7392494156891658  0.5927407839094625  1.0000
  H   H3        1.0  0.7702878775380384  0.7392306934585446  0.09274290002758785  1.0000
  H   H4        1.0  0.270283431396848  0.2607613306481795  0.40726231627817083  1.0000
  H   H5        1.0  0.4493226994792323  0.47824991651465604  0.9065741486191567  1.0000
  H   H6        1.0  0.9493593621300604  0.5217540307943054  0.5934186416158126  1.0000
  H   H7        1.0  0.5506677340624934  0.5217352875382485  0.09343271551797017  1.0000
  H   H8        1.0  0.050653327802955096  0.4782612842928131  0.40657991169720714  1.0000
  H   H9        1.0  0.34787505465811813  0.7091933481653072  0.855306001900409  1.0000
  H   H10       1.0  0.8478927085333439  0.2908069268085569  0.644684699293961  1.0000
  H   H11       1.0  0.6521331840681127  0.2907886339267519  0.14469798104877185  1.0000
  H   H12       1.0  0.15212443272262993  0.7092051126755479  0.3553126230331215  1.0000
  H   H13       1.0  0.10894151054760208  0.8479132605809169  0.8015781512440225  1.0000
  H   H14       1.0  0.6089597188442538  0.1520895458342508  0.6984179743882634  1.0000
  H   H15       1.0  0.8910830494556309  0.1520842357025458  0.19842456298428596  1.0000
  H   H16       1.0  0.39106187377030466  0.8479114676350147  0.3015785450259897  1.0000
  H   H17       1.0  0.5567983917164695  0.6468295309090308  0.7542877144269082  1.0000
  H   H18       1.0  0.05681541988806771  0.35317909169923223  0.7457102442296344  1.0000
  H   H19       1.0  0.4432113306319181  0.3531856902371047  0.24571372670167335  1.0000
  H   H20       1.0  0.9432017215302152  0.6468086583728054  0.25428630181372813  1.0000
  H   H21       1.0  0.6505009211016386  0.415321156214425  0.8014516367912773  1.0000
  H   H22       1.0  0.15052488486553983  0.5846889121075234  0.6985505068931417  1.0000
  H   H23       1.0  0.34949247993754534  0.5846907625540255  0.19854939847857614  1.0000
  H   H24       1.0  0.8494818701453608  0.4153009277735364  0.3014497476313592  1.0000
  H   H25       1.0  0.22983189782940627  0.14870836774608878  0.6142521273725803  1.0000
  H   H26       1.0  0.7297868704119493  0.8512714161221524  0.885747306014039  1.0000
  H   H27       1.0  0.770185243279812  0.8513068131110016  0.385750551375075  1.0000
  H   H28       1.0  0.27018130677578966  0.14872272422940816  0.11425665260721014  1.0000
  H   H29       1.0  0.7314877789000961  0.18671056767247757  0.4701774848822706  1.0000
  H   H30       1.0  0.23144143909167517  0.8133071470997988  0.029827412243790295  1.0000
  H   H31       1.0  0.26852639459831806  0.8133022549888194  0.5298297362949212  1.0000
  H   H32       1.0  0.7685148682536252  0.18668618328036496  0.9701674726435241  1.0000
  H   H33       1.0  0.6818461883406427  0.016838137887574992  0.5532154677777185  1.0000
  H   H34       1.0  0.18180459340801033  0.9831685425492153  0.9467824406578554  1.0000
  H   H35       1.0  0.31817837171154645  0.9831594255035725  0.4467851837291405  1.0000
  H   H36       1.0  0.81816061642715  0.0168347353605469  0.05321242424727758  1.0000
  H   H37       1.0  0.35704487496695236  0.38312488587453686  0.4936769679151494  1.0000
  H   H38       1.0  0.8570029729373727  0.6168743844283071  0.006325434988717398  1.0000
  H   H39       1.0  0.642954461071838  0.6168892165999438  0.506324887995447  1.0000
  H   H40       1.0  0.14294146431374338  0.38310553494213206  0.9936740145287143  1.0000
  H   H41       1.0  0.4296289733141804  0.3317222568029123  0.5626072849041674  1.0000
  H   H42       1.0  0.9295940268078269  0.6682749605874746  0.9373926052746026  1.0000
  H   H43       1.0  0.5703688789635065  0.6682974123626834  0.4373933222842935  1.0000
  H   H44       1.0  0.07036524794892071  0.3317126554597678  0.06260806631929228  1.0000
  H   H45       1.0  0.2588730689462865  0.4783567064211026  0.550483947672525  1.0000
  H   H46       1.0  0.7588496640435878  0.5216371474128819  0.949518649175587  1.0000
  H   H47       1.0  0.7411322020530732  0.5216628687692973  0.449519547312178  1.0000
  H   H48       1.0  0.2411170296989482  0.47834405164857696  0.05047543500626259  1.0000
  H   H49       1.0  0.6210427216689922  0.884173678614303  0.7335974610440342  1.0000
  H   H50       1.0  0.12105118252055999  0.11583786355682689  0.7663994269394718  1.0000
  H   H51       1.0  0.37897441952139127  0.11582935753674661  0.26640482956177175  1.0000
  H   H52       1.0  0.8789585400751959  0.8841587556573174  0.2335962762818865  1.0000
  H   H53       1.0  0.7977435917910966  0.985941211932662  0.7652190011677147  1.0000
  H   H54       1.0  0.2977503190503655  0.014062548075159498  0.7347768303781803  1.0000
  H   H55       1.0  0.202275033206277  0.014061891321191004  0.2347812267138706  1.0000
  H   H56       1.0  0.7022653385904151  0.9859285178547376  0.2652197090127401  1.0000
  C   C1        1.0  0.0038603150540836993  0.3646088286139388  0.8577308283625197  1.0000
  C   C2        1.0  0.5038814252885969  0.6353979723667675  0.6422660939839699  1.0000
  C   C3        1.0  0.9961330861185189  0.6353921312620229  0.14226734128131815  1.0000
  C   C4        1.0  0.4961312646897084  0.3646062630340338  0.35773330660166625  1.0000
  C   C5        1.0  0.18325047563331512  0.3609995798061192  0.8852856465023106  1.0000
  C   C6        1.0  0.683283247986857  0.6390026297341435  0.6147135030784552  1.0000
  C   C7        1.0  0.816732539164093  0.6389912580651397  0.11471790620225866  1.0000
  C   C8        1.0  0.3167294419328215  0.36100486783347907  0.3852875410291431  1.0000
  C   C9        1.0  0.3081302366355558  0.48628312856854444  0.8850005443936905  1.0000
  C   C10       1.0  0.8081644781558737  0.5137182852580793  0.6149973156280522  1.0000
  C   C11       1.0  0.6918616807033757  0.5137021291656223  0.11500466956351116  1.0000
  C   C12       1.0  0.19184821171508298  0.4862958305939529  0.38500412771341513  1.0000
  C   C13       1.0  0.2509164397054279  0.6131181111077451  0.8572600509155986  1.0000
  C   C14       1.0  0.7509345336500672  0.3868793255954799  0.6427359680847073  1.0000
  C   C15       1.0  0.7490947665564675  0.3868638978176193  0.14274310693948414  1.0000
  C   C16       1.0  0.24907370510319274  0.613128319623712  0.3572605380439524  1.0000
  C   C17       1.0  0.065416131529382  0.6222533137673023  0.8296751773034711  1.0000
  C   C18       1.0  0.5654404321922825  0.3777529072700787  0.6703268791671417  1.0000
  C   C19       1.0  0.9345935908966183  0.37774195857483756  0.17032795393352976  1.0000
  C   C20       1.0  0.4345707740834257  0.6222502899589699  0.3296704609182014  1.0000
  C   C21       1.0  0.0080836229240049  0.7535354551047531  0.8012958442081836  1.0000
  C   C22       1.0  0.5080947657410703  0.24646142421813272  0.6986994322374824  1.0000
  C   C23       1.0  0.9919379695762416  0.24646317331588113  0.1987060427186619  1.0000
  C   C24       1.0  0.4919268268832795  0.7535396026726815  0.3012966746324749  1.0000
  C   C25       1.0  0.8293561902039172  0.7610815481668283  0.7734655957923164  1.0000
  C   C26       1.0  0.32937252080463253  0.23892416046756168  0.7265317638987341  1.0000
  C   C27       1.0  0.170659467195982  0.23892701441074138  0.2265366837242268  1.0000
  C   C28       1.0  0.6706505556363851  0.7610736042515426  0.2734626994465116  1.0000
  C   C29       1.0  0.7003738061849558  0.637631493589218  0.7746360004690584  1.0000
  C   C30       1.0  0.20039911787431916  0.3623826807868511  0.7253655363017584  1.0000
  C   C31       1.0  0.2996373999214725  0.3623837275520286  0.22536544065676614  1.0000
  C   C32       1.0  0.7996165397436955  0.6376105822901579  0.2746314111966369  1.0000
  C   C33       1.0  0.75278323035036  0.5082127641842787  0.8015203524879266  1.0000
  C   C34       1.0  0.2528068131464778  0.49179563251880126  0.6984781126406998  1.0000
  C   C35       1.0  0.24721907325665876  0.49179918139792284  0.19847985767678714  1.0000
  C   C36       1.0  0.747210328180735  0.5082009061416812  0.3015200658326051  1.0000
  C   C37       1.0  0.9365623849475638  0.49557913196080966  0.8297302019643522  1.0000
  C   C38       1.0  0.4365916193170136  0.5044301439909661  0.6702712880822189  1.0000
  C   C39       1.0  0.0634369511692014  0.5044250497978169  0.17027084882328572  1.0000
  C   C40       1.0  0.5634270056966386  0.4955718674001019  0.3297285294734775  1.0000
  C   C41       1.0  0.11509802136797728  0.1606979770413162  0.5827981676319991  1.0000
  C   C42       1.0  0.6150486632061741  0.8392837081135839  0.917200452643321  1.0000
  C   C43       1.0  0.8849161522480528  0.8393183493744798  0.4172032712698978  1.0000
  C   C44       1.0  0.3849135790437685  0.160702762374946  0.08280145879633237  1.0000
  C   C45       1.0  0.1351039667863958  0.26361570975672066  0.5391312120863245  1.0000
  C   C46       1.0  0.6350567045315855  0.7363801586271704  0.9608689551145272  1.0000
  C   C47       1.0  0.8649057555619919  0.7363995113894076  0.460870229042257  1.0000
  C   C48       1.0  0.36489960274800387  0.2636008257238984  0.03913172979530798  1.0000
  C   C49       1.0  0.8400179720384812  0.18242562977293628  0.5035271851424097  1.0000
  C   C50       1.0  0.33997744284425835  0.8175865063127785  0.9964742471323047  1.0000
  C   C51       1.0  0.15998729893432542  0.8175816530745192  0.49648045968764604  1.0000
  C   C52       1.0  0.6599788645498775  0.18240354847901585  0.0035194067773502992  1.0000
  C   C53       1.0  0.8138335980667933  0.0854789035425867  0.5482278993719588  1.0000
  C   C54       1.0  0.3138029630222263  0.9145266927453192  0.9517761188485704  1.0000
  C   C55       1.0  0.1861835430290952  0.9145284597950007  0.45177727017026814  1.0000
  C   C56       1.0  0.6861622467995973  0.08546876764494729  0.04822123685113408  1.0000
  C   C57       1.0  0.3062756725553299  0.36878879784514845  0.5363960197930806  1.0000
  C   C58       1.0  0.8062384266707029  0.6312069543739368  0.9636063963385408  1.0000
  C   C59       1.0  0.6937221797190531  0.6312297526145871  0.4636050021580757  1.0000
  C   C60       1.0  0.1937134293543394  0.36877405683486597  0.036393463490980986  1.0000
  S   S1        1.0  0.8639291392049557  0.197629614141718  0.854870243402061  1.0000
  S   S2        1.0  0.3639337939865257  0.8023725106901337  0.6451282320109468  1.0000
  S   S3        1.0  0.13607019706492446  0.8023669782635565  0.14512628492719404  1.0000
  S   S4        1.0  0.6360699934434064  0.19762838204393768  0.35487200033503524  1.0000
  N   N1        1.0  0.7699138287445634  0.8907234554724041  0.7433569858455013  1.0000
  N   N2        1.0  0.26992135042537774  0.1092826984091744  0.7566389447698821  1.0000
  N   N3        1.0  0.23010331246551632  0.109282950217775  0.25664364792792327  1.0000
  N   N4        1.0  0.7300913397060427  0.8907139476382754  0.24335593335737116  1.0000
  N   N5        1.0  0.9533044857621106  0.07457380638179249  0.5878912066685442  1.0000
  N   N6        1.0  0.4532592984759702  0.9254199660877164  0.9121077770391037  1.0000
  N   N7        1.0  0.046724525437277  0.9254336106028584  0.41211231267444487  1.0000
  N   N8        1.0  0.5467177813286811  0.0745776108813416  0.08789246201175868  1.0000
  N   N9        1.0  0.9968745082633886  0.27269389077267187  0.4991269010645991  1.0000
  N   N10       1.0  0.4968320552960889  0.7273055235287414  0.0008762171837090997  1.0000
  N   N11       1.0  0.0031277952131603  0.7273201043197303  0.5008782551948059  1.0000
  N   N12       1.0  0.503116833304176  0.27267338449347994  0.9991203467338107  1.0000
  O   O1        1.0  0.6619474723894496  0.23395211715335043  0.8731427770996941  1.0000
  O   O2        1.0  0.1619638179085285  0.7660393409737977  0.6268515233968299  1.0000
  O   O3        1.0  0.3380459289103185  0.7660456745065573  0.1268508612121551  1.0000
  O   O4        1.0  0.838037001959549  0.2339592606721723  0.37315118865723196  1.0000
  O   O5        1.0  0.8672677715116066  0.15658430409965965  0.7956218978856808  1.0000
  O   O6        1.0  0.3672646540609534  0.8434222333258817  0.704376143706433  1.0000
  O   O7        1.0  0.13273453220287473  0.8434211037273586  0.20437543777941156  1.0000
  O   O8        1.0  0.6327391334175801  0.1565686984277335  0.2956245211494703  1.0000
  O   O9        1.0  0.965263680227359  0.08827405787668849  0.8902005425443914  1.0000
  O   O10       1.0  0.4652731827194642  0.9117297039932312  0.6097946637172382  1.0000
  O   O11       1.0  0.03472081851743519  0.9117181537047614  0.10979475705319426  1.0000
  O   O12       1.0  0.534736539602612  0.0882799102020542  0.3902092637691083  1.0000
