data_image0
_chemical_formula_structural       Zn8H72C72N8O26
_chemical_formula_sum              "Zn8 H72 C72 N8 O26"
_cell_length_a       17.76112236675226
_cell_length_b       18.632178230279138
_cell_length_c       23.465187911449387
_cell_angle_alpha    66.83204751694056
_cell_angle_beta     69.80863273780406
_cell_angle_gamma    89.94372214743358

_space_group_name_H-M_alt    "P 1"
_space_group_IT_number       1

loop_
  _space_group_symop_operation_xyz
  'x, y, z'

loop_
  _atom_site_type_symbol
  _atom_site_label
  _atom_site_symmetry_multiplicity
  _atom_site_fract_x
  _atom_site_fract_y
  _atom_site_fract_z
  _atom_site_occupancy
  Zn  Zn1       1.0  0.11720112175888182  0.5306721317700962  0.9420738046111411  1.0000
  Zn  Zn2       1.0  0.9717219229330709  0.5583026641437174  0.05208498601049875  1.0000
  Zn  Zn3       1.0  0.9750295372320892  0.3896657589650161  0.0517667642187547  1.0000
  Zn  Zn4       1.0  0.9394749910448966  0.530542026860779  0.9350058345902994  1.0000
  Zn  Zn5       1.0  0.3857716522100888  0.9773320072479523  0.050237223913690184  1.0000
  Zn  Zn6       1.0  0.5293081885297967  0.11497340712261211  0.9369007569871927  1.0000
  Zn  Zn7       1.0  0.52328696362936  0.9468250251872021  0.9373930002410803  1.0000
  Zn  Zn8       1.0  0.566104846096394  0.9726102491410555  0.051768585354899706  1.0000
  H   H1        1.0  0.43277206728291884  0.805932409663406  0.3905001859919253  1.0000
  H   H2        1.0  0.19472044966687463  0.8049112227432645  0.38106678396944443  1.0000
  H   H3        1.0  0.31805392567633833  0.6914580771945683  0.6101000270389321  1.0000
  H   H4        1.0  0.08137713384931544  0.7043429236031145  0.5979607518558155  1.0000
  H   H5        1.0  0.6985155689636215  0.08340839187420099  0.6024475335940167  1.0000
  H   H6        1.0  0.7022359118307407  0.3131013032614901  0.6055160090114101  1.0000
  H   H7        1.0  0.8122071954529275  0.1916673158718893  0.3865055791100928  1.0000
  H   H8        1.0  0.8045544258129452  0.42277693607935163  0.3865843547592078  1.0000
  H   H9        1.0  0.19629504741727297  0.3010986128411233  0.9122311904869065  1.0000
  H   H10       1.0  0.12517329155936352  0.22917955510231278  0.9880816854109612  1.0000
  H   H11       1.0  0.21529789237475686  0.13804663391267272  0.9843106394098625  1.0000
  H   H12       1.0  0.2863587247220849  0.2108062915762758  0.9089913462645001  1.0000
  H   H13       1.0  0.2153618395943724  0.1240414975388973  0.09502139529183748  1.0000
  H   H14       1.0  0.2873535723188638  0.1848466303487868  0.09939751513647371  1.0000
  H   H15       1.0  0.12661973062265022  0.2167720039850281  0.09866745023294497  1.0000
  H   H16       1.0  0.20004486866275778  0.277884676896079  0.10117460540917733  1.0000
  H   H17       1.0  0.3009252307045003  0.3904671856388902  0.915236743213363  1.0000
  H   H18       1.0  0.3023635483316626  0.382425601518257  0.9920433746893096  1.0000
  H   H19       1.0  0.3912733542403117  0.2899256427790462  0.9908300988015526  1.0000
  H   H20       1.0  0.39089440492647043  0.29933391032221834  0.9134599288270592  1.0000
  H   H21       1.0  0.8902453337500589  0.7993813962876929  0.9068383581652026  1.0000
  H   H22       1.0  0.886817052656788  0.7869558935024941  0.9864861448534088  1.0000
  H   H23       1.0  0.7979121811150379  0.8797836383737306  0.9869296283589007  1.0000
  H   H24       1.0  0.8009979085469753  0.8905882881347723  0.9077575189725735  1.0000
  H   H25       1.0  0.6949590140617445  0.776668243802618  0.09176798663342815  1.0000
  H   H26       1.0  0.6223751484405257  0.7153600198496834  0.0884331132816384  1.0000
  H   H27       1.0  0.7819488364564577  0.6822445819010171  0.09112748167835595  1.0000
  H   H28       1.0  0.7100183509414107  0.6228447481632811  0.08541831330580864  1.0000
  H   H29       1.0  0.7892225648880995  0.7129724983923397  0.8979743856714464  1.0000
  H   H30       1.0  0.7161821077804619  0.6396897253782114  0.970329665177971  1.0000
  H   H31       1.0  0.625945979426348  0.7306410156533473  0.9737756038569144  1.0000
  H   H32       1.0  0.698233405490477  0.8032897296533862  0.900596582411964  1.0000
  H   H33       1.0  0.16087376639698903  0.7920626600623919  0.9380460087166965  1.0000
  H   H34       1.0  0.24544994776829304  0.7562803569362871  0.8970571722122854  1.0000
  H   H35       1.0  0.33253586022010506  0.8525758924402639  0.8943852894119573  1.0000
  H   H36       1.0  0.24751962884364087  0.8874238450749419  0.9358788133108149  1.0000
  H   H37       1.0  0.3943281037233108  0.74501049977318  0.9608133363934854  1.0000
  H   H38       1.0  0.3535061371335217  0.7042831827608396  0.0490506032485598  1.0000
  H   H39       1.0  0.3064085178707074  0.6486002795113349  0.9638346882441624  1.0000
  H   H40       1.0  0.26602760467760334  0.6088915891832869  0.05201495817060923  1.0000
  H   H41       1.0  0.10165669787150483  0.7346203688808117  0.06511573192234009  1.0000
  H   H42       1.0  0.14424113882748915  0.6596296644265254  0.11178435303406069  1.0000
  H   H43       1.0  0.23231675820787961  0.7550791605130344  0.10911331214817459  1.0000
  H   H44       1.0  0.18922341652753266  0.8299616782980409  0.06293538922439267  1.0000
  H   H45       1.0  0.8998832793597842  0.2672308478426686  0.9296243887084685  1.0000
  H   H46       1.0  0.855519658995341  0.3429904616687481  0.8844599034808098  1.0000
  H   H47       1.0  0.7692944248414834  0.2473484827181878  0.8855291596808995  1.0000
  H   H48       1.0  0.8131109737211872  0.17205468297711232  0.9316794804396623  1.0000
  H   H49       1.0  0.6495646995174981  0.297574049642698  0.9447687027218805  1.0000
  H   H50       1.0  0.606528865352317  0.2571798815387893  0.032898970279305204  1.0000
  H   H51       1.0  0.7361207879499788  0.3923154305656524  0.9449408888266503  1.0000
  H   H52       1.0  0.6934860772585906  0.3503956591207853  0.03308171239579847  1.0000
  H   H53       1.0  0.8399067569184525  0.20626139755395914  0.05669669314088557  1.0000
  H   H54       1.0  0.7562843081539158  0.24041454037498514  0.09943144227722196  1.0000
  H   H55       1.0  0.6677583032491797  0.14709515127291442  0.10027935256772477  1.0000
  H   H56       1.0  0.7514131300675262  0.11187061371960991  0.05880570632751864  1.0000
  H   H57       1.0  0.5408593511112373  0.8940738691667818  0.21190669955763747  1.0000
  H   H58       1.0  0.5462977118399195  0.8575678460137723  0.29201198538871137  1.0000
  H   H59       1.0  0.2659391769341397  0.9007251238095079  0.20237986934839822  1.0000
  H   H60       1.0  0.18267123803423152  0.8597504851322029  0.2789112551447488  1.0000
  H   H61       1.0  0.24365939784162546  0.607154622185533  0.7893123662210683  1.0000
  H   H62       1.0  0.32818197283575057  0.6435097248767149  0.7132813338178751  1.0000
  H   H63       1.0  0.9709173816517663  0.6110918126514663  0.7755836321733156  1.0000
  H   H64       1.0  0.9672319621911286  0.6525090019612065  0.6952245481089676  1.0000
  H   H65       1.0  0.6087449973353856  0.9752035955410678  0.7810174812419816  1.0000
  H   H66       1.0  0.6496050822239073  0.9719704389920879  0.7024339777504237  1.0000
  H   H67       1.0  0.5977189516858347  0.24033086957030755  0.7831411415460181  1.0000
  H   H68       1.0  0.6434961696417928  0.3224975308126403  0.7061134270849295  1.0000
  H   H69       1.0  0.8925961750598005  0.2628620001081785  0.20749601565712797  1.0000
  H   H70       1.0  0.8571515843938825  0.18083806871996447  0.28587315549273745  1.0000
  H   H71       1.0  0.8948602059888345  0.529078427013971  0.20802584968340906  1.0000
  H   H72       1.0  0.8563017489491714  0.5330862397875435  0.2864047648653808  1.0000
  C   C1        1.0  0.1416411290395132  0.634723110973269  0.0035704097628083704  1.0000
  C   C2        1.0  0.9073354047337006  0.4104587359055145  0.17857464921852537  1.0000
  C   C3        1.0  0.14358567729644284  0.36382253306066303  0.0017125822848313536  1.0000
  C   C4        1.0  0.8612488910673051  0.36623681278658177  0.9899526403368171  1.0000
  C   C5        1.0  0.09194432495626613  0.5943425853651834  0.8119086737242327  1.0000
  C   C6        1.0  0.8604256023273822  0.6426832181457699  0.9899584155113315  1.0000
  C   C7        1.0  0.3606776626389775  0.14208268251471884  0.9966169401516255  1.0000
  C   C8        1.0  0.5861542699039648  0.09309715522852709  0.8109622135392625  1.0000
  C   C9        1.0  0.3553621159058552  0.8643797686610882  0.9977989591273085  1.0000
  C   C10       1.0  0.642671180122214  0.8645251591819233  0.9934415713752073  1.0000
  C   C11       1.0  0.41821382930118034  0.912159951176058  0.1777592506437242  1.0000
  C   C12       1.0  0.6474337832886335  0.1395449167658072  0.9914666244407185  1.0000
  C   C13       1.0  0.3817217807935336  0.8735802398089306  0.2508732397459496  1.0000
  C   C14       1.0  0.43111420089645947  0.85452524018541  0.2909122262495247  1.0000
  C   C15       1.0  0.39453240851327825  0.8195408814239898  0.36108123518514645  1.0000
  C   C16       1.0  0.30981282014328576  0.8020650700215839  0.3935331254058383  1.0000
  C   C17       1.0  0.2605605265505275  0.8191317173117767  0.35576098003375006  1.0000
  C   C18       1.0  0.2946453482156599  0.8541050665962757  0.28560911916983395  1.0000
  C   C19       1.0  0.2734142328268661  0.7670353206517646  0.4644628176582656  1.0000
  C   C20       1.0  0.2408715486285402  0.7369209739418849  0.5253852080894532  1.0000
  C   C21       1.0  0.20377788129370344  0.7017876486757545  0.596265199913411  1.0000
  C   C22       1.0  0.2521374954086397  0.680890763258816  0.6347743051056013  1.0000
  C   C23       1.0  0.21698562340102262  0.6458046934181637  0.7049310129614811  1.0000
  C   C24       1.0  0.1297755197930783  0.6308392464101757  0.7388149802979171  1.0000
  C   C25       1.0  0.08136270711838024  0.6531114795641672  0.6979932869429035  1.0000
  C   C26       1.0  0.11893069761832462  0.6878016520652466  0.6279551069282618  1.0000
  C   C27       1.0  0.6266988138636336  0.1299679766293949  0.738317129033284  1.0000
  C   C28       1.0  0.6466591270785005  0.0827998383468369  0.7004883490584034  1.0000
  C   C29       1.0  0.6845987536097058  0.1195441070479433  0.6305907429780788  1.0000
  C   C30       1.0  0.7038780742435548  0.20202386954861853  0.5965501298399403  1.0000
  C   C31       1.0  0.6863000215463871  0.24903093776124058  0.6322642847742941  1.0000
  C   C32       1.0  0.6482279723223601  0.21469664017600823  0.7021693692610569  1.0000
  C   C33       1.0  0.7404514474304166  0.23784786075881215  0.5258152681005512  1.0000
  C   C34       1.0  0.7706624926968929  0.26831845961034867  0.4648351492267936  1.0000
  C   C35       1.0  0.8048855234212695  0.30353021067109137  0.3939864330447875  1.0000
  C   C36       1.0  0.8234977724603496  0.25575843232780937  0.35900349659921454  1.0000
  C   C37       1.0  0.8568417695145811  0.2893740759471158  0.2888411885716166  1.0000
  C   C38       1.0  0.8723880793361831  0.37417813853856075  0.2515897882777763  1.0000
  C   C39       1.0  0.8526159676408226  0.4219807035465025  0.2889144162875399  1.0000
  C   C40       1.0  0.8195378705253589  0.38598067172760864  0.3590631353235166  1.0000
  C   C41       1.0  0.18851882836151657  0.25905046892336975  0.9631303865451244  1.0000
  C   C42       1.0  0.24829529506315856  0.19852149440075811  0.9610055800873951  1.0000
  C   C43       1.0  0.3035765194042099  0.2028590343635059  0.9985040992558113  1.0000
  C   C44       1.0  0.24885490066169075  0.18427452162389812  0.07149932442988666  1.0000
  C   C45       1.0  0.19018487378155416  0.24567627886642646  0.0732182745066083  1.0000
  C   C46       1.0  0.20359314903177508  0.30538446140975134  0.0014743391413958085  1.0000
  C   C47       1.0  0.2918527895265727  0.3477853199703845  0.9661152596277207  1.0000
  C   C48       1.0  0.3510287782894821  0.2869993539081791  0.9649542273479242  1.0000
  C   C49       1.0  0.8489368734243501  0.7857764392325423  0.9583578838093771  1.0000
  C   C50       1.0  0.7896022392068006  0.8469907845299789  0.9589806437947884  1.0000
  C   C51       1.0  0.7008233984936184  0.804438168028689  0.9916181388859543  1.0000
  C   C52       1.0  0.6860529736979118  0.7444072104029473  0.0636439279989957  1.0000
  C   C53       1.0  0.744370143779712  0.6827878226034656  0.062445178954561587  1.0000
  C   C54       1.0  0.8007014520152682  0.7014902450954068  0.9897541317488033  1.0000
  C   C55       1.0  0.7489977851940494  0.6998257919744902  0.9495611791793905  1.0000
  C   C56       1.0  0.6892343892796264  0.7601179746524521  0.951342343508543  1.0000
  C   C57       1.0  0.21802454722563172  0.7706696684887504  0.940202944347469  1.0000
  C   C58       1.0  0.2758571362495204  0.8342552676087891  0.9385569506119041  1.0000
  C   C59       1.0  0.2965689847425068  0.8013215211792615  0.0021186948710649003  1.0000
  C   C60       1.0  0.33731439286192005  0.727377087420365  0.004561363207010039  1.0000
  C   C61       1.0  0.2790865090861915  0.6637917492333048  0.006488376523833421  1.0000
  C   C62       1.0  0.19867345413305773  0.6942268954549962  0.005172579116766748  1.0000
  C   C63       1.0  0.15944846670296198  0.7140487644033443  0.06561631911060316  1.0000
  C   C64       1.0  0.21760592424257655  0.7773049105395488  0.06396371401082486  1.0000
  C   C65       1.0  0.8417631377815982  0.28775144101395983  0.929735736298582  1.0000
  C   C66       1.0  0.7840030286849853  0.2244755558868832  0.9306527598145423  1.0000
  C   C67       1.0  0.704216440782183  0.19956097460855912  0.9928876163264063  1.0000
  C   C68       1.0  0.6643965639160285  0.27415681579019247  0.9897754819269409  1.0000
  C   C69       1.0  0.7221242289132733  0.3365781447455945  0.9897072050695711  1.0000
  C   C70       1.0  0.8019125066216405  0.3053300064484433  0.9919358215184957  1.0000
  C   C71       1.0  0.7828166014448642  0.2278461069512474  0.05517300672501343  1.0000
  C   C72       1.0  0.7244549000864  0.16561420138940972  0.056029337277585925  1.0000
  N   N1        1.0  0.5137163818939287  0.8704750762759873  0.26249385135099595  1.0000
  N   N2        1.0  0.24270428013293352  0.8666547809151054  0.25237553244529204  1.0000
  N   N3        1.0  0.2679273576376744  0.6249559888832295  0.7390097659026296  1.0000
  N   N4        1.0  0.9985819192589035  0.643264767354367  0.7254712147153768  1.0000
  N   N5        1.0  0.6275434180390604  0.0023514088285238963  0.7304309224687913  1.0000
  N   N6        1.0  0.6348761401795288  0.26368265449869444  0.7341190101546572  1.0000
  N   N7        1.0  0.875218600177199  0.23950805358482802  0.2579696705707518  1.0000
  N   N8        1.0  0.8632116446563813  0.5025227110491102  0.2581431338587662  1.0000
  O   O1        1.0  0.0004067260200102012  0.5027689780989987  0.9941707670257784  1.0000
  O   O2        1.0  0.1723389767163326  0.6033254263410156  0.9628036694757612  1.0000
  O   O3        1.0  0.9256668550227757  0.48659114940888076  0.14720238634572522  1.0000
  O   O4        1.0  0.07044729045396993  0.33574274822589706  0.04280199116927006  1.0000
  O   O5        1.0  0.06719499784637857  0.622409795649453  0.041577113980650976  1.0000
  O   O6        1.0  0.17016284292810727  0.43572062680213014  0.9599890086503677  1.0000
  O   O7        1.0  0.9192433212659736  0.3658420419449371  0.14667347918769016  1.0000
  O   O8        1.0  0.9026450717464842  0.33956844872765407  0.0265255123478809  1.0000
  O   O9        1.0  0.013666020435117303  0.5758557730855998  0.8405919993529523  1.0000
  O   O10       1.0  0.8663955530993093  0.43869738747545034  0.9512293888237552  1.0000
  O   O11       1.0  0.13788705496642714  0.5813907187848955  0.8462653929356492  1.0000
  O   O12       1.0  0.8969854879545024  0.6320084567948995  0.030273770891888332  1.0000
  O   O13       1.0  0.8699551388547917  0.6092430185824824  0.9503745674865413  1.0000
  O   O14       1.0  0.5015415048154991  0.0022059520228481064  0.9953936326459712  1.0000
  O   O15       1.0  0.3288917814127643  0.06927528424169081  0.030596773161441583  1.0000
  O   O16       1.0  0.5596867903984445  0.13708522176226978  0.8424633596285602  1.0000
  O   O17       1.0  0.42588180663295117  0.8823277181698261  0.9516280686914842  1.0000
  O   O18       1.0  0.4357192283367155  0.16822125623905038  0.9610295005686069  1.0000
  O   O19       1.0  0.3301713133727375  0.8949553599036052  0.03963299898148155  1.0000
  O   O20       1.0  0.577084537671631  0.017034673071421508  0.8424808522353757  1.0000
  O   O21       1.0  0.5997943523333547  0.8741857974500604  0.9580362937852057  1.0000
  O   O22       1.0  0.4964149889568361  0.9225978880428941  0.14764812282673012  1.0000
  O   O23       1.0  0.6410749678560493  0.9003254157985907  0.030411318900980956  1.0000
  O   O24       1.0  0.37102739026589404  0.9355094462244294  0.14480611710748542  1.0000
  O   O25       1.0  0.6191390319939102  0.1655958947535581  0.9451125909773311  1.0000
  O   O26       1.0  0.6325966215667195  0.06865956634685938  0.03577780533871791  1.0000
