data_image0
_chemical_formula_structural       La2H48C70S4N8O18
_chemical_formula_sum              "La2 H48 C70 S4 N8 O18"
_cell_length_a       11.215597967627254
_cell_length_b       11.705779165197072
_cell_length_c       13.999928124588077
_cell_angle_alpha    108.47764289562708
_cell_angle_beta     91.5675659633575
_cell_angle_gamma    113.38476255259

_space_group_name_H-M_alt    "P 1"
_space_group_IT_number       1

loop_
  _space_group_symop_operation_xyz
  'x, y, z'

loop_
  _atom_site_type_symbol
  _atom_site_label
  _atom_site_symmetry_multiplicity
  _atom_site_fract_x
  _atom_site_fract_y
  _atom_site_fract_z
  _atom_site_occupancy
  La  La1       1.0  0.845717216613643  0.641701479928834  0.15146893113630008  1.0000
  La  La2       1.0  0.154280307447273  0.35830111246089313  0.8485326147949055  1.0000
  H   H1        1.0  0.5262644168995793  0.6222892810181336  0.11559091319295335  1.0000
  H   H2        1.0  0.4737357775661906  0.37771330131563036  0.8844099715071325  1.0000
  H   H3        1.0  0.3868904397479014  0.733764798614722  0.08795987974286136  1.0000
  H   H4        1.0  0.6131084722675908  0.26623478233148035  0.9120373307666869  1.0000
  H   H5        1.0  0.4986024649395519  0.9669096430140985  0.08499587831464353  1.0000
  H   H6        1.0  0.5013959378845741  0.033092932102704316  0.9150021099353086  1.0000
  H   H7        1.0  0.7054377933897911  0.15907657128373393  0.09336979515138924  1.0000
  H   H8        1.0  0.2945632446710892  0.8409279980541347  0.906630201738189  1.0000
  H   H9        1.0  0.9482852051271565  0.2567988534830335  0.10194818399919117  1.0000
  H   H10       1.0  0.051718091288236775  0.7432047242290454  0.8980544560824132  1.0000
  H   H11       1.0  0.16097695628228345  0.23691641915696965  0.11568660713101768  1.0000
  H   H12       1.0  0.8390219327491127  0.7630851809815555  0.8843168488966245  1.0000
  H   H13       1.0  0.2809786822585495  0.10449122438912896  0.13541886969503747  1.0000
  H   H14       1.0  0.7190210928464681  0.8955103674256436  0.8645831740397798  1.0000
  H   H15       1.0  0.15289021987818066  0.8843372875107249  0.1570156067100115  1.0000
  H   H16       1.0  0.847110481342156  0.11566229766938112  0.8429837851201898  1.0000
  H   H17       1.0  0.8310787685362797  0.9441001668825778  0.30587213367525834  1.0000
  H   H18       1.0  0.16892235204481656  0.055900408816519614  0.6941260991202116  1.0000
  H   H19       1.0  0.8352251830363429  0.08809608970059911  0.48131038760435285  1.0000
  H   H20       1.0  0.16477283803192952  0.911903493603241  0.5186868049390727  1.0000
  H   H21       1.0  0.8432867777367149  0.009028973882514904  0.626718417774484  1.0000
  H   H22       1.0  0.15671209180027307  0.9909726023915443  0.3732793172173744  1.0000
  H   H23       1.0  0.8494825182287331  0.8325946318531265  0.6858995957861681  1.0000
  H   H24       1.0  0.15052072596095203  0.16741092925457934  0.31410070825986497  1.0000
  H   H25       1.0  0.8549809777137938  0.6120699712776273  0.648474094132631  1.0000
  H   H26       1.0  0.14502095616791888  0.38793460166871807  0.3515273509820106  1.0000
  H   H27       1.0  0.8556172325862123  0.4115527833352175  0.5245777228483848  1.0000
  H   H28       1.0  0.14438161152988027  0.5884508091480998  0.47542554253210084  1.0000
  H   H29       1.0  0.8390252670292923  0.27300272394288083  0.3389384556618965  1.0000
  H   H30       1.0  0.16097403892605675  0.7269998637315782  0.6610631262015476  1.0000
  H   H31       1.0  0.8321266772899849  0.37142054220656484  0.2056076451860848  1.0000
  H   H32       1.0  0.16787657177330575  0.6285850248672631  0.794394089118889  1.0000
  H   H33       1.0  0.5009212912146097  0.6265349138761779  0.2960455352149369  1.0000
  H   H34       1.0  0.4990837895320297  0.3734686621036972  0.7039578559283871  1.0000
  H   H35       1.0  0.5076644968916995  0.2839430473236107  0.34529988916814613  1.0000
  H   H36       1.0  0.49232611198397097  0.716049587287927  0.6546988906225341  1.0000
  H   H37       1.0  0.4997775754616285  0.2710132653215284  0.5203335356795054  1.0000
  H   H38       1.0  0.5002174529820496  0.7289813617788641  0.4796680038124992  1.0000
  H   H39       1.0  0.29260779535792397  0.7561271650495416  0.47657356045158417  1.0000
  H   H40       1.0  0.7073934028697765  0.24386941104467047  0.5234214779908302  1.0000
  H   H41       1.0  0.36431647647975757  0.9214915166781097  0.23846189895447625  1.0000
  H   H42       1.0  0.635686081844831  0.07850406119878531  0.761533619325441  1.0000
  H   H43       1.0  0.5615157343057645  0.11748083012946611  0.35204159998099993  1.0000
  H   H44       1.0  0.4384899210948421  0.8825157371596294  0.6479542434214881  1.0000
  H   H45       1.0  0.7490516706663045  0.48625389611000014  0.9140050677944419  1.0000
  H   H46       1.0  0.25095127672453543  0.5137446825290298  0.08599339158042346  1.0000
  H   H47       1.0  0.6782918628364741  0.5838083213449041  0.9357520137288379  1.0000
  H   H48       1.0  0.32171282153350234  0.41619224492365703  0.06424629093110211  1.0000
  C   C1        1.0  0.571947661523396  0.7230570876125884  0.1143836070639922  1.0000
  C   C2        1.0  0.4280529923448313  0.27694448692925994  0.8856148789895787  1.0000
  C   C3        1.0  0.49364738845476813  0.7861317160308234  0.0981765786071237  1.0000
  C   C4        1.0  0.5063523246773372  0.21387184724734007  0.901820268574227  1.0000
  C   C5        1.0  0.5549662757495427  0.9132105111885878  0.0962516159378026  1.0000
  C   C6        1.0  0.4450361102242156  0.08679304501666252  0.903745285141895  1.0000
  C   C7        1.0  0.6938175796995623  0.9756389019746622  0.10805488338935024  1.0000
  C   C8        1.0  0.3061812922742249  0.0243626772824541  0.8919435667319819  1.0000
  C   C9        1.0  0.7626812877974628  0.10559025563477324  0.10342704855219864  1.0000
  C   C10       1.0  0.23731885931619706  0.8944143160607254  0.8965729303712567  1.0000
  C   C11       1.0  0.8965336668122815  0.16043696787798473  0.11000260220509264  1.0000
  C   C12       1.0  0.10346699923995598  0.8395646215791506  0.8899994594958405  1.0000
  C   C13       1.0  0.9709948675700986  0.08987389650883423  0.12258853597107595  1.0000
  C   C14       1.0  0.029001353493243027  0.9101277166687118  0.8774162964171598  1.0000
  C   C15       1.0  0.10828329644165541  0.14071548480067972  0.12372517738334926  1.0000
  C   C16       1.0  0.8917177513664356  0.8592890964694249  0.8762776800241173  1.0000
  C   C17       1.0  0.1751375751724851  0.06759657543840092  0.13520660559090916  1.0000
  C   C18       1.0  0.8248581718675894  0.932406027632716  0.8647963346669985  1.0000
  C   C19       1.0  0.10417728896301538  0.9450915285508545  0.1473770826216169  1.0000
  C   C20       1.0  0.8958207467260663  0.0549080726513367  0.8526244006986448  1.0000
  C   C21       1.0  0.9066376079902625  0.9627997936800768  0.13190657393110433  1.0000
  C   C22       1.0  0.0933603427418106  0.0372037981778206  0.8680959583537915  1.0000
  C   C23       1.0  0.7648269248700859  0.9033914134739693  0.12283961301686482  1.0000
  C   C24       1.0  0.2351728004460227  0.09661216471948823  0.8771608098118409  1.0000
  C   C25       1.0  0.8334627130599446  0.9103346891300109  0.36970220106207574  1.0000
  C   C26       1.0  0.16653883175550283  0.08966688305419983  0.6302963029576106  1.0000
  C   C27       1.0  0.8352940649553204  0.991505633334782  0.468687760971932  1.0000
  C   C28       1.0  0.1647039609865502  0.008493955935172402  0.5313108618304414  1.0000
  C   C29       1.0  0.8396296044232658  0.94753620668282  0.5486449033131894  1.0000
  C   C30       1.0  0.1603671112106326  0.05246239442578122  0.45135486055779256  1.0000
  C   C31       1.0  0.8424939203246494  0.822679949969711  0.5286859380262856  1.0000
  C   C32       1.0  0.1575041056172282  0.17731963930024364  0.4713126847760878  1.0000
  C   C33       1.0  0.8488902710849048  0.7725486437144797  0.608448668585311  1.0000
  C   C34       1.0  0.1511112336888445  0.22745492678064494  0.3915510750461595  1.0000
  C   C35       1.0  0.851699043595339  0.6517827442408831  0.5881398036735705  1.0000
  C   C36       1.0  0.14830378123358665  0.3482218263478246  0.411861659407194  1.0000
  C   C37       1.0  0.8472968914601536  0.5721413138987546  0.4855375760362295  1.0000
  C   C38       1.0  0.15270372723997394  0.42786226492012275  0.5144635798880801  1.0000
  C   C39       1.0  0.8473023210386047  0.44548963686458637  0.46163548584276287  1.0000
  C   C40       1.0  0.15269876924799064  0.5545129490776617  0.5383668470823937  1.0000
  C   C41       1.0  0.8391118858691585  0.3711226246947065  0.36106227134626334  1.0000
  C   C42       1.0  0.16088915706532703  0.6288819506092765  0.6389391558022555  1.0000
  C   C43       1.0  0.8353335316442314  0.42562586688577414  0.2854524588302852  1.0000
  C   C44       1.0  0.1646697598975636  0.5743777048601972  0.7145487509923786  1.0000
  C   C45       1.0  0.842124892524943  0.6188058949460642  0.4039840204824473  1.0000
  C   C46       1.0  0.15787886816651314  0.3811966809402137  0.5960176512115896  1.0000
  C   C47       1.0  0.8401899369159908  0.7470586381142398  0.42583310545489916  1.0000
  C   C48       1.0  0.15981517899874836  0.25294293358859943  0.5741676158176859  1.0000
  C   C49       1.0  0.5010831489780756  0.5743268118759063  0.34812181448532453  1.0000
  C   C50       1.0  0.49891233155764786  0.4256667984833912  0.651875180971743  1.0000
  C   C51       1.0  0.505200950538523  0.4486010731779403  0.31121703270249423  1.0000
  C   C52       1.0  0.49479632651245004  0.5513925503644331  0.688784289463648  1.0000
  C   C53       1.0  0.5041767096111229  0.38029406880993133  0.3755591962943613  1.0000
  C   C54       1.0  0.4958103974485797  0.619696603768759  0.6244447081853156  1.0000
  C   C55       1.0  0.5006456201511824  0.4358187322961486  0.48078894542560874  1.0000
  C   C56       1.0  0.4993422782779221  0.5641759106822735  0.519211735207975  1.0000
  C   C57       1.0  0.5002598843209753  0.36914238477017863  0.549688109163242  1.0000
  C   C58       1.0  0.4997364993459784  0.6308512381467754  0.4503124799073108  1.0000
  C   C59       1.0  0.3504346336017648  0.8367931671853415  0.4508294542347786  1.0000
  C   C60       1.0  0.6495701308516146  0.16320340246139156  0.5491663712015865  1.0000
  C   C61       1.0  0.3167056280452913  0.828072685794318  0.35251799185588356  1.0000
  C   C62       1.0  0.683294729024098  0.17192190627885404  0.6474786495265266  1.0000
  C   C63       1.0  0.3920095314497944  0.9306054601188763  0.31658439811404565  1.0000
  C   C64       1.0  0.6079908729717048  0.06938714259256072  0.683413149044988  1.0000
  C   C65       1.0  0.5013389226096762  0.0394350262348837  0.37991587898346785  1.0000
  C   C66       1.0  0.4986614671910064  0.9605575585782025  0.6200773773987296  1.0000
  C   C67       1.0  0.5387638058999115  0.05155343375583503  0.48179200053043314  1.0000
  C   C68       1.0  0.46124015012645725  0.9484391446097579  0.5182020428457152  1.0000
  C   C69       1.0  0.9634395323546628  0.43600030900078224  0.012242233230217886  1.0000
  C   C70       1.0  0.036563422346581886  0.5639982785874198  0.9877583715330689  1.0000
  S   S1        1.0  0.5115247043775142  0.37822787716581274  0.17931712464081792  1.0000
  S   S2        1.0  0.48847383806613476  0.6217687268827137  0.8206828658095592  1.0000
  S   S3        1.0  0.1773678662846479  0.6846320675734675  0.2691307266031729  1.0000
  S   S4        1.0  0.822632882287799  0.3153655282449037  0.730869571003659  1.0000
  N   N1        1.0  0.7034089637878509  0.7791905224962438  0.12731813505833875  1.0000
  N   N2        1.0  0.29659122580431335  0.22081205387140562  0.8726813193828068  1.0000
  N   N3        1.0  0.9743220570473172  0.893827192962846  0.14651206252670343  1.0000
  N   N4        1.0  0.02567504277923402  0.10617440294177533  0.8534892121802786  1.0000
  N   N5        1.0  0.8356027555564084  0.7917594033736608  0.34759471896687455  1.0000
  N   N6        1.0  0.16440405973256136  0.208246157252674  0.6524078023320501  1.0000
  N   N7        1.0  0.8379268985056356  0.5456302749220685  0.3056763798035505  1.0000
  N   N8        1.0  0.16207550208893207  0.45437329918153335  0.6943248120529903  1.0000
  O   O1        1.0  0.6156649445960481  0.48808930660104016  0.15657414011580784  1.0000
  O   O2        1.0  0.3843380125420026  0.5119092839702264  0.8434271797769528  1.0000
  O   O3        1.0  0.5399782047190698  0.2638828173825019  0.16701677893585307  1.0000
  O   O4        1.0  0.4600229778349387  0.7361157868532119  0.8329866504130908  1.0000
  O   O5        1.0  0.3814284441154784  0.3433347692040841  0.12358813066119018  1.0000
  O   O6        1.0  0.6185697541772159  0.6566568417375083  0.8764091093413885  1.0000
  O   O7        1.0  0.0781182987845313  0.7364256540957754  0.25793930990843  1.0000
  O   O8        1.0  0.921881177084842  0.2635689522672636  0.7420601740257455  1.0000
  O   O9        1.0  0.13748010222833082  0.5874515643110458  0.31961897753144103  1.0000
  O   O10       1.0  0.8625183928632084  0.4125470290992227  0.6803801071422984  1.0000
  O   O11       1.0  0.22331334887557844  0.6430927312778183  0.17237033487962358  1.0000
  O   O12       1.0  0.7766826081202184  0.3568998921709652  0.827629267837246  1.0000
  O   O13       1.0  0.8819772882812985  0.4388574195405042  0.07347855732692213  1.0000
  O   O14       1.0  0.1180269366862207  0.5611441545199727  0.9265221459795401  1.0000
  O   O15       1.0  0.9910524306425118  0.3394342508509497  0.9703063846786651  1.0000
  O   O16       1.0  0.008947379630605377  0.6605653366867943  0.029692989185413465  1.0000
  O   O17       1.0  0.7240186992414761  0.5451331399265555  0.969038974256563  1.0000
  O   O18       1.0  0.27598640936285795  0.4548684228271115  0.030959601627593356  1.0000
