data_image0
_chemical_formula_structural       Cu8H32C24Br8N8
_chemical_formula_sum              "Cu8 H32 C24 Br8 N8"
_cell_length_a       6.41960019549292
_cell_length_b       8.668693842934792
_cell_length_c       16.693091211029547
_cell_angle_alpha    89.99977014257988
_cell_angle_beta     90.00005282368694
_cell_angle_gamma    96.92280869275447

_space_group_name_H-M_alt    "P 1"
_space_group_IT_number       1

loop_
  _space_group_symop_operation_xyz
  'x, y, z'

loop_
  _atom_site_type_symbol
  _atom_site_label
  _atom_site_symmetry_multiplicity
  _atom_site_fract_x
  _atom_site_fract_y
  _atom_site_fract_z
  _atom_site_occupancy
  Cu  Cu1       1.0  0.22017649747471774  0.7910294142550923  0.6342669256659691  1.0000
  Cu  Cu2       1.0  0.7798315804814848  0.7089659717230248  0.1342626353029814  1.0000
  Cu  Cu3       1.0  0.7798194149743266  0.20897682266053155  0.3657332079745857  1.0000
  Cu  Cu4       1.0  0.22017202459513638  0.29103089738565296  0.8657363002486775  1.0000
  Cu  Cu5       1.0  0.241880359965279  0.9817144549641981  0.5080809782174641  1.0000
  Cu  Cu6       1.0  0.7581262500787248  0.5182748356243251  0.008075313676386  1.0000
  Cu  Cu7       1.0  0.7581207493006019  0.018285924072849003  0.49191915543035974  1.0000
  Cu  Cu8       1.0  0.2418753889143801  0.4817197215041489  0.9919218247269445  1.0000
  H   H1        1.0  0.5729664004669459  0.5787589318185126  0.8467347494520043  1.0000
  H   H2        1.0  0.4270108428775927  0.9212433638871005  0.34673947336171557  1.0000
  H   H3        1.0  0.4270289298944335  0.42122636537764174  0.15326238896090424  1.0000
  H   H4        1.0  0.5729858903472761  0.0787675209619891  0.6532642545750564  1.0000
  H   H5        1.0  0.5798847938916154  0.47427746710500424  0.5987256796034901  1.0000
  H   H6        1.0  0.42012992402472077  0.0257167980724731  0.09872470136418343  1.0000
  H   H7        1.0  0.4201041608490571  0.5257334776996316  0.40127145877973913  1.0000
  H   H8        1.0  0.5798856303811848  0.9742683432925366  0.9012742342022406  1.0000
  H   H9        1.0  0.27056516117911406  0.27422418793413067  0.6732483102898714  1.0000
  H   H10       1.0  0.729440157194702  0.22576846950671836  0.17325115742633562  1.0000
  H   H11       1.0  0.7294335716102793  0.7257715551746954  0.3267428376095155  1.0000
  H   H12       1.0  0.2705739273654685  0.7742259917211809  0.8267483771796408  1.0000
  H   H13       1.0  0.7397308623489991  0.7756651001751608  0.6657944257745785  1.0000
  H   H14       1.0  0.2602704029105354  0.7243440825343086  0.1657977511245079  1.0000
  H   H15       1.0  0.26026681098932153  0.2243422867383345  0.33420630691513514  1.0000
  H   H16       1.0  0.7397258340816039  0.2756551704529571  0.8342089720763826  1.0000
  H   H17       1.0  0.831877847338909  0.7440783437269403  0.7648090884995187  1.0000
  H   H18       1.0  0.1681084571158564  0.7559325950654099  0.2648039317623444  1.0000
  H   H19       1.0  0.16812244115676123  0.2559173873558294  0.23519344135431208  1.0000
  H   H20       1.0  0.8318923276176023  0.24407476786046087  0.7352009942793672  1.0000
  H   H21       1.0  0.06055008009095529  0.5485696321611897  0.7102057785386435  1.0000
  H   H22       1.0  0.9394483622814603  0.951440428066718  0.21019379665707316  1.0000
  H   H23       1.0  0.9394516447531418  0.45143423283948897  0.289793157004901  1.0000
  H   H24       1.0  0.060549430403469294  0.048558812944413894  0.789809931292929  1.0000
  H   H25       1.0  0.9115424628854993  0.6721106745519447  0.5472443230644829  1.0000
  H   H26       1.0  0.08847105899893391  0.827881782010799  0.04723838443621282  1.0000
  H   H27       1.0  0.0884563557605063  0.32789437640828106  0.4527546124773424  1.0000
  H   H28       1.0  0.9115301361201916  0.17212790489012517  0.9527659425527164  1.0000
  H   H29       1.0  0.11383620211358186  0.5385647991262202  0.562913125333914  1.0000
  H   H30       1.0  0.8861661347565218  0.9614346164308147  0.0629005078314151  1.0000
  H   H31       1.0  0.8861609414918946  0.4614484097166525  0.4370846120980759  1.0000
  H   H32       1.0  0.11383984679490308  0.03856688861232269  0.9371056163180074  1.0000
  C   C1        1.0  0.5296481795417591  0.5226877945515582  0.7900988015932031  1.0000
  C   C2        1.0  0.47034181348902854  0.97731712265756  0.2900998165934325  1.0000
  C   C3        1.0  0.47035014286758775  0.47730562456140996  0.20989893586119024  1.0000
  C   C4        1.0  0.5296605269383435  0.0226902282880204  0.7099033122978257  1.0000
  C   C5        1.0  0.5303219406944351  0.4663931473856521  0.6606920359535026  1.0000
  C   C6        1.0  0.4696843800830663  0.03360540722051301  0.16069105308790205  1.0000
  C   C7        1.0  0.46967843364492967  0.5336118915963651  0.33930450338765183  1.0000
  C   C8        1.0  0.5303203703062991  0.9663891259161729  0.8393114767678682  1.0000
  C   C9        1.0  0.3789383605108014  0.3672098655715176  0.6985814549398415  1.0000
  C   C10       1.0  0.6210697922473898  0.13278957583175097  0.1985838834164042  1.0000
  C   C11       1.0  0.6210632784789283  0.632784691569441  0.3014120891621559  1.0000
  C   C12       1.0  0.3789371294163645  0.8672084312799554  0.801418047385525  1.0000
  C   C13       1.0  0.7959100379063244  0.689863483506933  0.7062897256270874  1.0000
  C   C14       1.0  0.20405866721274177  0.8101282158765103  0.20628745178319016  1.0000
  C   C15       1.0  0.20406588918803692  0.3101266174476008  0.2937110070791817  1.0000
  C   C16       1.0  0.7959329026892092  0.18987107308282697  0.7937156771157136  1.0000
  C   C17       1.0  0.9826687656827318  0.6246029664830104  0.6707122309795751  1.0000
  C   C18       1.0  0.01734568928676335  0.8754014262592519  0.1707103600737767  1.0000
  C   C19       1.0  0.0173360705480761  0.3754008745612509  0.32928191216262803  1.0000
  C   C20       1.0  0.982654069477185  0.1246001267487387  0.8292903726227722  1.0000
  C   C21       1.0  0.014654391754547145  0.6194300490890823  0.5885266116717531  1.0000
  C   C22       1.0  0.9853518394955503  0.8805645046096088  0.08852378700865422  1.0000
  C   C23       1.0  0.9853428711919179  0.3805750138722388  0.4114681305182941  1.0000
  C   C24       1.0  0.014651851434315697  0.11944167236294591  0.9114793418841104  1.0000
  Br  Br1       1.0  0.4836235725531637  0.7863063059066705  0.5209949554812496  1.0000
  Br  Br2       1.0  0.5163794206041743  0.7136887408505643  0.020994778189987108  1.0000
  Br  Br3       1.0  0.5163742201295208  0.21369293511278895  0.4790063762678614  1.0000
  Br  Br4       1.0  0.4836292619449268  0.28631041627357945  0.9790035583095505  1.0000
  Br  Br5       1.0  0.003868029421262499  0.066386854262511  0.6065376768633187  1.0000
  Br  Br6       1.0  0.996139745446925  0.4336120645276509  0.10653713199494773  1.0000
  Br  Br7       1.0  0.9961273867939229  0.9336077507954458  0.39346425394091267  1.0000
  Br  Br8       1.0  0.0038648855941473374  0.5663906145176367  0.8934606054498675  1.0000
  N   N1        1.0  0.6237866446639018  0.5640791979902319  0.7193413514591145  1.0000
  N   N2        1.0  0.3762008391414256  0.9359215747653665  0.21934123652868462  1.0000
  N   N3        1.0  0.3762080366253216  0.4359200670106134  0.28065758408867236  1.0000
  N   N4        1.0  0.6237983040465593  0.06407649227066513  0.7806630904730343  1.0000
  N   N5        1.0  0.3802908389503372  0.4029299944669447  0.7795951698715344  1.0000
  N   N6        1.0  0.6197076019030306  0.09707477803127768  0.27959707924024013  1.0000
  N   N7        1.0  0.6197154671256442  0.597064526716494  0.22039777518089923  1.0000
  N   N8        1.0  0.38029567863948444  0.9029290749724623  0.7204048515546406  1.0000
