data_image0
_chemical_formula_structural       Zn2H44C30N2O12
_chemical_formula_sum              "Zn2 H44 C30 N2 O12"
_cell_length_a       9.390917901173465
_cell_length_b       10.842429986680186
_cell_length_c       10.842301011668676
_cell_angle_alpha    88.496632959646
_cell_angle_beta     88.58397066449757
_cell_angle_gamma    88.58207583397186

_space_group_name_H-M_alt    "P 1"
_space_group_IT_number       1

loop_
  _space_group_symop_operation_xyz
  'x, y, z'

loop_
  _atom_site_type_symbol
  _atom_site_label
  _atom_site_symmetry_multiplicity
  _atom_site_fract_x
  _atom_site_fract_y
  _atom_site_fract_z
  _atom_site_occupancy
  Zn  Zn1       1.0  0.355741299880343  0.5033209359261547  0.5025237771686974  1.0000
  Zn  Zn2       1.0  0.6442607344058189  0.49747346174116563  0.496660529417781  1.0000
  H   H1        1.0  0.4750530632951637  0.30162091767484617  0.1192251193808929  1.0000
  H   H2        1.0  0.702300093720254  0.39023456970750203  0.8895128779291567  1.0000
  H   H3        1.0  0.5409772071561322  0.09581118548496902  0.7059175702797092  1.0000
  H   H4        1.0  0.29800421836651486  0.11037044707548921  0.6102778383341274  1.0000
  H   H5        1.0  0.45969376901918924  0.29402862358917053  0.9042669657965305  1.0000
  H   H6        1.0  0.3044567098158667  0.38990744936636906  0.9108328850864353  1.0000
  H   H7        1.0  0.7157580289721963  0.5525410759006489  0.8831936478998729  1.0000
  H   H8        1.0  0.695877026338856  0.0890770904809699  0.6096419464735519  1.0000
  H   H9        1.0  0.704480356967899  0.3955947407506313  0.1059902891754021  1.0000
  H   H10       1.0  0.2840286663260159  0.11682033896939001  0.4480069878562745  1.0000
  H   H11       1.0  0.3288662214772557  0.628156301597073  0.1080730913290324  1.0000
  H   H12       1.0  0.4973779171104199  0.6966908107131359  0.09637385841391931  1.0000
  H   H13       1.0  0.6709710854075368  0.891988509145101  0.37174471241579  1.0000
  H   H14       1.0  0.5023521900173124  0.9035381781208969  0.30337432406599163  1.0000
  H   H15       1.0  0.5251829409729253  0.8808714714583273  0.698428434719105  1.0000
  H   H16       1.0  0.32350410830532894  0.6209876459829076  0.892003763235337  1.0000
  H   H17       1.0  0.49279461861171125  0.6889740156989674  0.8814197779287625  1.0000
  H   H18       1.0  0.6761065728502514  0.10808371611060615  0.37866343290967563  1.0000
  H   H19       1.0  0.5065812376346059  0.1184949763634293  0.31108161639872384  1.0000
  H   H20       1.0  0.29570302316898994  0.8939175787715995  0.6047111979771458  1.0000
  H   H21       1.0  0.8958569554368407  0.372762671853991  0.3595796673949181  1.0000
  H   H22       1.0  0.1444806080422012  0.3402848472940292  0.394654634848429  1.0000
  H   H23       1.0  0.10414331342185083  0.6403126406196051  0.6273695581519974  1.0000
  H   H24       1.0  0.8555198671061248  0.6052037636306196  0.6598269397664325  1.0000
  H   H25       1.0  0.8686560048318341  0.30745811143846413  0.5092569942048968  1.0000
  H   H26       1.0  0.11569593704798821  0.3165972164240003  0.5549523711809101  1.0000
  H   H27       1.0  0.13136438319851612  0.4905879528792526  0.6925450395194659  1.0000
  H   H28       1.0  0.8843288431524458  0.4448924106312758  0.68337223536831  1.0000
  H   H29       1.0  0.8641076863492857  0.5952903750071172  0.3253668021545479  1.0000
  H   H30       1.0  0.1152255117928718  0.546370675648383  0.3103419064758484  1.0000
  H   H31       1.0  0.1358827910685463  0.6747157656490472  0.4048458820979022  1.0000
  H   H32       1.0  0.8847497242294652  0.6897000360666256  0.45378664486304393  1.0000
  H   H33       1.0  0.2693189371645275  0.20925206757949158  0.19884548298443153  1.0000
  H   H34       1.0  0.20921798467807656  0.23643353111078366  0.04422523479153989  1.0000
  H   H35       1.0  0.10368152828316111  0.290838221051466  0.1718888793441522  1.0000
  H   H36       1.0  0.918327345653033  0.5421659107278174  0.9846248333148538  1.0000
  H   H37       1.0  0.9251378016753052  0.4732422828711408  0.1362577446577049  1.0000
  H   H38       1.0  0.9482194519882229  0.6363182383820103  0.11404640977138308  1.0000
  H   H39       1.0  0.7310467929299662  0.8013956853227386  0.7907809848646751  1.0000
  H   H40       1.0  0.7913292084995618  0.9559001680631096  0.7632185958521305  1.0000
  H   H41       1.0  0.8965907456436425  0.8280182598509498  0.7089339779699131  1.0000
  H   H42       1.0  0.0815986900992485  0.015308118019781602  0.4587110109638459  1.0000
  H   H43       1.0  0.07500485917027792  0.8635574510228422  0.5273725816681818  1.0000
  H   H44       1.0  0.0514975316992619  0.8860590074781314  0.3643776678232697  1.0000
  C   C1        1.0  0.5058055930160421  0.2603934740935898  0.5092700738276434  1.0000
  C   C2        1.0  0.49255008101609127  0.7373668983719028  0.4999852025296008  1.0000
  C   C3        1.0  0.507452244037836  0.5000644954262298  0.2626193259418343  1.0000
  C   C4        1.0  0.4208533063492154  0.3857426693372972  0.08141318184228649  1.0000
  C   C5        1.0  0.6577750418098559  0.4816970318868385  0.065779133694889  1.0000
  C   C6        1.0  0.5793362724386455  0.918583335854123  0.6142356308467783  1.0000
  C   C7        1.0  0.34226901106050894  0.9341850420621469  0.5185905311548851  1.0000
  C   C8        1.0  0.4941570507947119  0.49073479116140095  0.7395911279180752  1.0000
  C   C9        1.0  0.41605023767179017  0.38211755895367355  0.938721463053696  1.0000
  C   C10       1.0  0.6535968485605608  0.4765508161885989  0.9236939682924827  1.0000
  C   C11       1.0  0.5842743333083078  0.06127180290954467  0.617747330127351  1.0000
  C   C12       1.0  0.3464425843213875  0.0762652185101729  0.5238243344133977  1.0000
  C   C13       1.0  0.43624274589318185  0.6179852214743702  0.06726342436051172  1.0000
  C   C14       1.0  0.5635667477093591  0.9327256033076238  0.3820117078151171  1.0000
  C   C15       1.0  0.5058126636744974  0.49899436576047407  0.1212129610177684  1.0000
  C   C16       1.0  0.49421044914380746  0.8787720565629799  0.5010872447627364  1.0000
  C   C17       1.0  0.49984382401767397  0.48908767943061804  0.8801170032829759  1.0000
  C   C18       1.0  0.5001642033522274  0.1198703597897008  0.5109648374598734  1.0000
  C   C19       1.0  0.43321161557442184  0.6126370500796554  0.9250149730676328  1.0000
  C   C20       1.0  0.5664549366343935  0.0749843142338307  0.3872852639877706  1.0000
  C   C21       1.0  0.9236265924811705  0.3807638397041585  0.4568284414948067  1.0000
  C   C22       1.0  0.0857036792911003  0.37551777711454537  0.4754303688910824  1.0000
  C   C23       1.0  0.0763826326656485  0.5430741485020505  0.6192845174414217  1.0000
  C   C24       1.0  0.9143025994116415  0.5244693476446186  0.624518229998671  1.0000
  C   C25       1.0  0.9182690714697586  0.6015189628963354  0.41337293783325896  1.0000
  C   C26       1.0  0.2133860121188746  0.2761007517312777  0.1369402563449142  1.0000
  C   C27       1.0  0.8901943498895477  0.5566595267356219  0.0829265650568374  1.0000
  C   C28       1.0  0.7869450565750498  0.8631118835312391  0.7237381968872256  1.0000
  C   C29       1.0  0.10971961507785012  0.917041774009327  0.4439831063570523  1.0000
  C   C30       1.0  0.0817215679151815  0.5867180476771878  0.3985563913243055  1.0000
  N   N1        1.0  0.8638897874418278  0.5018367212023662  0.49819508281387936  1.0000
  N   N2        1.0  0.13611097998357743  0.5018180161831935  0.4981736875941323  1.0000
  O   O1        1.0  0.39568771638648315  0.31923161891715773  0.4714357511342655  1.0000
  O   O2        1.0  0.6172779901554719  0.4543125002818087  0.3154225055761302  1.0000
  O   O3        1.0  0.6023306397466471  0.682264906995684  0.4557493956644763  1.0000
  O   O4        1.0  0.3827534723843725  0.6845498266829608  0.5457115763821889  1.0000
  O   O5        1.0  0.3976816249856512  0.5442406455852336  0.3177308020815346  1.0000
  O   O6        1.0  0.2795785302531826  0.3924545322415867  0.13469215623580766  1.0000
  O   O7        1.0  0.7427021018333306  0.5824049652134207  0.10260010672732281  1.0000
  O   O8        1.0  0.7205680436741347  0.8652007407590929  0.6074767056518908  1.0000
  O   O9        1.0  0.6204353381514807  0.3090612371052615  0.5417106706855535  1.0000
  O   O10       1.0  0.2571560716794394  0.8974510563905511  0.4179588720455882  1.0000
  O   O11       1.0  0.6043009417696794  0.5285711554639647  0.680727784374568  1.0000
  O   O12       1.0  0.37956411878975166  0.45827769743914354  0.690942001665448  1.0000
