data_image0
_chemical_formula_structural       Ag4H64C52S4N12O12
_chemical_formula_sum              "Ag4 H64 C52 S4 N12 O12"
_cell_length_a       8.77913916276882
_cell_length_b       13.888948666965671
_cell_length_c       13.772361803279255
_cell_angle_alpha    109.52949952892862
_cell_angle_beta     90.01926801577409
_cell_angle_gamma    108.39814178309936

_space_group_name_H-M_alt    "P 1"
_space_group_IT_number       1

loop_
  _space_group_symop_operation_xyz
  'x, y, z'

loop_
  _atom_site_type_symbol
  _atom_site_label
  _atom_site_symmetry_multiplicity
  _atom_site_fract_x
  _atom_site_fract_y
  _atom_site_fract_z
  _atom_site_occupancy
  Ag  Ag1       1.0  0.18662711407865365  0.7396488480257942  0.9381377877797872  1.0000
  Ag  Ag2       1.0  0.4467186299056464  0.2603073173107474  0.5617829092234173  1.0000
  Ag  Ag3       1.0  0.8133869257788788  0.26036118355309407  0.06186403488453607  1.0000
  Ag  Ag4       1.0  0.5532698763448137  0.7396880904728673  0.438212811987128  1.0000
  H   H1        1.0  0.5535117412419267  0.8300453032095729  0.9412283938319914  1.0000
  H   H2        1.0  0.7233275042062529  0.1700018329999935  0.5585957101492056  1.0000
  H   H3        1.0  0.4465049457180256  0.16996546823420286  0.05877075912457027  1.0000
  H   H4        1.0  0.2766512688023467  0.8299923245974482  0.4414148643677008  1.0000
  H   H5        1.0  0.154253834484102  0.39106222607153995  0.02522957889930666  1.0000
  H   H6        1.0  0.7630665198576235  0.6088555466470992  0.4747434768327705  1.0000
  H   H7        1.0  0.845743882333849  0.608937938798526  0.9747632971110674  1.0000
  H   H8        1.0  0.23693044537498045  0.39114082922746707  0.525259089208987  1.0000
  H   H9        1.0  0.3839007390780225  0.6573368212196513  0.9953390484693685  1.0000
  H   H10       1.0  0.726595841541666  0.3426541108000264  0.5049945857415209  1.0000
  H   H11       1.0  0.6161013990842292  0.3426585143586393  0.004653746165686779  1.0000
  H   H12       1.0  0.27340708817798287  0.6573473572311314  0.4950190402224236  1.0000
  H   H13       1.0  0.3601316627360446  0.5248558191623259  0.9053200703204138  1.0000
  H   H14       1.0  0.8351979696686909  0.47515138572941124  0.5949113599174038  1.0000
  H   H15       1.0  0.6398659194631975  0.47513951700153706  0.09467272402658007  1.0000
  H   H16       1.0  0.16480998377635803  0.5248555801314436  0.40509675070652645  1.0000
  H   H17       1.0  0.4066421535713827  0.5547646319238096  0.039683225495473075  1.0000
  H   H18       1.0  0.8519300487349709  0.4450840057562429  0.46056483092129236  1.0000
  H   H19       1.0  0.593350863670551  0.4452306872134597  0.9603088367035538  1.0000
  H   H20       1.0  0.14807264278351784  0.5549147132908485  0.5394348488725668  1.0000
  H   H21       1.0  0.9100916494752411  0.07431206050899418  0.03136211724597619  1.0000
  H   H22       1.0  0.8356988008255255  0.9254652535987515  0.4686888377543639  1.0000
  H   H23       1.0  0.089921675424435  0.9256897060584137  0.9686305430164168  1.0000
  H   H24       1.0  0.1642635055304851  0.07451419097149878  0.5313119765853002  1.0000
  H   H25       1.0  0.8376157841863047  0.9290149346484922  0.9660354792541596  1.0000
  H   H26       1.0  0.9086710704053828  0.07080324692974219  0.5338315493626666  1.0000
  H   H27       1.0  0.1623881673022325  0.0709908688021272  0.0339577363675474  1.0000
  H   H28       1.0  0.09131564485661399  0.929184019273876  0.46616013239334814  1.0000
  H   H29       1.0  0.8532161975128645  0.016155504392216396  0.8954410672060575  1.0000
  H   H30       1.0  0.8371461755892465  0.9838429566161504  0.6045950747758864  1.0000
  H   H31       1.0  0.14679041471748627  0.9838487830795798  0.10455602461543377  1.0000
  H   H32       1.0  0.1628354700296768  0.016147834685469296  0.3954093466581837  1.0000
  H   H33       1.0  0.14859500262436853  0.6665908753573859  0.7224250610762794  1.0000
  H   H34       1.0  0.4819802107275208  0.33341245155470023  0.7776018409572529  1.0000
  H   H35       1.0  0.8514077605526821  0.33341254911083235  0.2775695773615467  1.0000
  H   H36       1.0  0.5180213058229979  0.6665861971901631  0.22239491132492611  1.0000
  H   H37       1.0  0.21684439967140173  0.5756062151441056  0.7503597127193656  1.0000
  H   H38       1.0  0.6410579357036211  0.42435980507227083  0.7496797187077959  1.0000
  H   H39       1.0  0.7831741837517683  0.42439239618057906  0.24963557692320384  1.0000
  H   H40       1.0  0.35893661228368495  0.5756340158447272  0.25031695147892197  1.0000
  H   H41       1.0  0.8434588367465209  0.8512658636909122  0.7048870427673534  1.0000
  H   H42       1.0  0.9925935822933383  0.14900211027392626  0.7955360374106845  1.0000
  H   H43       1.0  0.1565604290603417  0.14875234425311126  0.2951202832873747  1.0000
  H   H44       1.0  0.007410028299240304  0.8509893303431466  0.20446205624028818  1.0000
  H   H45       1.0  0.6231082076382463  0.9219830954945036  0.68014705835251  1.0000
  H   H46       1.0  0.7016538234408927  0.0782622305551257  0.8202824362410792  1.0000
  H   H47       1.0  0.3769038684467104  0.07803668185037078  0.319858586794119  1.0000
  H   H48       1.0  0.29833607893623765  0.9217268503020005  0.17971781129377695  1.0000
  H   H49       1.0  0.4937970150066701  0.5935557536663223  0.7752059803709342  1.0000
  H   H50       1.0  0.899974202857386  0.4064142296574643  0.7248185739608387  1.0000
  H   H51       1.0  0.5062097957486671  0.40644437480830925  0.22478543249572874  1.0000
  H   H52       1.0  0.10002350961135417  0.5935836441445872  0.27517938423726207  1.0000
  H   H53       1.0  0.35553703511392587  0.9182930632232169  0.6811089034017924  1.0000
  H   H54       1.0  0.43757800240533823  0.08176939776160448  0.8190444838931441  1.0000
  H   H55       1.0  0.6444687256475844  0.0817163525078399  0.3189007116296239  1.0000
  H   H56       1.0  0.5624163783891091  0.9182309260570418  0.18095497864042892  1.0000
  H   H57       1.0  0.2495329659558222  0.8680308831765443  0.7738821433238455  1.0000
  H   H58       1.0  0.38174333640134234  0.13203963737809227  0.7262329966402347  1.0000
  H   H59       1.0  0.7504752623178702  0.13197435565240304  0.2261210610368565  1.0000
  H   H60       1.0  0.6182602012906457  0.8679607733302035  0.27377012576903326  1.0000
  H   H61       1.0  0.20585263664333542  0.7871849598019266  0.6424080952482356  1.0000
  H   H62       1.0  0.41899896289005056  0.212916715960091  0.8576966656662249  1.0000
  H   H63       1.0  0.7941600656984562  0.21282923092052639  0.35759940629890247  1.0000
  H   H64       1.0  0.580997988703153  0.787081915758179  0.14229935446797973  1.0000
  C   C1        1.0  0.5291175145130181  0.9063839277107347  0.9678470443552952  1.0000
  C   C2        1.0  0.6227311411684651  0.0936244821858736  0.532032363905472  1.0000
  C   C3        1.0  0.4708891157059511  0.09362039498537202  0.03215151118602929  1.0000
  C   C4        1.0  0.37725461498889956  0.9063631364072506  0.46797395497683414  1.0000
  C   C5        1.0  0.6554881978320353  0.003805996340133798  0.9859843819906827  1.0000
  C   C6        1.0  0.6517348424999055  0.996203096330852  0.5140276139538925  1.0000
  C   C7        1.0  0.3445196430362426  0.996203031630706  0.014009132266622181  1.0000
  C   C8        1.0  0.3482413829939118  0.0037859686708188  0.4859719008568746  1.0000
  C   C9        1.0  0.16218738658106688  0.5347783269383156  0.9927094802492318  1.0000
  C   C10       1.0  0.6274379096642944  0.4651937016628123  0.5073443641954397  1.0000
  C   C11       1.0  0.8378174839815598  0.465220198082278  0.007282149229581578  1.0000
  C   C12       1.0  0.37256790165998405  0.5348044176846898  0.4926638405455747  1.0000
  C   C13       1.0  0.0857162990010351  0.44011762275476213  0.013471045591522538  1.0000
  C   C14       1.0  0.6455660424984373  0.5598152841330516  0.4865266772177959  1.0000
  C   C15       1.0  0.9142813774904752  0.559880180598668  0.9865239851669116  1.0000
  C   C16       1.0  0.3544349873549279  0.44018694196071806  0.513485010610239  1.0000
  C   C17       1.0  0.3386672363221237  0.570350961588538  0.9832101891567575  1.0000
  C   C18       1.0  0.7683460579381318  0.42961033704055746  0.5170098118137857  1.0000
  C   C19       1.0  0.6613277391011393  0.42964599622708016  0.016783120149938168  1.0000
  C   C20       1.0  0.23166208968268603  0.5703901787551116  0.48299770204303627  1.0000
  C   C21       1.0  0.823625679739436  0.005777932160093302  0.9697536753916509  1.0000
  C   C22       1.0  0.8178993144763208  0.9941247865676099  0.5302186409641506  1.0000
  C   C23       1.0  0.17638406099512577  0.9942303377481418  0.030241777001556513  1.0000
  C   C24       1.0  0.18208410073939518  0.005862709033209497  0.4697825547547153  1.0000
  C   C25       1.0  0.6808978977695544  0.7199668954805104  0.7444597332946541  1.0000
  C   C26       1.0  0.9609632414820904  0.28007959988740777  0.7556723220651944  1.0000
  C   C27       1.0  0.3191225935680606  0.2800400863821935  0.2555491099813523  1.0000
  C   C28       1.0  0.03904332577673125  0.7199245995236083  0.24432111045672394  1.0000
  C   C29       1.0  0.7195581827365557  0.8117622655871127  0.7159585828299838  1.0000
  C   C30       1.0  0.9080318200240496  0.1883802927882313  0.7843107217902201  1.0000
  C   C31       1.0  0.2804584818855672  0.18824617956433085  0.2840441885944712  1.0000
  C   C32       1.0  0.0919641048592793  0.8116208414903167  0.21568899840323735  1.0000
  C   C33       1.0  0.5956962590894505  0.850061247043392  0.701495039940653  1.0000
  C   C34       1.0  0.7459867847956261  0.1500592323678305  0.7987520228514808  1.0000
  C   C35       1.0  0.4043124146088104  0.14994716390847876  0.2985062672598601  1.0000
  C   C36       1.0  0.253994608036585  0.8499401767818925  0.2012427901425653  1.0000
  C   C37       1.0  0.43540346544114783  0.8003433084155349  0.7145712824390883  1.0000
  C   C38       1.0  0.6352463035584321  0.19967038886394306  0.7855235925301115  1.0000
  C   C39       1.0  0.5646020707585961  0.19966110248774524  0.28543093232980243  1.0000
  C   C40       1.0  0.36472860211236463  0.8003274350294729  0.21447216864794424  1.0000
  C   C41       1.0  0.39791845047917457  0.7059225076278254  0.7407524691305127  1.0000
  C   C42       1.0  0.6920331967472605  0.2940806727043821  0.7593439780486548  1.0000
  C   C43       1.0  0.6020874055207415  0.29408026430432693  0.25924849867472227  1.0000
  C   C44       1.0  0.30796006304504425  0.7059196864849681  0.24065694813273805  1.0000
  C   C45       1.0  0.5222843133319158  0.6664844774906624  0.7555223282611221  1.0000
  C   C46       1.0  0.8557124139438413  0.3334840260056069  0.7445226285292036  1.0000
  C   C47       1.0  0.47773198311544  0.33351411651464247  0.24447222937750004  1.0000
  C   C48       1.0  0.14428883212723775  0.6665186408391789  0.2554739478284843  1.0000
  C   C49       1.0  0.30602178225323223  0.8458955079246593  0.701925060201482  1.0000
  C   C50       1.0  0.46042043071458477  0.1541500095516639  0.7981824024769677  1.0000
  C   C51       1.0  0.693985374339057  0.15411214540378634  0.29807818491889987  1.0000
  C   C52       1.0  0.539566972522351  0.845845468826965  0.20181624610122367  1.0000
  S   S1        1.0  0.8394420368948159  0.674960957380172  0.7721397156080484  1.0000
  S   S2        1.0  0.1644052925924341  0.32516944237357837  0.7280310410166492  1.0000
  S   S3        1.0  0.1605614052628609  0.32505066165090557  0.22786115779204147  1.0000
  S   S4        1.0  0.8355937710314475  0.6748220164412116  0.2719677842061897  1.0000
  N   N1        1.0  0.24124378222262519  0.6552595946716764  0.757803636505109  1.0000
  N   N2        1.0  0.5859202893022796  0.34471656164316755  0.7422568782981713  1.0000
  N   N3        1.0  0.7587604443904468  0.34473991722315833  0.24219556908872863  1.0000
  N   N4        1.0  0.41408173128373676  0.6552830914417027  0.25774818203095134  1.0000
  N   N5        1.0  0.07332434480016294  0.5939631114199952  0.9791878786702097  1.0000
  N   N6        1.0  0.47943989277016624  0.40608503940403284  0.5208437150860873  1.0000
  N   N7        1.0  0.9266786798620142  0.4060362773361417  0.02080620383220115  1.0000
  N   N8        1.0  0.5205604131310366  0.5939089040660974  0.4791580784801113  1.0000
  N   N9        1.0  0.37563589229535654  0.9016814029841524  0.9814389051641182  1.0000
  N   N10       1.0  0.4738870555778191  0.09824965759447929  0.5184062548373376  1.0000
  N   N11       1.0  0.6243688560459332  0.09832371299887649  0.018559175961129895  1.0000
  N   N12       1.0  0.5260903718668856  0.9017395305458891  0.48159838306485625  1.0000
  O   O1        1.0  0.9247922894341583  0.7555983758332514  0.8738491394902679  1.0000
  O   O2        1.0  0.16915469877275768  0.24465000942943496  0.6262624450274359  1.0000
  O   O3        1.0  0.07521652447403675  0.24440347938050874  0.12614717978365056  1.0000
  O   O4        1.0  0.8308426175921539  0.7553470713784874  0.3737359874426999  1.0000
  O   O5        1.0  0.7615741852936678  0.5666279578062684  0.7772164300938299  1.0000
  O   O6        1.0  0.19461817461120745  0.4335184524368286  0.723027806878285  1.0000
  O   O7        1.0  0.2384483312387359  0.4333876416117659  0.22278280488618651  1.0000
  O   O8        1.0  0.8053905589400187  0.5664741152197764  0.27698371812710576  1.0000
  O   O9        1.0  0.941531609041078  0.6752130669896343  0.6873999871204431  1.0000
  O   O10       1.0  0.2663767792849113  0.32486957074394945  0.8127245386939137  1.0000
  O   O11       1.0  0.05847251893051459  0.3247816866476114  0.31260206424967407  1.0000
  O   O12       1.0  0.7336086086976861  0.6751081967030358  0.18727356640256673  1.0000
