data_image0
_chemical_formula_structural       Zn4H64C96S4N16O24
_chemical_formula_sum              "Zn4 H64 C96 S4 N16 O24"
_cell_length_a       7.169815205055241
_cell_length_b       19.068195612958885
_cell_length_c       21.62571838507245
_cell_angle_alpha    89.99974372228985
_cell_angle_beta     89.99989618027853
_cell_angle_gamma    98.84770376178919

_space_group_name_H-M_alt    "P 1"
_space_group_IT_number       1

loop_
  _space_group_symop_operation_xyz
  'x, y, z'

loop_
  _atom_site_type_symbol
  _atom_site_label
  _atom_site_symmetry_multiplicity
  _atom_site_fract_x
  _atom_site_fract_y
  _atom_site_fract_z
  _atom_site_occupancy
  Zn  Zn1       1.0  0.5019737441086817  0.5652194643608225  0.8000304313052382  1.0000
  Zn  Zn2       1.0  0.4980444580716463  0.9347916881702927  0.3000292067094605  1.0000
  Zn  Zn3       1.0  0.4980162955501796  0.4347863043252857  0.19997062275538008  1.0000
  Zn  Zn4       1.0  0.5019626979101801  0.06522147103253668  0.6999764714554644  1.0000
  H   H1        1.0  0.18899935220377262  0.47115897447332583  0.061450850449823194  1.0000
  H   H2        1.0  0.8110081651913746  0.028845239956162092  0.5614492623213179  1.0000
  H   H3        1.0  0.8110147969721451  0.528850976502447  0.9385451170592914  1.0000
  H   H4        1.0  0.18900617859310367  0.9711423923640575  0.43854578040681247  1.0000
  H   H5        1.0  0.8610953228993025  0.15429214093310145  0.17811884531016628  1.0000
  H   H6        1.0  0.1388985948204534  0.3457013661933884  0.6781256544867985  1.0000
  H   H7        1.0  0.13887657903172357  0.84571686780324  0.8218831335741683  1.0000
  H   H8        1.0  0.8611189345493385  0.6542936963728178  0.32188094853540855  1.0000
  H   H9        1.0  0.9367392792107194  0.6992194773976051  0.7044725214433426  1.0000
  H   H10       1.0  0.06326346860485892  0.8007869376294962  0.2044674540417759  1.0000
  H   H11       1.0  0.06324413387537216  0.30077408840234904  0.2955197468078836  1.0000
  H   H12       1.0  0.9367458465598659  0.19921824471430932  0.7955192652304247  1.0000
  H   H13       1.0  0.14228720431745495  0.7940327169968809  0.6455778771154925  1.0000
  H   H14       1.0  0.8576857031946827  0.7059879271862641  0.14556485551908338  1.0000
  H   H15       1.0  0.857673297699506  0.2059789811838541  0.3544241017669022  1.0000
  H   H16       1.0  0.14232619835866697  0.29401352808755377  0.854424175821606  1.0000
  H   H17       1.0  0.04206686313776939  0.912046172796323  0.6327202983150642  1.0000
  H   H18       1.0  0.9579078217008214  0.587968692678238  0.1327187795382088  1.0000
  H   H19       1.0  0.9579038732381661  0.0879633706285006  0.36728907916671716  1.0000
  H   H20       1.0  0.04211616234173475  0.41203166531129637  0.8672855114097756  1.0000
  H   H21       1.0  0.536433547474239  0.8409959167516731  0.7368976414651343  1.0000
  H   H22       1.0  0.4635541598714352  0.6590018584008417  0.23691370501848746  1.0000
  H   H23       1.0  0.4635562317285249  0.15898647182854117  0.2630960140433416  1.0000
  H   H24       1.0  0.5364952433571161  0.34101224304269795  0.7630854993588229  1.0000
  H   H25       1.0  0.44781714404921036  0.6874527186992903  0.8828371671856772  1.0000
  H   H26       1.0  0.5521842283196817  0.8125495185230988  0.3828326918041327  1.0000
  H   H27       1.0  0.5521536479808802  0.31255044800325743  0.1171588003494719  1.0000
  H   H28       1.0  0.4477966539828273  0.18744139758994993  0.6171563395663497  1.0000
  H   H29       1.0  0.33203001031830576  0.7005349293367259  0.9919253434072174  1.0000
  H   H30       1.0  0.6680159645031691  0.799471886892725  0.4919139153466859  1.0000
  H   H31       1.0  0.6679874078723171  0.29947288676508066  0.0080752482289697  1.0000
  H   H32       1.0  0.3319690692299417  0.20052220568832974  0.5080704918925036  1.0000
  H   H33       1.0  0.22181988474076056  0.590916750765949  0.05336255056297289  1.0000
  H   H34       1.0  0.7782066519718991  0.9090814044867269  0.5533604125923688  1.0000
  H   H35       1.0  0.7781984436173558  0.409093188263469  0.9466412779554644  1.0000
  H   H36       1.0  0.22181078889272499  0.09089718547232908  0.446636942214532  1.0000
  H   H37       1.0  0.35867148478003935  0.4674698734864504  0.897243620870583  1.0000
  H   H38       1.0  0.641326680812675  0.03252984045241189  0.39724620474562033  1.0000
  H   H39       1.0  0.6413310647465592  0.5325390478262548  0.1027500345820229  1.0000
  H   H40       1.0  0.3586814079997326  0.9674562155275765  0.602762247946579  1.0000
  H   H41       1.0  0.02675514280055315  0.3937852294869018  0.12154015209339519  1.0000
  H   H42       1.0  0.9732132345827151  0.10620654010462965  0.6215464883345305  1.0000
  H   H43       1.0  0.9732315722749404  0.6062290508557239  0.87844795440472  1.0000
  H   H44       1.0  0.026798290083171042  0.8937582507473677  0.37845780268697377  1.0000
  H   H45       1.0  0.9473820932424529  0.27177020995509327  0.1787335977162812  1.0000
  H   H46       1.0  0.05258998559781248  0.22822441882958336  0.678739531789887  1.0000
  H   H47       1.0  0.0525995045844282  0.7282451477167553  0.8212683811527411  1.0000
  H   H48       1.0  0.9473688020238527  0.7717442421177977  0.3212874174462996  1.0000
  H   H49       1.0  0.6582382795883676  0.062972304441864  0.2285853845357195  1.0000
  H   H50       1.0  0.34174793698295497  0.43703316538830694  0.7285949528912568  1.0000
  H   H51       1.0  0.3417642421320791  0.9370398052467194  0.7714096581477888  1.0000
  H   H52       1.0  0.6582267789017635  0.5629726470262996  0.2714042515242312  1.0000
  H   H53       1.0  0.8321018162624012  0.870365402789083  0.2652794070995981  1.0000
  H   H54       1.0  0.16788569569340675  0.6296290266127823  0.7652708637655793  1.0000
  H   H55       1.0  0.167879553953945  0.12964942410244615  0.7347392186163688  1.0000
  H   H56       1.0  0.832100275955149  0.37036400047895046  0.2347301903212582  1.0000
  H   H57       1.0  0.1436471489267532  0.9085011891674668  0.2115074474376542  1.0000
  H   H58       1.0  0.856368675316176  0.5914902706598041  0.711492176616801  1.0000
  H   H59       1.0  0.8563288487770747  0.09151737275657716  0.7885042420867875  1.0000
  H   H60       1.0  0.14365362741128243  0.40848989958739407  0.28850147888649497  1.0000
  H   H61       1.0  0.20256529064256062  0.027655037534223895  0.1599973457390362  1.0000
  H   H62       1.0  0.7974355075214274  0.4723380195546766  0.6599870869441204  1.0000
  H   H63       1.0  0.7974095971785359  0.9723576823688588  0.8400037083123664  1.0000
  H   H64       1.0  0.2025552096440818  0.5276433035695687  0.3400111926900138  1.0000
  C   C1        1.0  0.5958161341774968  0.7067583877501135  0.7586035250781081  1.0000
  C   C2        1.0  0.40420458082116517  0.7932418292872182  0.2586042988301855  1.0000
  C   C3        1.0  0.4041807823131974  0.2932308884417622  0.24139290488904658  1.0000
  C   C4        1.0  0.595820884919462  0.20677499742055253  0.7413782587029586  1.0000
  C   C5        1.0  0.7233005118519529  0.7641072201328071  0.7243978061688097  1.0000
  C   C6        1.0  0.2767097827642927  0.7358942799101482  0.2244011920232296  1.0000
  C   C7        1.0  0.2767049627929552  0.2358857513122955  0.2756027855000411  1.0000
  C   C8        1.0  0.7233240691687044  0.26411933454441067  0.7755901513490713  1.0000
  C   C9        1.0  0.8950136339038863  0.751307845305547  0.6989327309851416  1.0000
  C   C10       1.0  0.10497943379751708  0.7486954398955773  0.19892784378181005  1.0000
  C   C11       1.0  0.10497646137456224  0.24869154663392817  0.3010636989641426  1.0000
  C   C12       1.0  0.8950440396171899  0.25131023343001146  0.8010602627224371  1.0000
  C   C13       1.0  0.010217702110118288  0.8041837601402546  0.6661196412276169  1.0000
  C   C14       1.0  0.9897490720032562  0.6958293477526565  0.16611120624042286  1.0000
  C   C15       1.0  0.9897398696236336  0.19581785011812505  0.3338818752630672  1.0000
  C   C16       1.0  0.01026158062746418  0.30418220737319496  0.8338764378436422  1.0000
  C   C17       1.0  0.9541167463929056  0.8704492399157999  0.6584834187178146  1.0000
  C   C18       1.0  0.04586959076628716  0.6295638546711615  0.1584813462901664  1.0000
  C   C19       1.0  0.04585887965020419  0.12955869541999473  0.34152133464184686  1.0000
  C   C20       1.0  0.9541527448903934  0.370439164960615  0.8415150836425411  1.0000
  C   C21       1.0  0.7839360211959131  0.8844935244220477  0.6840590075666809  1.0000
  C   C22       1.0  0.21602861942716334  0.6155083305541708  0.184063826778889  1.0000
  C   C23       1.0  0.21603459885960768  0.11550273476508716  0.3159448209926126  1.0000
  C   C24       1.0  0.7839887987416316  0.3844994855322453  0.8159423138059053  1.0000
  C   C25       1.0  0.6695135401244627  0.8311555045829518  0.7170735404670339  1.0000
  C   C26       1.0  0.33046852338640054  0.6688418657259374  0.2170813199438797  1.0000
  C   C27       1.0  0.33048562400517767  0.16884226732242516  0.2829256639570801  1.0000
  C   C28       1.0  0.6695507707715366  0.33116381949342605  0.7829178844587901  1.0000
  C   C29       1.0  0.7298076671483141  0.9567184624081969  0.6748887815578257  1.0000
  C   C30       1.0  0.2701637834286642  0.5432828928279461  0.1748938528017376  1.0000
  C   C31       1.0  0.2701590012100468  0.04327833941712099  0.3251224455997104  1.0000
  C   C32       1.0  0.7298344427073146  0.4567159445116005  0.8251085885072486  1.0000
  C   C33       1.0  0.4014308654728325  0.6418031222525684  0.9123350188605032  1.0000
  C   C34       1.0  0.5985628543927318  0.8581979097524619  0.41232802488216436  1.0000
  C   C35       1.0  0.5985696083129992  0.358204210808175  0.0876674224311316  1.0000
  C   C36       1.0  0.40140364209109686  0.14179198462798576  0.5876656306183818  1.0000
  C   C37       1.0  0.3352184378987033  0.6481415794145987  0.9722807800742999  1.0000
  C   C38       1.0  0.6648029270995579  0.8518563829004004  0.47227978354700173  1.0000
  C   C39       1.0  0.6647915320586506  0.35186838348187877  0.027716574673164  1.0000
  C   C40       1.0  0.335175651938961  0.14813241424193538  0.5277124847150104  1.0000
  C   C41       1.0  0.2739242759547408  0.5874284675170214  0.0063402892006081  1.0000
  C   C42       1.0  0.7261225609883013  0.9125741427837467  0.5063358559896685  1.0000
  C   C43       1.0  0.7260796388076327  0.4125836381761942  0.9936621520806455  1.0000
  C   C44       1.0  0.2739027276128568  0.08740973861865338  0.49366103639215453  1.0000
  C   C45       1.0  0.2790753252058451  0.5201713970250309  0.9800278425894859  1.0000
  C   C46       1.0  0.7209497029837378  0.9798254489344057  0.4800226110812744  1.0000
  C   C47       1.0  0.7209239552605808  0.47983965912957405  0.0199727490456496  1.0000
  C   C48       1.0  0.2790994953592048  0.020158895621975096  0.5199770557669368  1.0000
  C   C49       1.0  0.3484504410319712  0.5177970711162909  0.9194846358610745  1.0000
  C   C50       1.0  0.6515713393249951  0.9822011840667243  0.41948452222342775  1.0000
  C   C51       1.0  0.6515557770125895  0.48221715356046246  0.08050994440480959  1.0000
  C   C52       1.0  0.3484571904883396  0.017783750840152393  0.5805174566916023  1.0000
  C   C53       1.0  0.21625984849656987  0.39067283303343453  0.999050836053037  1.0000
  C   C54       1.0  0.7837749015317853  0.10932567811209278  0.49905118507170704  1.0000
  C   C55       1.0  0.7837834995642935  0.6093434112260779  0.0009465186723006  1.0000
  C   C56       1.0  0.21623929808610143  0.8906518583181082  0.5009498690372922  1.0000
  C   C57       1.0  0.1467096947057414  0.3377472832378671  0.0466141611588284  1.0000
  C   C58       1.0  0.8533158495642112  0.16225324268639696  0.5466198851013075  1.0000
  C   C59       1.0  0.8533166811496217  0.6622716663603184  0.9533850432157037  1.0000
  C   C60       1.0  0.14668865409414858  0.8377179447634117  0.4533973534564524  1.0000
  C   C61       1.0  0.05690470248966758  0.3438060741939069  0.10280282921424087  1.0000
  C   C62       1.0  0.9430583941576317  0.15619591110530706  0.6028108363985396  1.0000
  C   C63       1.0  0.9430525305325972  0.656207758874906  0.8971894390048546  1.0000
  C   C64       1.0  0.056946364886506604  0.8437726187271292  0.3971962290919109  1.0000
  C   C65       1.0  0.015339786556481237  0.2781515423250837  0.1336227557807703  1.0000
  C   C66       1.0  0.9846229234926439  0.22184017614643628  0.6336272437890428  1.0000
  C   C67       1.0  0.9846260324043283  0.7218627976056806  0.866377835857719  1.0000
  C   C68       1.0  0.01537836673240622  0.7781267694037693  0.3663904571903771  1.0000
  C   C69       1.0  0.07728690302049297  0.22347991770556058  0.1009043943620043  1.0000
  C   C70       1.0  0.9227363382111304  0.27652243797480475  0.6008999180107891  1.0000
  C   C71       1.0  0.9227584929022185  0.7765411031304905  0.8991040582505718  1.0000
  C   C72       1.0  0.07722060127848329  0.7234451654996474  0.3991196326298763  1.0000
  C   C73       1.0  0.07948225368883749  0.14868511323116707  0.1175758943371861  1.0000
  C   C74       1.0  0.920581455229012  0.3513207538413709  0.6175609523247018  1.0000
  C   C75       1.0  0.9205787491617555  0.8513300178562059  0.8824325582823888  1.0000
  C   C76       1.0  0.07937886968121415  0.6486579990570787  0.3824470379834537  1.0000
  C   C77       1.0  0.9340746070833816  0.054572240294724794  0.1891003891151044  1.0000
  C   C78       1.0  0.06591871356586398  0.44542652121739906  0.6891031499760132  1.0000
  C   C79       1.0  0.06592945183285069  0.9454499612795214  0.8108992776719645  1.0000
  C   C80       1.0  0.9340694172346603  0.5545585289935104  0.3108868062286376  1.0000
  C   C81       1.0  0.7689434959921683  0.030233025671385895  0.2222831980190279  1.0000
  C   C82       1.0  0.23104512902951763  0.4697682213322308  0.7222885409335902  1.0000
  C   C83       1.0  0.2310524876297463  0.9697833537163943  0.7777201680809256  1.0000
  C   C84       1.0  0.7689389666990181  0.530226936675298  0.2777018776647751  1.0000
  C   C85       1.0  0.8684535909648687  0.922321903695007  0.24364163168409192  1.0000
  C   C86       1.0  0.13153241499576743  0.5776784957302182  0.7436351634248695  1.0000
  C   C87       1.0  0.13152055860327747  0.07769560075355739  0.7563635840695894  1.0000
  C   C88       1.0  0.8684531015717668  0.42231346989963464  0.2563635786022687  1.0000
  C   C89       1.0  0.03679657614437555  0.9433603324327178  0.21223848425461966  1.0000
  C   C90       1.0  0.9631994561896277  0.5566370250008459  0.7122274494645779  1.0000
  C   C91       1.0  0.9631766076294069  0.05666142582974488  0.7877699683776739  1.0000
  C   C92       1.0  0.03680402616573276  0.44334479308773206  0.28776944292769  1.0000
  C   C93       1.0  0.0715873057666201  0.009810740731879297  0.1843827362639416  1.0000
  C   C94       1.0  0.9284034934397737  0.4901885856613716  0.684375567465672  1.0000
  C   C95       1.0  0.9284081393558026  0.9902141423216758  0.815622479468999  1.0000
  C   C96       1.0  0.07158165145976614  0.5097927533751018  0.3156180880462216  1.0000
  S   S1        1.0  0.18156755058694776  0.25197185575017034  0.0318795488169599  1.0000
  S   S2        1.0  0.8184525373378264  0.24802876782167252  0.5318807944834774  1.0000
  S   S3        1.0  0.8184478804390094  0.7480508447568465  0.9681210427905639  1.0000
  S   S4        1.0  0.18157496591302189  0.751940759867331  0.46813135753457397  1.0000
  N   N1        1.0  0.40742444661933036  0.5775848794813495  0.8872404855734927  1.0000
  N   N2        1.0  0.5925955117096603  0.9224119663417479  0.3872392541666088  1.0000
  N   N3        1.0  0.5925746619161743  0.42241926918862294  0.11275686918857279  1.0000
  N   N4        1.0  0.40739793599469454  0.07757572559097528  0.6127594878665973  1.0000
  N   N5        1.0  0.21709736144634914  0.46034232808052167  0.0157340006799558  1.0000
  N   N6        1.0  0.7829091503313919  0.03965895553414359  0.5157360858294595  1.0000
  N   N7        1.0  0.7829301799513714  0.5396760868202005  0.9842610419838279  1.0000
  N   N8        1.0  0.21711036624307664  0.9603212226550683  0.4842603441489501  1.0000
  N   N9        1.0  0.9548783531631811  0.12267987642263017  0.1639662864912736  1.0000
  N   N10       1.0  0.04511681363157996  0.37731636288690845  0.663971176784372  1.0000
  N   N11       1.0  0.045118796046565796  0.8773359682997606  0.8360213575883221  1.0000
  N   N12       1.0  0.9548569869207454  0.6226612888101356  0.3360312645733927  1.0000
  N   N13       1.0  0.7376536395901353  0.9657605379151875  0.24860049509574367  1.0000
  N   N14       1.0  0.26233716136855617  0.5342446026339613  0.74860336906805  1.0000
  N   N15       1.0  0.26233165457178137  0.03425693475251989  0.7513982468813509  1.0000
  N   N16       1.0  0.7376497482572901  0.46574735901206293  0.2513986098453742  1.0000
  O   O1        1.0  0.6606557242637976  0.6464972867849496  0.7630090272382049  1.0000
  O   O2        1.0  0.33937374178103824  0.8535071318059688  0.2630123767034931  1.0000
  O   O3        1.0  0.33935620506843367  0.35350098009373443  0.23698555305735167  1.0000
  O   O4        1.0  0.6606234907962545  0.14649914775285566  0.7369840532301737  1.0000
  O   O5        1.0  0.4415826611026573  0.7180880420513557  0.7802532334434105  1.0000
  O   O6        1.0  0.5584230704619059  0.7819067833090471  0.2802590478545426  1.0000
  O   O7        1.0  0.5583922494197181  0.28189545172821073  0.21973764759294312  1.0000
  O   O8        1.0  0.44162878029000296  0.21811953306063  0.7197073252187707  1.0000
  O   O9        1.0  0.5893517574284174  0.9715616049429123  0.7071855241311339  1.0000
  O   O10       1.0  0.41062850794133965  0.528437951123415  0.2071859472397151  1.0000
  O   O11       1.0  0.41062531727258283  0.02843994964830899  0.2928229285397137  1.0000
  O   O12       1.0  0.5893606493216266  0.4715625062348322  0.7928192685430561  1.0000
  O   O13       1.0  0.8221577595161234  0.9989237573967883  0.6372566269263871  1.0000
  O   O14       1.0  0.17782305599215673  0.5010761865703441  0.1372600684700416  1.0000
  O   O15       1.0  0.17782471551446832  0.0010708737937292993  0.36275460023077943  1.0000
  O   O16       1.0  0.8221846941087634  0.49892209222006983  0.8627391359505622  1.0000
  O   O17       1.0  0.27088273756766057  0.37180870430585594  0.9479755596090342  1.0000
  O   O18       1.0  0.7291157115412261  0.1281923204179947  0.4479772537738285  1.0000
  O   O19       1.0  0.7291148667085492  0.6282082018681546  0.0520180958293324  1.0000
  O   O20       1.0  0.2709492934830421  0.8717898535099947  0.552020101012097  1.0000
  O   O21       1.0  0.1861289809111923  0.11287863406535337  0.0915453530726467  1.0000
  O   O22       1.0  0.8139522767137277  0.3871352986893654  0.591522471862092  1.0000
  O   O23       1.0  0.8139250009373312  0.887142893623675  0.9084746598460285  1.0000
  O   O24       1.0  0.18602908837591767  0.6128534904391357  0.4084929170183358  1.0000
