data_image0
_chemical_formula_structural       Al6H86C102O28
_chemical_formula_sum              "Al6 H86 C102 O28"
_cell_length_a       13.60109370082224
_cell_length_b       13.666504806498013
_cell_length_c       27.487727724486827
_cell_angle_alpha    90.50981698377335
_cell_angle_beta     90.07766870463206
_cell_angle_gamma    60.22526251899721

_space_group_name_H-M_alt    "P 1"
_space_group_IT_number       1

loop_
  _space_group_symop_operation_xyz
  'x, y, z'

loop_
  _atom_site_type_symbol
  _atom_site_label
  _atom_site_symmetry_multiplicity
  _atom_site_fract_x
  _atom_site_fract_y
  _atom_site_fract_z
  _atom_site_occupancy
  Al  Al1       1.0  0.5839664037567902  0.8305322163410406  0.49158392395068523  1.0000
  Al  Al2       1.0  0.5687251597240248  0.0727349880099766  0.49837745306749076  1.0000
  Al  Al3       1.0  0.3524978169853837  0.06597470383387362  0.49296001714363064  1.0000
  Al  Al4       1.0  0.07665290589648785  0.8255385731605996  0.9772077524416717  1.0000
  Al  Al5       1.0  0.3096815938612424  0.5912730805630204  0.9780136520682349  1.0000
  Al  Al6       1.0  0.09338597480342499  0.5842173773265672  0.982232005075204  1.0000
  H   H1        1.0  0.8612016906341324  0.9815540902207617  0.28113577930584915  1.0000
  H   H2        1.0  0.9808949887626496  0.5515846708611961  0.1660828539598072  1.0000
  H   H3        1.0  0.7411354102863825  0.6454533175595075  0.2088458262426656  1.0000
  H   H4        1.0  0.7759313255739784  0.686305877400237  0.15376512845538312  1.0000
  H   H5        1.0  0.9037340399800016  0.9411632461536216  0.19211956598481816  1.0000
  H   H6        1.0  0.4042968871846995  0.36939767718541117  0.6074095161705203  1.0000
  H   H7        1.0  0.9798240478058136  0.5090132029155185  0.8017585645832384  1.0000
  H   H8        1.0  0.9426423477656555  0.4170841275056316  0.7711720056967053  1.0000
  H   H9        1.0  0.014523953925774376  0.3769338005225578  0.8273554279648395  1.0000
  H   H10       1.0  0.1105780684105682  0.40902974136462694  0.7306621573906542  1.0000
  H   H11       1.0  0.14105052229512444  0.2791265231222582  0.7544007989622941  1.0000
  H   H12       1.0  0.1267161623012498  0.423805474012795  0.860013239843603  1.0000
  H   H13       1.0  0.37075514123530706  0.4271008278763944  0.694356378068882  1.0000
  H   H14       1.0  0.6136016391399366  0.11162737967639198  0.789415217289026  1.0000
  H   H15       1.0  0.5538290164610515  0.1454651336654251  0.7301629638479028  1.0000
  H   H16       1.0  0.6809493211442189  0.1463967728676963  0.7426872682130323  1.0000
  H   H17       1.0  0.5187617072960862  0.3423020545755691  0.7402162628755138  1.0000
  H   H18       1.0  0.578009482027845  0.311214381902822  0.7986901293739094  1.0000
  H   H19       1.0  0.46961116266452063  0.35429626899857414  0.8645416901433762  1.0000
  H   H20       1.0  0.30757921505656327  0.1545111708490268  0.7244336875756119  1.0000
  H   H21       1.0  0.5118923613691635  0.24872850991884118  0.1858937557953482  1.0000
  H   H22       1.0  0.3208355643241277  0.10995047175288869  0.6364904787562722  1.0000
  H   H23       1.0  0.1628165313241896  0.9351637902538528  0.6960454186918383  1.0000
  H   H24       1.0  0.20962031328073752  0.7966887134032916  0.5676705448770464  1.0000
  H   H25       1.0  0.1290475133365802  0.820164550290322  0.6217123743617137  1.0000
  H   H26       1.0  0.059990773535780244  0.8858660689969825  0.5665973696285036  1.0000
  H   H27       1.0  0.07568608920350779  0.024964525136617496  0.6214308416544584  1.0000
  H   H28       1.0  0.15492902113526705  0.0029949160403290997  0.5674244519773454  1.0000
  H   H29       1.0  0.31120443090023997  0.5942149010394715  0.7304492871516859  1.0000
  H   H30       1.0  0.2893698144242621  0.7049607103183746  0.6909702228585104  1.0000
  H   H31       1.0  0.3966594696092757  0.5654837996297672  0.676956247854946  1.0000
  H   H32       1.0  0.48444204572334837  0.6717993810306595  0.7111305600930822  1.0000
  H   H33       1.0  0.5052562242063702  0.5647081654070333  0.7512902943393273  1.0000
  H   H34       1.0  0.5138510321474712  0.8276709359758881  0.7192393979327109  1.0000
  H   H35       1.0  0.6045636956366423  0.541870739763354  0.819421668307662  1.0000
  H   H36       1.0  0.5610025054861295  0.5755608007310897  0.8811174018818592  1.0000
  H   H37       1.0  0.600835527312846  0.439327816921683  0.8575315190586538  1.0000
  H   H38       1.0  0.3916617913756328  0.5541864356102479  0.8641670040115983  1.0000
  H   H39       1.0  0.4304814003485263  0.5238068045640887  0.802848070013269  1.0000
  H   H40       1.0  0.026184525761081504  0.08104989774561491  0.798228705295358  1.0000
  H   H41       1.0  0.07418022218348601  0.12380568153844249  0.8497730809733569  1.0000
  H   H42       1.0  0.032714122884705404  0.2075169544995887  0.7968738401227499  1.0000
  H   H43       1.0  0.24704350949372159  0.09145768169658912  0.8047985080749102  1.0000
  H   H44       1.0  0.19545340590596538  0.06695037535558872  0.750058718572518  1.0000
  H   H45       1.0  0.5686619817108322  0.016235313666236102  0.6450257731421091  1.0000
  H   H46       1.0  0.18827199987853066  0.9524521417350016  0.8727519446257048  1.0000
  H   H47       1.0  0.5374017529606546  0.8393799237410208  0.6305393631778671  1.0000
  H   H48       1.0  0.15105703417342645  0.4602018541482451  0.20539991643025965  1.0000
  H   H49       1.0  0.08466632013337956  0.8589099095308586  0.7757329803882911  1.0000
  H   H50       1.0  0.04624946116195615  0.8270726820027079  0.7182722978237378  1.0000
  H   H51       1.0  0.0351018322405636  0.960715131368673  0.7288606050271513  1.0000
  H   H52       1.0  0.844773590285783  0.9782154325018126  0.7317169505869999  1.0000
  H   H53       1.0  0.8816056225946413  0.0156760003527197  0.7876079248871904  1.0000
  H   H54       1.0  0.963358636291204  0.8722025822503668  0.8545068485067517  1.0000
  H   H55       1.0  0.6156014600218499  0.9645770900289958  0.7316939854173157  1.0000
  H   H56       1.0  0.9009646331697496  0.7514624926414797  0.6028522670648189  1.0000
  H   H57       1.0  0.7400481529030788  0.6814822045676364  0.6979638464873192  1.0000
  H   H58       1.0  0.8318809292597179  0.5642111409417795  0.733522975238607  1.0000
  H   H59       1.0  0.6889730030189155  0.5983917834489745  0.7252392237535759  1.0000
  H   H60       1.0  0.6887528850354483  0.6651245094508341  0.8051924638296697  1.0000
  H   H61       1.0  0.6282862978714762  0.7859221343560986  0.7699814056742866  1.0000
  H   H62       1.0  0.6884690708367032  0.7805303297972016  0.926504453111697  1.0000
  H   H63       1.0  0.6155660339681716  0.7620870422837883  0.8768743045227438  1.0000
  H   H64       1.0  0.6634595514239979  0.6646865841174401  0.9256325031176402  1.0000
  H   H65       1.0  0.7951538531223149  0.579795301611327  0.8543217865591118  1.0000
  H   H66       1.0  0.8648206818730415  0.5996646744887144  0.9038799988435215  1.0000
  H   H67       1.0  0.532307676382061  0.20323428138818403  0.2741346365524322  1.0000
  H   H68       1.0  0.9527689485201093  0.711571629983702  0.6903478013442739  1.0000
  H   H69       1.0  0.17127409999604742  0.4146596438776342  0.2935222806649875  1.0000
  H   H70       1.0  0.2817451314339579  0.026536832777907197  0.265201170077539  1.0000
  H   H71       1.0  0.1603890178176286  0.17212986620225476  0.2129715220909745  1.0000
  H   H72       1.0  0.3039985156998171  0.1376473883307341  0.20608283520007117  1.0000
  H   H73       1.0  0.20639545217103009  0.20477112252955715  0.15825921821669203  1.0000
  H   H74       1.0  0.32686626962161114  0.0026446452584422994  0.1371362846564921  1.0000
  H   H75       1.0  0.186478179723963  0.035406111554976895  0.1440898708414977  1.0000
  H   H76       1.0  0.3839410198186854  0.6481530374786076  0.198831569339653  1.0000
  H   H77       1.0  0.3974060010556358  0.6746255368915184  0.2882912926597783  1.0000
  H   H78       1.0  0.9515132527929853  0.5103882440312759  0.2232683130040201  1.0000
  H   H79       1.0  0.5956187441957184  0.8414372281277595  0.3156725494907775  1.0000
  H   H80       1.0  0.5956867466051107  0.7625088842268612  0.263902910982047  1.0000
  H   H81       1.0  0.6069895949919301  0.7078954958228324  0.3236239379469835  1.0000
  H   H82       1.0  0.7977764506070387  0.6137613152362675  0.28296853816891604  1.0000
  H   H83       1.0  0.7949603152568088  0.6918942777286076  0.33487925395171203  1.0000
  H   H84       1.0  0.9025048785839332  0.47977998837177444  0.1682674066433378  1.0000
  H   H85       1.0  0.7051102475764566  0.6448893206739754  0.5165167058760787  1.0000
  H   H86       1.0  0.9363670627324795  0.006568106450856701  0.9544973103086037  1.0000
  C   C1        1.0  0.7042553447291766  0.9149343182251289  0.4286855274050866  1.0000
  C   C2        1.0  0.30328254368252056  0.9445312334543131  0.24985286142074875  1.0000
  C   C3        1.0  0.23113324635078664  0.141445361469458  0.1869378776223201  1.0000
  C   C4        1.0  0.7622469420852838  0.6997733404556143  0.2976903793899838  1.0000
  C   C5        1.0  0.6325658251041802  0.7560373771094644  0.3001600189648954  1.0000
  C   C6        1.0  0.29637153287363577  0.9315714015174874  0.19992537229229873  1.0000
  C   C7        1.0  0.4004545348061158  0.2044261433728209  0.4301093337890123  1.0000
  C   C8        1.0  0.36189563564963145  0.7306570828332822  0.2138638579211403  1.0000
  C   C9        1.0  0.36885296341281304  0.7451787785434689  0.2634292459919862  1.0000
  C   C10       1.0  0.3390364771199118  0.8529025962294269  0.28188823513784916  1.0000
  C   C11       1.0  0.32559002251835545  0.8224708675448864  0.18192941545407856  1.0000
  C   C12       1.0  0.31576702968315135  0.8046749562152298  0.1318855222914834  1.0000
  C   C13       1.0  0.34852541899950745  0.8693860998428492  0.33208085173303203  1.0000
  C   C14       1.0  0.30472343687202397  0.787603457913356  0.089153522509875  1.0000
  C   C15       1.0  0.2341495988508768  0.40414628082027076  0.22067470649580656  1.0000
  C   C16       1.0  0.7590755058510011  0.8977584543489671  0.382312089853052  1.0000
  C   C17       1.0  0.8014776384199253  0.7655274802479327  0.2674185874296668  1.0000
  C   C18       1.0  0.8219176890871935  0.7455149743475787  0.21720578388754322  1.0000
  C   C19       1.0  0.38605734800137975  0.9093028706538321  0.42244533961331143  1.0000
  C   C20       1.0  0.8742231698037629  0.8941781137185174  0.213662409943268  1.0000
  C   C21       1.0  0.851335178177145  0.9159847918032467  0.2627530193458725  1.0000
  C   C22       1.0  0.8148261694744218  0.8526120114306652  0.2898212222032797  1.0000
  C   C23       1.0  0.8596537087870078  0.8094467638132414  0.19067736784663233  1.0000
  C   C24       1.0  0.8864665388112982  0.7883239576523311  0.1406060810763776  1.0000
  C   C25       1.0  0.7876190390999656  0.8779238091373358  0.3396719636832017  1.0000
  C   C26       1.0  0.24539294590044142  0.3788023387216342  0.2697968124716184  1.0000
  C   C27       1.0  0.9142806030730173  0.7719228525567983  0.0978527615200235  1.0000
  C   C28       1.0  0.3635379620908807  0.2367328823336264  0.6162381673505734  1.0000
  C   C29       1.0  0.3801094101104781  0.32447836746348463  0.6330212948533784  1.0000
  C   C30       1.0  0.3634663920876733  0.3551265078603619  0.6820708189198541  1.0000
  C   C31       1.0  0.6937213480900867  0.9122262292644052  0.5668312217018894  1.0000
  C   C32       1.0  0.33781453675184986  0.2947909796399415  0.7160999684424498  1.0000
  C   C33       1.0  0.3245161563067782  0.2049025439481867  0.6988619819923871  1.0000
  C   C34       1.0  0.33350615916972254  0.17845145717550537  0.6494611372970027  1.0000
  C   C35       1.0  0.2202081959497734  0.3589702001689402  0.7926428621334056  1.0000
  C   C36       1.0  0.20772843712481404  0.3919426800982606  0.8415083480415291  1.0000
  C   C37       1.0  0.3530987520865878  0.30612585392128017  0.28971389771340483  1.0000
  C   C38       1.0  0.4006994519302367  0.35456198712067527  0.8441750354094779  1.0000
  C   C39       1.0  0.4160141279003966  0.3236166505585771  0.7950455053612657  1.0000
  C   C40       1.0  0.3251311523833992  0.32542357877754574  0.7688764276877649  1.0000
  C   C41       1.0  0.2968268573901796  0.3910488013928274  0.8673868198654873  1.0000
  C   C42       1.0  0.362819394159068  0.8979180083742478  0.6133448324947539  1.0000
  C   C43       1.0  0.38456605602404886  0.1969993426211119  0.5647670976929008  1.0000
  C   C44       1.0  0.2542118314759563  0.9293167913806073  0.6318072383234963  1.0000
  C   C45       1.0  0.24470761643944883  0.9176158632510577  0.6819088247763786  1.0000
  C   C46       1.0  0.33611367019592103  0.8786931107454734  0.7140595140801834  1.0000
  C   C47       1.0  0.44128262426468706  0.8557362128720742  0.6951635099539857  1.0000
  C   C48       1.0  0.3300952338827443  0.3574477686246525  0.1898018646817476  1.0000
  C   C49       1.0  0.4545885844738821  0.8624482220615802  0.6455520434295254  1.0000
  C   C50       1.0  0.38117045149933654  0.7317687030186875  0.7762245009757365  1.0000
  C   C51       1.0  0.3712913172674064  0.6957934038879756  0.8230874895551565  1.0000
  C   C52       1.0  0.24428448675833161  0.8925272262198549  0.8453751179562303  1.0000
  C   C53       1.0  0.25733311985175056  0.9298766090328886  0.800090373467512  1.0000
  C   C54       1.0  0.32546902553682605  0.8480645056943672  0.7649677226283986  1.0000
  C   C55       1.0  0.3902703356677151  0.9050421455748817  0.5615106764564075  1.0000
  C   C56       1.0  0.29989417736480567  0.7780237782162659  0.8573464345890187  1.0000
  C   C57       1.0  0.731832326000884  0.8869021539865828  0.6184555058243079  1.0000
  C   C58       1.0  0.6523145256444067  0.9479306954222297  0.654915921886456  1.0000
  C   C59       1.0  0.31638047034837774  0.3845212151137146  0.1397391886032864  1.0000
  C   C60       1.0  0.6789494040284085  0.9194958650846913  0.7035692011988458  1.0000
  C   C61       1.0  0.787481644060982  0.835374184909611  0.7170099094398665  1.0000
  C   C62       1.0  0.8678267613836326  0.7770714076811913  0.6802263354483813  1.0000
  C   C63       1.0  0.8395161854855927  0.7999298165939592  0.6312558751901705  1.0000
  C   C64       1.0  0.879219403532936  0.8615225952791548  0.7899334049309132  1.0000
  C   C65       1.0  0.916293492037532  0.8354461493842609  0.8376920695935937  1.0000
  C   C66       1.0  0.8315744140127775  0.7150789592902953  0.8456646350415797  1.0000
  C   C67       1.0  0.3756031084884556  0.2541379675533904  0.3827202661381008  1.0000
  C   C68       1.0  0.7905931023799866  0.7436249046766077  0.7974593119713234  1.0000
  C   C69       1.0  0.8197848134939961  0.8116629287257952  0.7692327646918075  1.0000
  C   C70       1.0  0.36477696044070024  0.279098055446596  0.33977734227384104  1.0000
  C   C71       1.0  0.8968454315917923  0.7608973270921666  0.8650786331025488  1.0000
  C   C72       1.0  0.27873025429983767  0.7593334713379605  0.0422546031539426  1.0000
  C   C73       1.0  0.27004598437759597  0.46059157431889014  0.0495644302838159  1.0000
  C   C74       1.0  0.9650126332583111  0.750383654026088  0.0503951945462546  1.0000
  C   C75       1.0  0.26870846103511775  0.750063173596452  0.9053412894614823  1.0000
  C   C76       1.0  0.2744967279675947  0.4446896433685268  0.9162139043372264  1.0000
  C   C77       1.0  0.9532838261224509  0.7351094377351473  0.9136715234617938  1.0000
  C   C78       1.0  0.4491833648795236  0.2595999891247587  0.2588654707155129  1.0000
  C   C79       1.0  0.43783498107104896  0.2848579867021003  0.2096625675587447  1.0000
  C   C80       1.0  0.8066757919181525  0.6566682698110924  0.1907343854368264  1.0000
  C   C81       1.0  0.3002615040309708  0.4109701862663401  0.096983092011115  1.0000
  C   C82       1.0  0.9169520342768038  0.542848767164962  0.1870231355951617  1.0000
  C   C83       1.0  0.12053609046974154  0.3649152858522982  0.765261350509121  1.0000
  C   C84       1.0  0.008589157051851365  0.42021074306027356  0.79306702881933  1.0000
  C   C85       1.0  0.5297783109125618  0.29068013958505656  0.7724091424200097  1.0000
  C   C86       1.0  0.5984786514024665  0.16633622077981158  0.7579437380881302  1.0000
  C   C87       1.0  0.1505437963623707  0.9626389426118039  0.6009190696011117  1.0000
  C   C88       1.0  0.13645503085784566  0.8603819116764131  0.5884914474920747  1.0000
  C   C89       1.0  0.4401392941894287  0.64482850045448  0.736140129426623  1.0000
  C   C90       1.0  0.3545901815305257  0.6258178547898227  0.7069782778596334  1.0000
  C   C91       1.0  0.43357216286919703  0.5717266868869757  0.8344640064409106  1.0000
  C   C92       1.0  0.3600325019788357  0.8843296328217889  0.3749738510877734  1.0000
  C   C93       1.0  0.5571621882065828  0.5296456071193631  0.8488730835429834  1.0000
  C   C94       1.0  0.19694443742540807  0.05500315655530131  0.7895796510106693  1.0000
  C   C95       1.0  0.07596389298171861  0.12034481315207297  0.8098520122455497  1.0000
  C   C96       1.0  0.9018868879776111  0.9439681029124217  0.7629702461695871  1.0000
  C   C97       1.0  0.02425739597910587  0.8940689271930539  0.7455734069239669  1.0000
  C   C98       1.0  0.7090235538449647  0.7082462251613464  0.7769239023425386  1.0000
  C   C99       1.0  0.7447552693580449  0.6343419431765868  0.7307188292719787  1.0000
  C   C100      1.0  0.7988806984727006  0.6447804690176328  0.8768093504413059  1.0000
  C   C101      1.0  0.6849495855577887  0.7171009597120417  0.9028530198476404  1.0000
  C   C102      1.0  0.2595890719653013  0.027644819180871104  0.16474299202781142  1.0000
  O   O1        1.0  0.47618660243451655  0.8366356248410726  0.44254518665519527  1.0000
  O   O2        1.0  0.17174009362727827  0.48460988711089203  0.0340578246940026  1.0000
  O   O3        1.0  0.9785066950888179  0.6611974142049278  0.0275832732163721  1.0000
  O   O4        1.0  0.6706882214872035  0.8460352127801589  0.43855956365311505  1.0000
  O   O5        1.0  0.9688555732404392  0.8102301954814807  0.9335649343641494  1.0000
  O   O6        1.0  0.16784719466047454  0.8135507976781965  0.9195523357981729  1.0000
  O   O7        1.0  0.34361656506711574  0.6639075220214893  0.9292580936090857  1.0000
  O   O8        1.0  0.34413421974468156  0.4756381606943022  0.932026102845363  1.0000
  O   O9        1.0  0.18396373515903264  0.46450243659446505  0.938575387029374  1.0000
  O   O10       1.0  0.9901323701926258  0.6355856390653828  0.9315548558302  1.0000
  O   O11       1.0  0.16104100866725451  0.6650863485778657  0.9794892207607547  1.0000
  O   O12       1.0  0.47036706731060457  0.1905582445519016  0.5426738080060147  1.0000
  O   O13       1.0  0.6903537305255653  0.9990651714967314  0.45560528762764113  1.0000
  O   O14       1.0  0.49851906239223354  0.17646446764003804  0.4472516692448423  1.0000
  O   O15       1.0  0.3263855349468088  0.18679275613629195  0.45060931859105585  1.0000
  O   O16       1.0  0.3150877155525223  0.0081878553064669  0.4396177449019305  1.0000
  O   O17       1.0  0.4899750965471057  0.8375588536538742  0.5473387673648134  1.0000
  O   O18       1.0  0.6904136148825658  0.8361577590489091  0.5417914330417873  1.0000
  O   O19       1.0  0.6601365986455788  0.013854943858326902  0.5526849303737862  1.0000
  O   O20       1.0  0.31827065125622783  0.16499614384264313  0.5465793110389257  1.0000
  O   O21       1.0  0.31413588647695406  0.9838351611519445  0.534742246354142  1.0000
  O   O22       1.0  0.5013668519320404  0.991541246998125  0.494511468152254  1.0000
  O   O23       1.0  0.9954083590267899  0.8184855563124458  0.0355022881202629  1.0000
  O   O24       1.0  0.1870392605278327  0.829363155086284  0.022390648989578203  1.0000
  O   O25       1.0  0.3512510083894043  0.6606527748047313  0.0254422938996299  1.0000
  O   O26       1.0  0.3403078935485694  0.4813725524721947  0.0276874678714663  1.0000
  O   O27       1.0  0.6584166753508569  0.6829238713063929  0.48873877917888814  1.0000
  O   O28       1.0  0.0015423780165449322  0.9736045788555501  0.9756903609653946  1.0000
