data_image0
_chemical_formula_structural       K4H4C8N8O8
_chemical_formula_sum              "K4 H4 C8 N8 O8"
_cell_length_a       8.221877674269274
_cell_length_b       8.221906201586188
_cell_length_c       9.1030645504185
_cell_angle_alpha    114.61585169227271
_cell_angle_beta     114.61622652591623
_cell_angle_gamma    94.4541480498874

_space_group_name_H-M_alt    "P 1"
_space_group_IT_number       1

loop_
  _space_group_symop_operation_xyz
  'x, y, z'

loop_
  _atom_site_type_symbol
  _atom_site_label
  _atom_site_symmetry_multiplicity
  _atom_site_fract_x
  _atom_site_fract_y
  _atom_site_fract_z
  _atom_site_occupancy
  K   K1        1.0  0.6153890822360355  0.9733309569664997  0.7342439600203294  1.0000
  K   K2        1.0  0.026673830351604977  0.38461397277468007  0.2657580354132563  1.0000
  K   K3        1.0  0.010988111916319121  0.8686794414370881  0.23401569390071603  1.0000
  K   K4        1.0  0.13132110962717297  0.9890124570979852  0.7659860529008713  1.0000
  H   H1        1.0  0.6398433922015909  0.013130386502524499  0.3215912790195361  1.0000
  H   H2        1.0  0.9868673241536996  0.3601535781012331  0.6784067269150781  1.0000
  H   H3        1.0  0.5584361053870169  0.4316591072120132  0.8214953181179894  1.0000
  H   H4        1.0  0.568339384473468  0.44156370228548525  0.17850630552936772  1.0000
  C   C1        1.0  0.5581099615248775  0.06689264841444502  0.23316482766504978  1.0000
  C   C2        1.0  0.9331078594481568  0.44189090892783883  0.7668343046831865  1.0000
  C   C3        1.0  0.4162347447024857  0.4249303430432791  0.7330277679599961  1.0000
  C   C4        1.0  0.5750692446321893  0.5837654406672996  0.2669730288382724  1.0000
  C   C5        1.0  0.39593661792742546  0.1093841193328231  0.2278589779499214  1.0000
  C   C6        1.0  0.8906205487186013  0.6040604198298497  0.772140953354274  1.0000
  C   C7        1.0  0.3684776264271789  0.5818350005354632  0.7278159631431934  1.0000
  C   C8        1.0  0.4181634765567351  0.6315231849344585  0.27218972311368367  1.0000
  N   N1        1.0  0.6122053629072753  0.08843229884399048  0.1194101907101414  1.0000
  N   N2        1.0  0.9115682707574064  0.38779343669089167  0.8805893560410922  1.0000
  N   N3        1.0  0.28091982792062703  0.25710591454569  0.6192999117409456  1.0000
  N   N4        1.0  0.7428941388837557  0.7190796539461815  0.3806997646532012  1.0000
  N   N5        1.0  0.2570050141436013  0.14127279252315364  0.2219898187672342  1.0000
  N   N6        1.0  0.858730006925448  0.742993530510006  0.7780085264723767  1.0000
  N   N7        1.0  0.33076075215125655  0.7149442854829148  0.7220306106159385  1.0000
  N   N8        1.0  0.2850572692342936  0.6692370639377786  0.27796926144980466  1.0000
  O   O1        1.0  0.5214465338593257  0.15519468705198847  0.015733698708039874  1.0000
  O   O2        1.0  0.8448043366294441  0.4785518664721878  0.9842647958308461  1.0000
  O   O3        1.0  0.11048198911203852  0.2442059217809885  0.5156240016194573  1.0000
  O   O4        1.0  0.7557924596199184  0.8895158662170031  0.4843741164532674  1.0000
  O   O5        1.0  0.7559481648610243  0.0425655920466212  0.11324777816214039  1.0000
  O   O6        1.0  0.9574325453815078  0.24404922824934525  0.8867518227319381  1.0000
  O   O7        1.0  0.32058879575063765  0.10718007490664408  0.6131290263267458  1.0000
  O   O8        1.0  0.892820847548812  0.679409991150891  0.38687220467937805  1.0000
