data_image0
_chemical_formula_structural       Zr6H28C50O52F2
_chemical_formula_sum              "Zr6 H28 C50 O52 F2"
_cell_length_a       14.850810209757393
_cell_length_b       14.851054315138951
_cell_length_c       14.849980584191869
_cell_angle_alpha    59.97854641031841
_cell_angle_beta     59.99299832917198
_cell_angle_gamma    59.99050998768736

_space_group_name_H-M_alt    "P 1"
_space_group_IT_number       1

loop_
  _space_group_symop_operation_xyz
  'x, y, z'

loop_
  _atom_site_type_symbol
  _atom_site_label
  _atom_site_symmetry_multiplicity
  _atom_site_fract_x
  _atom_site_fract_y
  _atom_site_fract_z
  _atom_site_occupancy
  Zr  Zr1       1.0  0.8813964228189661  0.8812918598080586  0.6186988254279341  1.0000
  Zr  Zr2       1.0  0.11863964207626057  0.11932392620606443  0.38060509457044833  1.0000
  Zr  Zr3       1.0  0.11874782382270185  0.8813651649252845  0.6185900369798957  1.0000
  Zr  Zr4       1.0  0.8812651624620216  0.11950774318059126  0.3805053892035913  1.0000
  Zr  Zr5       1.0  0.11810587678731135  0.8821494822611626  0.38141381677662173  1.0000
  Zr  Zr6       1.0  0.8818363036369307  0.11856773665702046  0.6178215246873079  1.0000
  H   H1        1.0  0.09377363656293636  0.7195833973698454  0.5931045939776638  1.0000
  H   H2        1.0  0.09367436321492312  0.09375771780021575  0.2188176533203361  1.0000
  H   H3        1.0  0.09352406842043588  0.09408419424427462  0.593282643787461  1.0000
  H   H4        1.0  0.7187712929753477  0.09408817334198004  0.593434098121122  1.0000
  H   H5        1.0  0.7448989696380015  0.6287384683210816  0.9593183875008573  1.0000
  H   H6        1.0  0.8316946329592766  0.5437631382577094  0.8740554630915441  1.0000
  H   H7        1.0  0.8315049084722048  0.37531202702510297  0.042561691621173785  1.0000
  H   H8        1.0  0.7446446536038425  0.46059458410365295  0.12749207701465087  1.0000
  H   H9        1.0  0.14519599473172928  0.35507004092397654  0.33862150715117423  1.0000
  H   H10       1.0  0.8495432805783169  0.6522542232801316  0.6534969763232183  1.0000
  H   H11       1.0  0.1487998405809281  0.6571527963200835  0.341960099265151  1.0000
  H   H12       1.0  0.8468771116555519  0.34754716187347146  0.6536016562736434  1.0000
  H   H13       1.0  0.34525129257926324  0.1550547637353645  0.151068117828288  1.0000
  H   H14       1.0  0.6615278978935069  0.8407787865313806  0.853383667360255  1.0000
  H   H15       1.0  0.6536601115740055  0.1526114520780553  0.8483330564716097  1.0000
  H   H16       1.0  0.35327307661381024  0.8414564911905696  0.15737336545080893  1.0000
  H   H17       1.0  0.8464914364325369  0.1543268125241397  0.8470318555657954  1.0000
  H   H18       1.0  0.14836695937204086  0.8425449044173944  0.15670871923803287  1.0000
  H   H19       1.0  0.849086289557299  0.15409581375977405  0.15184073298664205  1.0000
  H   H20       1.0  0.14492332456381302  0.8393849977782463  0.8544326938066859  1.0000
  H   H21       1.0  0.35329596014598524  0.6581991162613006  0.34065661948244497  1.0000
  H   H22       1.0  0.6533902075385499  0.3487892160725109  0.6521720391266754  1.0000
  H   H23       1.0  0.6614241123029957  0.3541095868598204  0.3400781763289586  1.0000
  H   H24       1.0  0.34520932748156247  0.6517737267400959  0.6543964774874738  1.0000
  H   H25       1.0  0.3501626957367778  0.8442443438469739  0.6500481247986372  1.0000
  H   H26       1.0  0.6556876963017544  0.1507382726564757  0.3437791460403687  1.0000
  H   H27       1.0  0.655715467995883  0.8444503285520855  0.6498533258551475  1.0000
  H   H28       1.0  0.35019038330192137  0.15109837474714982  0.3432732028458005  1.0000
  C   C1        1.0  0.9979676777099872  0.6964655492835093  0.4967100805583016  1.0000
  C   C2        1.0  0.3091856155542346  0.9969933872912621  0.19607921975303108  1.0000
  C   C3        1.0  0.9964911621942464  0.3095177044919382  0.497348928844204  1.0000
  C   C4        1.0  0.6972959713522827  0.997449634571943  0.8093286359166568  1.0000
  C   C5        1.0  0.9968331226611017  0.7017424447023684  0.8046751112333297  1.0000
  C   C6        1.0  0.6967378895289901  0.9974473152632795  0.4967175708944041  1.0000
  C   C7        1.0  0.9965634397988838  0.30541850470788745  0.20098658505261116  1.0000
  C   C8        1.0  0.30929412263501627  0.9974903861727356  0.4964932056943212  1.0000
  C   C9        1.0  0.30920906422988303  0.6968823721748477  0.4962491411949302  1.0000
  C   C10       1.0  0.9963092180075889  0.9982225661879695  0.8087936735708398  1.0000
  C   C11       1.0  0.6971974124963013  0.3099945871806824  0.4968097791258544  1.0000
  C   C12       1.0  0.9977043375438801  0.9973240880660934  0.195929403263044  1.0000
  C   C13       1.0  0.9968670981940879  0.4075955217348476  0.4973802647438815  1.0000
  C   C14       1.0  0.9983748596243562  0.5975395231501751  0.49764852361202827  1.0000
  C   C15       1.0  0.07845802262684748  0.4572671766952467  0.41212196075846214  1.0000
  C   C16       1.0  0.9174687858436883  0.547131742824284  0.5834819251472538  1.0000
  C   C17       1.0  0.07949108296389819  0.5511329851508648  0.41264651749074927  1.0000
  C   C18       1.0  0.9164887444935635  0.453355264426591  0.5831918769942561  1.0000
  C   C19       1.0  0.4077958894653055  0.9969226884195946  0.098092348607267  1.0000
  C   C20       1.0  0.5996191132450407  0.9966069388465539  0.9081820367853979  1.0000
  C   C21       1.0  0.4535986049804066  0.08235969908707831  0.04818366668317258  1.0000
  C   C22       1.0  0.5537056587689622  0.9112212084250899  0.9581030199744661  1.0000
  C   C23       1.0  0.5489055353737627  0.0819839702796514  0.9541913979150535  1.0000
  C   C24       1.0  0.45848724642913674  0.9116532071843721  0.051741863838373134  1.0000
  C   C25       1.0  0.9965165570799576  0.9980803328646388  0.9070433681348434  1.0000
  C   C26       1.0  0.9979875870405268  0.998243918337543  0.09707367428849534  1.0000
  C   C27       1.0  0.9160604974879548  0.08379863072194368  0.9529214968575559  1.0000
  C   C28       1.0  0.07908104630318058  0.9132579410673145  0.050647114850619485  1.0000
  C   C29       1.0  0.9170295602172019  0.08405854750768783  0.046721611708172024  1.0000
  C   C30       1.0  0.07807630284957397  0.912791315587846  0.9567339791039373  1.0000
  C   C31       1.0  0.4077396231139051  0.5988219765642598  0.49625291672268196  1.0000
  C   C32       1.0  0.5994997993311774  0.4088288224836205  0.49599249129141043  1.0000
  C   C33       1.0  0.4584590814997755  0.5525387351749486  0.4109263702027519  1.0000
  C   C34       1.0  0.548719034973182  0.45475980230859403  0.5814505959634674  1.0000
  C   C35       1.0  0.5536479725204871  0.4588572315288387  0.4105391685213534  1.0000
  C   C36       1.0  0.4534589192683643  0.548799751937615  0.5817888779392106  1.0000
  C   C37       1.0  0.9974671509972242  0.6020873972525321  0.9047241347181512  1.0000
  C   C38       1.0  0.9972426445310631  0.4055030876010691  0.10136112087034387  1.0000
  C   C39       1.0  0.9187848684283825  0.5502558810371239  0.9552677031005175  1.0000
  C   C40       1.0  0.07758603262575296  0.45665899454869663  0.050611525199634945  1.0000
  C   C41       1.0  0.9186534192543763  0.4562294737345311  0.04934461510771371  1.0000
  C   C42       1.0  0.07767525618345426  0.5511833784988696  0.956098625979635  1.0000
  C   C43       1.0  0.8178655609061994  0.555545006111018  0.9479480986391947  1.0000
  C   C44       1.0  0.8177182959408216  0.4491611413745033  0.05438658866420102  1.0000
  C   C45       1.0  0.40749142261181964  0.997550188504718  0.4965774639464302  1.0000
  C   C46       1.0  0.5984885607728363  0.9975146086859465  0.4966918303970047  1.0000
  C   C47       1.0  0.4554822834580679  0.9144414003749971  0.5801399648292147  1.0000
  C   C48       1.0  0.5500001911885947  0.08110671640523749  0.4136331763934252  1.0000
  C   C49       1.0  0.5500279751180843  0.914423018263008  0.580178765868851  1.0000
  C   C50       1.0  0.4554584531342769  0.08114657029037885  0.41355575455175847  1.0000
  O   O1        1.0  0.9219714186525397  0.7393429887446811  0.5727888657919921  1.0000
  O   O2        1.0  0.2656058592865378  0.0736897148339466  0.2382659336839126  1.0000
  O   O3        1.0  0.07251314670097037  0.2666054791142827  0.4214648781277006  1.0000
  O   O4        1.0  0.7397136685978011  0.9218910778678904  0.765985098159355  1.0000
  O   O5        1.0  0.07237487577911872  0.743363246446542  0.7627961669452645  1.0000
  O   O6        1.0  0.7392445725124407  0.07400468572775033  0.4209194811130388  1.0000
  O   O7        1.0  0.920196034601432  0.2658042884524148  0.23885772807320663  1.0000
  O   O8        1.0  0.26609325850117227  0.9216546652597585  0.5730107584604552  1.0000
  O   O9        1.0  0.2662010147868871  0.7393435653200268  0.4202811892965244  1.0000
  O   O10       1.0  0.9206523782848705  0.07512023102526658  0.7653919620784888  1.0000
  O   O11       1.0  0.7390455733736445  0.26632749947877693  0.5738802146267544  1.0000
  O   O12       1.0  0.07386171027890488  0.9210811600404868  0.23871510931797965  1.0000
  O   O13       1.0  0.07240867643482582  0.9224341322574219  0.7657975652041031  1.0000
  O   O14       1.0  0.7396118502328549  0.26670747810669587  0.42120206399225424  1.0000
  O   O15       1.0  0.9217450687254499  0.07343510949506538  0.23876121751420945  1.0000
  O   O16       1.0  0.2657104988590719  0.7391646301360737  0.5728515772213285  1.0000
  O   O17       1.0  0.9204548812429252  0.7396591332931096  0.7650491662691297  1.0000
  O   O18       1.0  0.26612548813371734  0.07396595500559035  0.4206257900402832  1.0000
  O   O19       1.0  0.0721168098116253  0.26348453736214583  0.24261412223977166  1.0000
  O   O20       1.0  0.7392879441114036  0.9215858374619188  0.5732184894888236  1.0000
  O   O21       1.0  0.7391223808603584  0.07453974633427406  0.7656807966718588  1.0000
  O   O22       1.0  0.07409776398579766  0.7392750888511158  0.420451736380322  1.0000
  O   O23       1.0  0.2661774380515285  0.9210146024875738  0.2385751571033694  1.0000
  O   O24       1.0  0.9207454267963017  0.26621300641028234  0.5741478779229539  1.0000
  O   O25       1.0  0.7987839074443669  0.06740241784145691  0.5666795233210706  1.0000
  O   O26       1.0  0.06700916498027004  0.06734994971002811  0.5665285664745808  1.0000
  O   O27       1.0  0.06690203496444981  0.06670279467774516  0.29883017823419067  1.0000
  O   O28       1.0  0.06701115505774895  0.7995970841258992  0.5660237463318508  1.0000
  O   O29       1.0  0.14800453373235486  0.9509781632062512  0.4502480590558378  1.0000
  O   O30       1.0  0.9503841870209728  0.9511209552957992  0.4503632324500017  1.0000
  O   O31       1.0  0.9505318268592406  0.14806412233220098  0.4503471354986316  1.0000
  O   O32       1.0  0.9506326157282604  0.9511294371108292  0.6472875911726848  1.0000
  O   O33       1.0  0.15705439611390665  0.42015277993667144  0.32780342699697224  1.0000
  O   O34       1.0  0.8395386862431806  0.5844462529561268  0.6683095724800125  1.0000
  O   O35       1.0  0.15962127833940798  0.5924782619300545  0.3294437781951203  1.0000
  O   O36       1.0  0.8371756957165318  0.41102342813054804  0.667260914994202  1.0000
  O   O37       1.0  0.41049915347602467  0.16685205814790285  0.08513753068522338  1.0000
  O   O38       1.0  0.5973641520384377  0.8269365527607491  0.9201886140602512  1.0000
  O   O39       1.0  0.586643202696827  0.1656803092206972  0.9123518982329983  1.0000
  O   O40       1.0  0.4200965252603627  0.8283962475390891  0.09320373817564595  1.0000
  O   O41       1.0  0.836702057641567  0.16782718993520251  0.9106430678951865  1.0000
  O   O42       1.0  0.15919367125256673  0.8300376232646656  0.0920186722969945  1.0000
  O   O43       1.0  0.8390278727863816  0.16884255835718417  0.08408525649079489  1.0000
  O   O44       1.0  0.15669612351359807  0.8284947169414494  0.9196023399488097  1.0000
  O   O45       1.0  0.420119337450018  0.5940195455951596  0.3276355697922498  1.0000
  O   O46       1.0  0.5863560632256796  0.4127943778439656  0.665258310501933  1.0000
  O   O47       1.0  0.5973062973957186  0.42096166157909926  0.32623248822432077  1.0000
  O   O48       1.0  0.41031481307470613  0.585694219930879  0.6663375824092483  1.0000
  O   O49       1.0  0.4152895178316032  0.8330152681994109  0.6620637448753327  1.0000
  O   O50       1.0  0.5897723546471454  0.16307245565114661  0.3323077972728541  1.0000
  O   O51       1.0  0.5898189339911043  0.8329997767807737  0.6621137431660814  1.0000
  O   O52       1.0  0.415251898571377  0.16314002970874236  0.3321588199197478  1.0000
  F   F1        1.0  0.15911746259484982  0.41695884937701777  0.0902513996979836  1.0000
  F   F2        1.0  0.1592258077176537  0.5907146102985693  0.916590055810019  1.0000
