data_image0
_chemical_formula_structural       Na2Cr2H54C30N2O12
_chemical_formula_sum              "Na2 Cr2 H54 C30 N2 O12"
_cell_length_a       6.086087696191641
_cell_length_b       9.699675172819104
_cell_length_c       14.966493687026357
_cell_angle_alpha    90.00834063975562
_cell_angle_beta     90.00239854812222
_cell_angle_gamma    94.79293852504138

_space_group_name_H-M_alt    "P 1"
_space_group_IT_number       1

loop_
  _space_group_symop_operation_xyz
  'x, y, z'

loop_
  _atom_site_type_symbol
  _atom_site_label
  _atom_site_symmetry_multiplicity
  _atom_site_fract_x
  _atom_site_fract_y
  _atom_site_fract_z
  _atom_site_occupancy
  Na  Na1       1.0  0.7629946681429588  0.7924118207400211  0.6263010988863157  1.0000
  Na  Na2       1.0  0.2370027312005547  0.20763898504505823  0.12632655006517973  1.0000
  Cr  Cr1       1.0  0.2800006767346871  0.9270028064064773  0.5975950478094985  1.0000
  Cr  Cr2       1.0  0.7199362567537975  0.07300906991439858  0.09760164532792708  1.0000
  H   H1        1.0  0.20072916390778062  0.0858063510096656  0.7540641215633953  1.0000
  H   H2        1.0  0.7991744030361686  0.9141789839071774  0.2540749406761762  1.0000
  H   H3        1.0  0.5073299948644489  0.9857969367857322  0.8178043090681795  1.0000
  H   H4        1.0  0.4926372184534172  0.014224155491660898  0.3177988124861243  1.0000
  H   H5        1.0  0.5525176569734709  0.7382114885199228  0.8252832355184976  1.0000
  H   H6        1.0  0.4474961737863694  0.261808368701054  0.3253187234775793  1.0000
  H   H7        1.0  0.2979232662727966  0.6983341531148781  0.7700497997532236  1.0000
  H   H8        1.0  0.70207136915554  0.30172134293555075  0.2701248262083452  1.0000
  H   H9        1.0  0.2583109237324948  0.6657879736590857  0.937540077051494  1.0000
  H   H10       1.0  0.7417161640821561  0.3341682169147475  0.43760478677973674  1.0000
  H   H11       1.0  0.3464929776589258  0.8424191974729138  0.9532247504567476  1.0000
  H   H12       1.0  0.6534709617045849  0.1575705015467079  0.453249429806199  1.0000
  H   H13       1.0  0.94043610958893  0.7318152570173666  0.8444912035455798  1.0000
  H   H14       1.0  0.0595892032799341  0.2681760331147345  0.3445699961642744  1.0000
  H   H15       1.0  0.9295922705206578  0.803566841081249  0.9530542805446769  1.0000
  H   H16       1.0  0.0703913702589318  0.1963711538203796  0.45308915869122757  1.0000
  H   H17       1.0  0.08688263535484711  0.028222983826466895  0.9019427850456265  1.0000
  H   H18       1.0  0.913112131228729  0.9717403009251555  0.4019315444279953  1.0000
  H   H19       1.0  0.8592849624289085  0.9771717665559687  0.8330550225426945  1.0000
  H   H20       1.0  0.14070918562049434  0.0228291771541294  0.33308764958498205  1.0000
  H   H21       1.0  0.05403647392927269  0.7181867634421337  0.4116072699414487  1.0000
  H   H22       1.0  0.9460135499961311  0.2818027121351959  0.9116610493600416  1.0000
  H   H23       1.0  0.34488194668458766  0.9002925176818125  0.4072518547239951  1.0000
  H   H24       1.0  0.6552032652867084  0.09966706148200899  0.9072856275891537  1.0000
  H   H25       1.0  0.4591692107674987  0.7195765216419827  0.3164589713497036  1.0000
  H   H26       1.0  0.5407916450337069  0.2803697743520885  0.8164568104760759  1.0000
  H   H27       1.0  0.6937931723283199  0.78464748334558  0.3772838948484533  1.0000
  H   H28       1.0  0.30622009932673677  0.21536489263556996  0.8773030075848423  1.0000
  H   H29       1.0  0.6578443602361403  0.5841858114953451  0.4794685245460143  1.0000
  H   H30       1.0  0.3421062151425645  0.4158327503697804  0.9794755285687768  1.0000
  H   H31       1.0  0.6492018977982211  0.5218928945020095  0.3683767364457394  1.0000
  H   H32       1.0  0.3508307741437804  0.4780853798615681  0.8683850141752741  1.0000
  H   H33       1.0  0.24067568631814848  0.4875558152423524  0.3737516093451204  1.0000
  H   H34       1.0  0.7593761745695246  0.5124010180294079  0.8738296419172966  1.0000
  H   H35       1.0  0.353958453312373  0.3967952082131133  0.4620028382259988  1.0000
  H   H36       1.0  0.6459934314640067  0.6032347843535746  0.962029230532522  1.0000
  H   H37       1.0  0.042095941151181565  0.5253707246478426  0.5186092235401671  1.0000
  H   H38       1.0  0.9579226009358448  0.47457115137933664  0.018667378567116096  1.0000
  H   H39       1.0  0.2943233839256791  0.5924963360923668  0.5674522970751352  1.0000
  H   H40       1.0  0.7056360638641977  0.4075230218464013  0.06749314326447119  1.0000
  H   H41       1.0  0.5412728519448323  0.38537566870373735  0.611584726006363  1.0000
  H   H42       1.0  0.45883601157772347  0.6146461037013394  0.11160850655314647  1.0000
  H   H43       1.0  0.1766520279718407  0.3565988687573948  0.6785778777597145  1.0000
  H   H44       1.0  0.8233896208174726  0.6433701622214654  0.17859061998922235  1.0000
  H   H45       1.0  0.03776711563928359  0.34357733122736517  0.7833427559600208  1.0000
  H   H46       1.0  0.9622233540572436  0.6564347158218451  0.2833390786164287  1.0000
  H   H47       1.0  0.048478553393429984  0.5029810199583764  0.7221021255341711  1.0000
  H   H48       1.0  0.9515852156198505  0.49701066191609294  0.22209744641991588  1.0000
  H   H49       1.0  0.6304483644714979  0.1775080865798628  0.6191995157319494  1.0000
  H   H50       1.0  0.3695279771359807  0.8225120440669541  0.11920035019812757  1.0000
  H   H51       1.0  0.7735018206669011  0.14099686960543778  0.718999988046306  1.0000
  H   H52       1.0  0.22649257329074862  0.8590332218870744  0.21900374509176856  1.0000
  H   H53       1.0  0.9214536033252188  0.1578072419623666  0.6164409584122122  1.0000
  H   H54       1.0  0.07850363760016416  0.8421811709441084  0.11645594693379727  1.0000
  C   C1        1.0  0.17194747011166095  0.973505995782638  0.7681739714845006  1.0000
  C   C2        1.0  0.8280049677513759  0.0264775873358261  0.268175439501718  1.0000
  C   C3        1.0  0.39751792287611204  0.9153018981896037  0.7765646297284049  1.0000
  C   C4        1.0  0.6024260246441885  0.08473740931657398  0.27656025611244667  1.0000
  C   C5        1.0  0.3847833823173231  0.7707056570343127  0.8175540276730684  1.0000
  C   C6        1.0  0.6151770281750046  0.2293008840754709  0.3175773727690582  1.0000
  C   C7        1.0  0.260054786018614  0.768519121406335  0.9063832689119165  1.0000
  C   C8        1.0  0.7399295253779812  0.23146173126420416  0.40641900414632903  1.0000
  C   C9        1.0  0.02482469833268649  0.8073481821775346  0.8906305149355447  1.0000
  C   C10       1.0  0.9751123003147341  0.192609219592228  0.39067807404431676  1.0000
  C   C11       1.0  0.026760629134308447  0.9523178069422965  0.8508631037819255  1.0000
  C   C12       1.0  0.9731997100297035  0.047635506717114084  0.35085636911036017  1.0000
  C   C13       1.0  0.1680193889090447  0.7260043974026331  0.4693389120733399  1.0000
  C   C14       1.0  0.8319879025509209  0.2739902145137235  0.9693819667572326  1.0000
  C   C15       1.0  0.38565137933954924  0.8059082465921605  0.4429388715861648  1.0000
  C   C16       1.0  0.6143670159976011  0.19409158354385167  0.9429366305054  1.0000
  C   C17       1.0  0.5329792750700121  0.7249032839128945  0.3837996140266923  1.0000
  C   C18       1.0  0.46706187742535826  0.2750775864660894  0.8838036960125206  1.0000
  C   C19       1.0  0.5585286672785728  0.5787425035283604  0.4178751602715351  1.0000
  C   C20       1.0  0.4415311240124851  0.4212670757689521  0.917897758956293  1.0000
  C   C21       1.0  0.3338975112553797  0.5015213829235352  0.4368099225168222  1.0000
  C   C22       1.0  0.6661231018647767  0.4985008117131072  0.9368589807209131  1.0000
  C   C23       1.0  0.2028213359081121  0.58106051146968  0.5039798579532188  1.0000
  C   C24       1.0  0.7971510269602861  0.4189564317709297  0.0040333799898846  1.0000
  C   C25       1.0  0.6870211820538684  0.43585982990526156  0.6467508866216036  1.0000
  C   C26       1.0  0.3130678705253231  0.5641587487832352  0.1467634258411863  1.0000
  C   C27       1.0  0.03558840314484969  0.390120255908016  0.7163499206904189  1.0000
  C   C28       1.0  0.9644592220505075  0.6098783153420513  0.21635130025219942  1.0000
  C   C29       1.0  0.7867297647046528  0.19730648889520808  0.6552282685385717  1.0000
  C   C30       1.0  0.21325528260074114  0.8027014123013668  0.15523523624225524  1.0000
  N   N1        1.0  0.831521989177979  0.3450530673834462  0.6709212425842708  1.0000
  N   N2        1.0  0.1685024083580373  0.6549544644463409  0.17092302619644062  1.0000
  O   O1        1.0  0.07448301693137438  0.9073410353460005  0.6910043414856727  1.0000
  O   O2        1.0  0.9254451575853578  0.0926947588446083  0.19104640595554656  1.0000
  O   O3        1.0  0.708910064974198  0.5628824689147718  0.6602518028452804  1.0000
  O   O4        1.0  0.2912106853473233  0.4371807170239065  0.16026683306846215  1.0000
  O   O5        1.0  0.48477947663327836  0.9142097003321153  0.6879660936889137  1.0000
  O   O6        1.0  0.5151549346197798  0.0857871266694943  0.18797834531816446  1.0000
  O   O7        1.0  0.07630705011563066  0.808478290743963  0.5363790347893627  1.0000
  O   O8        1.0  0.9236658441068714  0.19152968601292739  0.03639820313060229  1.0000
  O   O9        1.0  0.4873191659304934  0.8461520765000754  0.5257586211961749  1.0000
  O   O10       1.0  0.5126982151743249  0.15390420096217378  0.02578852982583159  1.0000
  O   O11       1.0  0.27767938419793836  0.08417905917765718  0.5648841301426231  1.0000
  O   O12       1.0  0.7223346850818686  0.9158067304000421  0.06490445661771817  1.0000
