data_image0
_chemical_formula_structural       Cd6P4H64C100N12O20
_chemical_formula_sum              "Cd6 P4 H64 C100 N12 O20"
_cell_length_a       13.70632074368884
_cell_length_b       14.54509351613749
_cell_length_c       15.37041250856478
_cell_angle_alpha    103.66973312996036
_cell_angle_beta     92.86868549351551
_cell_angle_gamma    110.5687963207604

_space_group_name_H-M_alt    "P 1"
_space_group_IT_number       1

loop_
  _space_group_symop_operation_xyz
  'x, y, z'

loop_
  _atom_site_type_symbol
  _atom_site_label
  _atom_site_symmetry_multiplicity
  _atom_site_fract_x
  _atom_site_fract_y
  _atom_site_fract_z
  _atom_site_occupancy
  Cd  Cd1       1.0  0.8181174904411178  0.4968326366125525  0.05146728764118786  1.0000
  Cd  Cd2       1.0  0.18188157901337818  0.5031687528601978  0.948536722784638  1.0000
  Cd  Cd3       1.0  0.5839380681012187  0.2434264738978769  0.315284961813738  1.0000
  Cd  Cd4       1.0  0.4160606865191809  0.7565703369020867  0.6847154060364387  1.0000
  Cd  Cd5       1.0  0.04573202958082592  0.6802473811597738  0.9629286306763728  1.0000
  Cd  Cd6       1.0  0.9542683497079308  0.31975934676508905  0.037068825278488766  1.0000
  P   P1        1.0  0.9087682759472173  0.4258239033982675  0.8810554398713389  1.0000
  P   P2        1.0  0.0912329900811811  0.5741813003045237  0.11894691669960615  1.0000
  P   P3        1.0  0.7484561511095931  0.3067544291092902  0.1464949821777211  1.0000
  P   P4        1.0  0.25154347134409244  0.6932408554166898  0.8535037789998723  1.0000
  H   H1        1.0  0.7039962734625574  0.2587400310357708  0.8077901824153384  1.0000
  H   H2        1.0  0.296010995419543  0.7412712761495897  0.19221119515037083  1.0000
  H   H3        1.0  0.6575947140981313  0.2677359803326453  0.9582488116880936  1.0000
  H   H4        1.0  0.3424076787256353  0.7322570157337225  0.041750204403925295  1.0000
  H   H5        1.0  0.691804084591233  0.08996624355767578  0.13587289927431806  1.0000
  H   H6        1.0  0.30819379720839607  0.9100282794821339  0.8641308221150578  1.0000
  H   H7        1.0  0.5746884876858402  0.10747013261422468  0.8308553511320865  1.0000
  H   H8        1.0  0.4253112708661105  0.8925198119487091  0.16914482069337558  1.0000
  H   H9        1.0  0.613157970836987  0.9311880315132869  0.006913556040267075  1.0000
  H   H10       1.0  0.38683962002238553  0.06880572893980029  0.9930912831955108  1.0000
  H   H11       1.0  0.9513553527890295  0.4694623276744281  0.7096559124973039  1.0000
  H   H12       1.0  0.0486498580298686  0.5305474525653507  0.2903424329224434  1.0000
  H   H13       1.0  0.6009986596576197  0.18507500674902388  0.6508521067043131  1.0000
  H   H14       1.0  0.3990097649011729  0.8149317229201144  0.3491489439379051  1.0000
  H   H15       1.0  0.8484999659940441  0.39237190358949187  0.5529908013518889  1.0000
  H   H16       1.0  0.15151223029132405  0.6076294845963801  0.4470059583979376  1.0000
  H   H17       1.0  0.1969291903465446  0.8237989013617835  0.15271541098915253  1.0000
  H   H18       1.0  0.8030672070234315  0.17619943250368658  0.8472767405927822  1.0000
  H   H19       1.0  0.22234141817503403  0.9840680124207636  0.2728601334958752  1.0000
  H   H20       1.0  0.7776614147590735  0.0159318481665167  0.7271332840688769  1.0000
  H   H21       1.0  0.09781897783397397  0.074305095376161  0.2598243616871158  1.0000
  H   H22       1.0  0.9021865026063975  0.9256978181509015  0.7401724552462665  1.0000
  H   H23       1.0  0.9410161401366892  0.0808240188313647  0.17198898712567254  1.0000
  H   H24       1.0  0.058981749747282104  0.9191781320715436  0.8280105898016  1.0000
  H   H25       1.0  0.8009776045845457  0.0050552167244717  0.039614227347932705  1.0000
  H   H26       1.0  0.19901824803320503  0.9949454094899721  0.9603894754509238  1.0000
  H   H27       1.0  0.7043621863537906  0.8593555448206444  0.8975211719796118  1.0000
  H   H28       1.0  0.29563115228090436  0.14064050170433967  0.10247619231638076  1.0000
  H   H29       1.0  0.7016295231117409  0.7038602890707182  0.7873353971470037  1.0000
  H   H30       1.0  0.29836660411497457  0.2961372844651464  0.21266503029886502  1.0000
  H   H31       1.0  0.8411314378343563  0.6325553660231049  0.8128580972981608  1.0000
  H   H32       1.0  0.15886162876643073  0.36743991996708286  0.1871468921329081  1.0000
  H   H33       1.0  0.9305085177187349  0.6952487079640194  0.22923341960041901  1.0000
  H   H34       1.0  0.06948965811800176  0.30475039149145994  0.7707667863470744  1.0000
  H   H35       1.0  0.9028884197900239  0.852501033300477  0.3179165195154423  1.0000
  H   H36       1.0  0.09710975793735337  0.14749806636019258  0.6820843371609155  1.0000
  H   H37       1.0  0.7530523507124655  0.8933137711784622  0.2588082169105589  1.0000
  H   H38       1.0  0.24694174302928928  0.1066822780793188  0.7411976378646228  1.0000
  H   H39       1.0  0.4967837457300132  0.7367669389269904  0.9885157094908406  1.0000
  H   H40       1.0  0.5032240830294015  0.26324207755093454  0.011479322688877894  1.0000
  H   H41       1.0  0.6026860454371529  0.8497323537275606  0.13594424765734908  1.0000
  H   H42       1.0  0.39731681328142804  0.1502713231509745  0.864054581058326  1.0000
  H   H43       1.0  0.45019852692860235  0.5790202217479532  0.8643996714268523  1.0000
  H   H44       1.0  0.5497968735505694  0.4209773521329936  0.13560202647283853  1.0000
  H   H45       1.0  0.49369464678237307  0.4262502202719175  0.7894294372280296  1.0000
  H   H46       1.0  0.5062973945680865  0.573744302655868  0.21057533758779093  1.0000
  H   H47       1.0  0.6442077675730643  0.399095877004946  0.8625661123588697  1.0000
  H   H48       1.0  0.3557883691068182  0.6009016975568784  0.13743756873133603  1.0000
  H   H49       1.0  0.7333416915084925  0.4694850534663573  0.2968758553829501  1.0000
  H   H50       1.0  0.266655455296643  0.5305132825163311  0.703122834491566  1.0000
  H   H51       1.0  0.742740530372586  0.6514103594349975  0.3314199258339412  1.0000
  H   H52       1.0  0.2572569111540801  0.34858873954480174  0.668578947651909  1.0000
  H   H53       1.0  0.5877690836734502  0.6899395509563178  0.3869120523723878  1.0000
  H   H54       1.0  0.41222968538761506  0.31006107490375007  0.6130898222555101  1.0000
  H   H55       1.0  0.2529941986369265  0.48229627070061537  0.4452376843760744  1.0000
  H   H56       1.0  0.7470023674939128  0.5177043537323982  0.5547601928668867  1.0000
  H   H57       1.0  0.4063367745883183  0.6246869478346184  0.4248051704160715  1.0000
  H   H58       1.0  0.5936605220713247  0.3753136766637013  0.5751927378307966  1.0000
  H   H59       1.0  0.17187199539766593  0.29683355608317896  0.44569551434737037  1.0000
  H   H60       1.0  0.8281255872147424  0.7031640169677119  0.5543030229197183  1.0000
  H   H61       1.0  0.19280868305706625  0.1286833370995524  0.4276020118304586  1.0000
  H   H62       1.0  0.8071899172431428  0.8713149981929718  0.5723941371364061  1.0000
  H   H63       1.0  0.3625471857211976  0.1135494052068466  0.3819691541966249  1.0000
  H   H64       1.0  0.6374527288789622  0.8864504555296123  0.6180254408102213  1.0000
  C   C1        1.0  0.833546896342895  0.369241552961057  0.7689044344410545  1.0000
  C   C2        1.0  0.1664605060624139  0.6307682274746256  0.23109400399042798  1.0000
  C   C3        1.0  0.682141875912798  0.1900362752167126  0.05510813497072319  1.0000
  C   C4        1.0  0.31785730196485656  0.8099559577965394  0.944891224223184  1.0000
  C   C5        1.0  0.7352605279005073  0.2885518099363011  0.7519531462716171  1.0000
  C   C6        1.0  0.264749210958243  0.7114564451767722  0.24804635041057566  1.0000
  C   C7        1.0  0.6474785176855561  0.19375700661503711  0.9689351245831117  1.0000
  C   C8        1.0  0.35252241786186994  0.8062359897311139  0.031065130958815163  1.0000
  C   C9        1.0  0.66911161506156  0.0943490679095689  0.06829099678347458  1.0000
  C   C10       1.0  0.33088743118351244  0.9056446920585515  0.9317119522735235  1.0000
  C   C11       1.0  0.6026874869147889  0.10529691865582437  0.8978020279498862  1.0000
  C   C12       1.0  0.3973133025594038  0.8946937895850909  0.10220031067741783  1.0000
  C   C13       1.0  0.6254225055346581  0.005927893957206699  0.9968428720732303  1.0000
  C   C14       1.0  0.3745762478795241  0.9940651032190004  0.0031605441012984435  1.0000
  C   C15       1.0  0.5926482681539369  0.010390310614873501  0.9106928271104591  1.0000
  C   C16       1.0  0.40735135687479823  0.9896011606977312  0.08931028384922252  1.0000
  C   C17       1.0  0.5439257769622683  0.914707419605783  0.8344386003352537  1.0000
  C   C18       1.0  0.4560726817303901  0.0852848145733205  0.16556463222794798  1.0000
  C   C19       1.0  0.8747177533881185  0.4068101130865145  0.6968034036159663  1.0000
  C   C20       1.0  0.12529022780085325  0.5931973786936594  0.30319519671820655  1.0000
  C   C21       1.0  0.6780776827117521  0.24699297633650016  0.6650069211889829  1.0000
  C   C22       1.0  0.321933658290355  0.7530137529782692  0.3349923012822699  1.0000
  C   C23       1.0  0.7186381514089248  0.2849491907782634  0.5933468845049175  1.0000
  C   C24       1.0  0.28137434337924105  0.7150529608150933  0.4066513603139795  1.0000
  C   C25       1.0  0.6519652885895936  0.2458445574425738  0.5010990191253198  1.0000
  C   C26       1.0  0.34804456058294864  0.7541545414161919  0.4988964770538116  1.0000
  C   C27       1.0  0.8178713487192366  0.3643869141277278  0.6098376567790849  1.0000
  C   C28       1.0  0.18213924920404154  0.6356160002668289  0.390160678639411  1.0000
  C   C29       1.0  0.14511653042605827  0.865439368169973  0.14974409448856815  1.0000
  C   C30       1.0  0.8548849913049493  0.1345627808023266  0.8502484794407221  1.0000
  C   C31       1.0  0.15791690826351595  0.9547991016089554  0.21701733594572648  1.0000
  C   C32       1.0  0.842086074525099  0.04520304749394911  0.7829752999913848  1.0000
  C   C33       1.0  0.08931612617375607  0.0040071700165356  0.20951214164233525  1.0000
  C   C34       1.0  0.9106881784773577  0.9959965053510731  0.790481543250223  1.0000
  C   C35       1.0  0.00781436023928699  0.9639061989023717  0.1350962115616524  1.0000
  C   C36       1.0  0.992189666021595  0.036100528733428  0.8648994472261575  1.0000
  C   C37       1.0  0.0014287739114421333  0.8737091995175349  0.0700191791948725  1.0000
  C   C38       1.0  0.9985727641508646  0.1262967647200597  0.9299755522410035  1.0000
  C   C39       1.0  0.9338881222436937  0.010474524821702903  0.12232793308609756  1.0000
  C   C40       1.0  0.06611181057839824  0.9895291513852416  0.877669470156199  1.0000
  C   C41       1.0  0.8563551200599235  0.9686378581695152  0.04918619836039538  1.0000
  C   C42       1.0  0.1436423321261273  0.0313650554600002  0.9508128804454326  1.0000
  C   C43       1.0  0.846348587603451  0.8769181882037814  0.9828493273821902  1.0000
  C   C44       1.0  0.1536491536322231  0.12308548780725911  0.0171479828483712  1.0000
  C   C45       1.0  0.7661418164240317  0.8297971861400625  0.9071192018087186  1.0000
  C   C46       1.0  0.23385342973494966  0.17020191223344483  0.09287827720766018  1.0000
  C   C47       1.0  0.7636018111278201  0.7422351330373329  0.8454220435770095  1.0000
  C   C48       1.0  0.23639344070306118  0.25776396595175305  0.1545773876259702  1.0000
  C   C49       1.0  0.8407914010222938  0.7021143574878222  0.8590954128242669  1.0000
  C   C50       1.0  0.1592035617589643  0.29788397911973147  0.14090578695397932  1.0000
  C   C51       1.0  0.865957426587485  0.7161645584227825  0.20760722373876905  1.0000
  C   C52       1.0  0.13404001493918116  0.2838345405570096  0.7923916497470811  1.0000
  C   C53       1.0  0.8498894157227779  0.8034989958513705  0.2559997334662538  1.0000
  C   C54       1.0  0.150109056726123  0.19650086680640302  0.7440013068214453  1.0000
  C   C55       1.0  0.7674551343021391  0.825914470061662  0.22330151664241527  1.0000
  C   C56       1.0  0.23254245965408415  0.17408310422037943  0.7767009249978755  1.0000
  C   C57       1.0  0.7015488740183569  0.7617331483747519  0.1417854615206621  1.0000
  C   C58       1.0  0.2984485750708501  0.23826595142580942  0.8582160148806535  1.0000
  C   C59       1.0  0.7235396753577846  0.674893380584905  0.09775698960451248  1.0000
  C   C60       1.0  0.2764573360335092  0.32510648194227093  0.9022439886753586  1.0000
  C   C61       1.0  0.5772773184537455  0.6309485665344426  0.9754706598417966  1.0000
  C   C62       1.0  0.4227217396569427  0.3690528217071502  0.024529446210827557  1.0000
  C   C63       1.0  0.5585660603852246  0.7198206521802887  0.02090107023474986  1.0000
  C   C64       1.0  0.44143635874480947  0.28018378721966997  0.9790966096306161  1.0000
  C   C65       1.0  0.6175917555868364  0.7821930812188429  0.1016024802022955  1.0000
  C   C66       1.0  0.38240905452172297  0.21780906974007758  0.8983965700117547  1.0000
  C   C67       1.0  0.5156923116948205  0.5637957509463547  0.8931254081007933  1.0000
  C   C68       1.0  0.4843044068655826  0.4362033487889078  0.10687603729661525  1.0000
  C   C69       1.0  0.5393344786089712  0.4801568617023904  0.8525236585890494  1.0000
  C   C70       1.0  0.46065976120602403  0.519841475660634  0.1474801131007552  1.0000
  C   C71       1.0  0.6231834833644639  0.4637827549221355  0.8940223621956631  1.0000
  C   C72       1.0  0.3768129461463161  0.5362155824315947  0.10598085177700507  1.0000
  C   C73       1.0  0.659511665005631  0.6075558424759463  0.013273232615070183  1.0000
  C   C74       1.0  0.34048505355476505  0.3924432572593162  0.9867282127823384  1.0000
  C   C75       1.0  0.9198935432145275  0.8300294307342566  0.992094354747017  1.0000
  C   C76       1.0  0.08010478368293408  0.16997577086061005  0.007902021248483505  1.0000
  C   C77       1.0  0.6695898878044558  0.49080062692300425  0.3233356344571589  1.0000
  C   C78       1.0  0.3304088831472426  0.509199999142254  0.6766668908996037  1.0000
  C   C79       1.0  0.6732708362939803  0.5916871865625808  0.34169698115985625  1.0000
  C   C80       1.0  0.32672690751675043  0.4083126762350844  0.6583046788527934  1.0000
  C   C81       1.0  0.5881179123244066  0.6128329077687766  0.3717813105128298  1.0000
  C   C82       1.0  0.4118808605179324  0.38716771850167214  0.6282218655728042  1.0000
  C   C83       1.0  0.4990237206074608  0.5327875912099599  0.3833312815211228  1.0000
  C   C84       1.0  0.5009768099046494  0.4672137983933879  0.6166727909125311  1.0000
  C   C85       1.0  0.5034999324645355  0.43404939917179763  0.3654034902672689  1.0000
  C   C86       1.0  0.49650089655036567  0.565952753839035  0.6346020672354482  1.0000
  C   C87       1.0  0.4160017123567101  0.3511948620169889  0.38090049618445926  1.0000
  C   C88       1.0  0.5839998452963613  0.6488072908539594  0.6191044415933005  1.0000
  C   C89       1.0  0.32535267866656875  0.36927111867306195  0.40909587686112286  1.0000
  C   C90       1.0  0.6746468247045669  0.630729507662693  0.5909073302284111  1.0000
  C   C91       1.0  0.3225300323348961  0.4691182753890288  0.423199470802153  1.0000
  C   C92       1.0  0.6774672737779281  0.5308823501352434  0.5768016910890521  1.0000
  C   C93       1.0  0.4068683144652353  0.5480158599286183  0.4118286042667377  1.0000
  C   C94       1.0  0.5931297221763856  0.4519847656609527  0.5881725886283745  1.0000
  C   C95       1.0  0.24280529133063308  0.2860796620345951  0.42431811232023614  1.0000
  C   C96       1.0  0.7571937705613222  0.713921726617386  0.5756832951901315  1.0000
  C   C97       1.0  0.2542563533516216  0.1934714667278499  0.41426505174401024  1.0000
  C   C98       1.0  0.7457443031211497  0.806528395305065  0.5857334786399446  1.0000
  C   C99       1.0  0.3479311199433113  0.1837102720974571  0.3878604157197285  1.0000
  C   C100      1.0  0.652068370193383  0.8162903528019497  0.6121382362677463  1.0000
  N   N1        1.0  0.6808491264307435  0.5248123557169393  0.9723305021840215  1.0000
  N   N2        1.0  0.319148324549097  0.47518674428881275  0.027671624946158588  1.0000
  N   N3        1.0  0.8039622649645253  0.6539528192464701  0.13155812695143954  1.0000
  N   N4        1.0  0.19603474642676832  0.3460470432806985  0.8684428513284315  1.0000
  N   N5        1.0  0.4249580723540589  0.259733007314864  0.3704229036780615  1.0000
  N   N6        1.0  0.5750433366507293  0.7402706706642233  0.6295797674029939  1.0000
  N   N7        1.0  0.5874585593463735  0.4149772957951471  0.3356385384257975  1.0000
  N   N8        1.0  0.4125397833605857  0.5850240940226783  0.6643667424538576  1.0000
  N   N9        1.0  0.06967787390551881  0.826939621595038  0.07864273945299513  1.0000
  N   N10       1.0  0.93032263701582  0.17306557937496345  0.9213511266387681  1.0000
  N   N11       1.0  0.9164142052590731  0.7451611566358167  0.9303687555483645  1.0000
  N   N12       1.0  0.08358368084362405  0.2548409938567033  0.06962951992117886  1.0000
  O   O1        1.0  0.9047010600742167  0.5334105297381627  0.916228544124081  1.0000
  O   O2        1.0  0.09530196740522699  0.46659543770791595  0.08377601025262744  1.0000
  O   O3        1.0  0.8498144749023736  0.36166571679452636  0.9439167565227746  1.0000
  O   O4        1.0  0.15018078758790665  0.638337196844283  0.05608288000018995  1.0000
  O   O5        1.0  0.018307897190702086  0.42380483756933524  0.8718934024982371  1.0000
  O   O6        1.0  0.9816926427745826  0.5761965530599795  0.12811392357975385  1.0000
  O   O7        1.0  0.7175491915463538  0.3906874989932376  0.12008838447010811  1.0000
  O   O8        1.0  0.28244675436947375  0.6093039691201767  0.8799054612658848  1.0000
  O   O9        1.0  0.7150001318616716  0.2883470430532853  0.23532546218957143  1.0000
  O   O10       1.0  0.28499656658616596  0.7116482410062944  0.7646725242435152  1.0000
  O   O11       1.0  0.5480651947964928  0.8319311830245084  0.8438888457952768  1.0000
  O   O12       1.0  0.4519315062263942  0.16806028782170296  0.15611349041989087  1.0000
  O   O13       1.0  0.49917224200776633  0.9229071383843603  0.7625622302511983  1.0000
  O   O14       1.0  0.5008278313782739  0.07708738485135308  0.23744158414991282  1.0000
  O   O15       1.0  0.6989883913808583  0.2800268066179044  0.4381495814672148  1.0000
  O   O16       1.0  0.30101867865284493  0.7199707662559475  0.5618461052063848  1.0000
  O   O17       1.0  0.5567248544419172  0.18922176538630714  0.49302217790540925  1.0000
  O   O18       1.0  0.4432842736549885  0.8107773344331193  0.5069765409141451  1.0000
  O   O19       1.0  0.8675728377776648  0.3280945809881858  0.14873268584585728  1.0000
  O   O20       1.0  0.1324260522565765  0.6719007032672977  0.8512653935989574  1.0000
