data_image0
_chemical_formula_structural       Cu4H8C28N4O16
_chemical_formula_sum              "Cu4 H8 C28 N4 O16"
_cell_length_a       8.34003630485351
_cell_length_b       8.34002439739263
_cell_length_c       10.510020732421015
_cell_angle_alpha    89.88089631027843
_cell_angle_beta     89.88023260063397
_cell_angle_gamma    60.26737163101291

_space_group_name_H-M_alt    "P 1"
_space_group_IT_number       1

loop_
  _space_group_symop_operation_xyz
  'x, y, z'

loop_
  _atom_site_type_symbol
  _atom_site_label
  _atom_site_symmetry_multiplicity
  _atom_site_fract_x
  _atom_site_fract_y
  _atom_site_fract_z
  _atom_site_occupancy
  Cu  Cu1       1.0  0.5591096652952458  0.8129271813846657  0.8333121810714414  1.0000
  Cu  Cu2       1.0  0.18708179532924166  0.4409025378292597  0.6666965470733146  1.0000
  Cu  Cu3       1.0  0.4408912579656318  0.18707253559763604  0.16668891370680675  1.0000
  Cu  Cu4       1.0  0.8129198123281757  0.5590957983289043  0.33330454799489206  1.0000
  H   H1        1.0  0.2526251998144318  0.6708952162276632  0.17915720164422305  1.0000
  H   H2        1.0  0.32909189003395767  0.7473937962900196  0.3208440875929952  1.0000
  H   H3        1.0  0.7473752110640108  0.32910312289332216  0.8208419909830198  1.0000
  H   H4        1.0  0.6709035554629424  0.25260730718525076  0.6791541545089002  1.0000
  H   H5        1.0  0.9667885102250301  0.7267378074016335  0.062048744399923784  1.0000
  H   H6        1.0  0.2732491395793275  0.0332319232669605  0.4379533319456711  1.0000
  H   H7        1.0  0.03321053186031263  0.2732632933676271  0.9379504476473953  1.0000
  H   H8        1.0  0.7267493888732874  0.9667677984044899  0.5620449094261416  1.0000
  C   C1        1.0  0.36706475894021656  0.7310210590965341  0.014361099959330697  1.0000
  C   C2        1.0  0.268975405841772  0.6329516987347645  0.48564659766953594  1.0000
  C   C3        1.0  0.6329342818948334  0.2689800404362329  0.9856390435634875  1.0000
  C   C4        1.0  0.7310231213605434  0.36704802170019946  0.5143525951777688  1.0000
  C   C5        1.0  0.2313464284373268  0.7139786691144963  0.08009297299722817  1.0000
  C   C6        1.0  0.2860088297892816  0.7686741492034272  0.41991051344251656  1.0000
  C   C7        1.0  0.7686539811908163  0.2860196687700024  0.9199071711055067  1.0000
  C   C8        1.0  0.7139878137369067  0.23132695254551547  0.5800886796248503  1.0000
  C   C9        1.0  0.07672623547849611  0.7388114757814107  0.014371924726077597  1.0000
  C   C10       1.0  0.26118239026168777  0.9232915600913004  0.48563047997836134  1.0000
  C   C11       1.0  0.9232746902829804  0.26118824367387106  0.9856272671011863  1.0000
  C   C12       1.0  0.738815452544074  0.07670954116780142  0.514368712578978  1.0000
  C   C13       1.0  0.06949208563455778  0.7646520810893234  0.8824037732079829  1.0000
  C   C14       1.0  0.23535079837752465  0.930527508188291  0.6175993660806967  1.0000
  C   C15       1.0  0.930508840126919  0.23534763836595124  0.11759541861928106  1.0000
  C   C16       1.0  0.7646501286342513  0.06947221250347721  0.38239887427107516  1.0000
  C   C17       1.0  0.21177104170914857  0.7779881380556264  0.820650686414595  1.0000
  C   C18       1.0  0.2220204789519046  0.7882469960449968  0.6793528113882557  1.0000
  C   C19       1.0  0.7882298840523349  0.22201158139964858  0.17934850541266908  1.0000
  C   C20       1.0  0.777980446809572  0.21175272341028514  0.3206463804390083  1.0000
  C   C21       1.0  0.5478993330184139  0.6896841056826019  0.07482485101315459  1.0000
  C   C22       1.0  0.31031511629409897  0.4521041716768365  0.42518373523660097  1.0000
  C   C23       1.0  0.4521003909628832  0.31031561178954087  0.9251762442751071  1.0000
  C   C24       1.0  0.6896840953047629  0.5478941679339896  0.5748154579006621  1.0000
  C   C25       1.0  0.9173506651561072  0.7524930208039675  0.8157760758146393  1.0000
  C   C26       1.0  0.24751834114351823  0.08266325742916077  0.6842326340092625  1.0000
  C   C27       1.0  0.08264888931167748  0.24750945782660946  0.1842250183836853  1.0000
  C   C28       1.0  0.7524844670437857  0.9173350794756487  0.3157675090734314  1.0000
  N   N1        1.0  0.3526685620225011  0.7704876247581609  0.8888992975167723  1.0000
  N   N2        1.0  0.22951611187973947  0.6473487571996586  0.6111073281910178  1.0000
  N   N3        1.0  0.6473311632090955  0.22951209395047556  0.11110084629600438  1.0000
  N   N4        1.0  0.7704842989987031  0.3526495819213266  0.38889186443622487  1.0000
  O   O1        1.0  0.6629423038416958  0.7064200942865141  0.0017317821412134995  1.0000
  O   O2        1.0  0.29358010479912616  0.337070526370141  0.49827825200161147  1.0000
  O   O3        1.0  0.33705879018298657  0.29357686277384687  0.9982683622514795  1.0000
  O   O4        1.0  0.706418422403189  0.6629291940648229  0.5017209408456934  1.0000
  O   O5        1.0  0.5781052891206928  0.6342593510416207  0.18748609386425127  1.0000
  O   O6        1.0  0.36573774086480887  0.4218946680686741  0.3125192477639017  1.0000
  O   O7        1.0  0.42189512050744327  0.3657389868428708  0.8125140502384837  1.0000
  O   O8        1.0  0.6342626687633341  0.5781036698158247  0.6874808963388331  1.0000
  O   O9        1.0  0.9578352267206826  0.6031737496392965  0.7592327520781977  1.0000
  O   O10       1.0  0.3968449989850669  0.042168487075976195  0.7407646224728949  1.0000
  O   O11       1.0  0.042162447821873214  0.39683011401472607  0.24076548791370556  1.0000
  O   O12       1.0  0.6031584948490902  0.9578284702411819  0.2592345694242723  1.0000
  O   O13       1.0  0.7535908660442558  0.8850733684365011  0.8302666323988742  1.0000
  O   O14       1.0  0.11493781593842559  0.24642325063140896  0.6697519993416634  1.0000
  O   O15       1.0  0.2464105683487503  0.1149277251706309  0.16973731600587166  1.0000
  O   O16       1.0  0.885063787968093  0.7535750818172887  0.33025195015301984  1.0000
