data_image0
_chemical_formula_structural       ZnH30C32S2N20
_chemical_formula_sum              "Zn1 H30 C32 S2 N20"
_cell_length_a       8.454174869902408
_cell_length_b       9.409246271556695
_cell_length_c       11.62369530404936
_cell_angle_alpha    81.24629953579364
_cell_angle_beta     84.99736059350865
_cell_angle_gamma    89.54311850836068

_space_group_name_H-M_alt    "P 1"
_space_group_IT_number       1

loop_
  _space_group_symop_operation_xyz
  'x, y, z'

loop_
  _atom_site_type_symbol
  _atom_site_label
  _atom_site_symmetry_multiplicity
  _atom_site_fract_x
  _atom_site_fract_y
  _atom_site_fract_z
  _atom_site_occupancy
  Zn  Zn1       1.0  0.9999988679992529  0.999998842313317  5.437083530259711e-07  1.0000
  H   H1        1.0  0.0929705601141819  0.9628406757415746  0.2869849686989384  1.0000
  H   H2        1.0  0.9070315422754335  0.03715957827461121  0.7130136017161494  1.0000
  H   H3        1.0  0.37865403780389073  0.8715781384870023  0.9922052685330914  1.0000
  H   H4        1.0  0.621348036256663  0.12841891323935783  0.007795446883171992  1.0000
  H   H5        1.0  0.31527980775091907  0.906175234537855  0.434443380475692  1.0000
  H   H6        1.0  0.6847234880631845  0.09382719308911898  0.5655565510314065  1.0000
  H   H7        1.0  0.49569030491571914  0.8373640521902032  0.3797101980199714  1.0000
  H   H8        1.0  0.5043117867485521  0.16263513831169968  0.6202893737463173  1.0000
  H   H9        1.0  0.4099745622676707  0.7177722119226927  0.6009223407772029  1.0000
  H   H10       1.0  0.5900287120957586  0.2822280886757226  0.3990795934322906  1.0000
  H   H11       1.0  0.19120854782493527  0.30164557848070217  0.6176585074490435  1.0000
  H   H12       1.0  0.8087876276662485  0.6983568398332666  0.38234099949747263  1.0000
  H   H13       1.0  0.2084141658496961  0.6042431330575154  0.2997158923219488  1.0000
  H   H14       1.0  0.7915879426027673  0.39575929497512147  0.7002841116004535  1.0000
  H   H15       1.0  0.0737818550731504  0.23832411732634276  0.45757443717973717  1.0000
  H   H16       1.0  0.926220250347889  0.761677223698065  0.5424248499890113  1.0000
  H   H17       1.0  0.010413178047358  0.3780964562131571  0.3505923934707128  1.0000
  H   H18       1.0  0.9895889204953011  0.6219038095500052  0.6494070359968023  1.0000
  H   H19       1.0  0.4530823368161307  0.40912379133609283  0.7553713729196193  1.0000
  H   H20       1.0  0.546917363336654  0.5908721624463952  0.2446279115211709  1.0000
  H   H21       1.0  0.36311329514457213  0.5723463584965527  0.7850188122774927  1.0000
  H   H22       1.0  0.6368875877073776  0.42765070538244737  0.21498283460650217  1.0000
  H   H23       1.0  0.889792155573929  0.34597308355011336  0.9738361545195037  1.0000
  H   H24       1.0  0.1102075360694101  0.6540239924815197  0.026166423832222598  1.0000
  H   H25       1.0  0.3251877742563281  0.17944980632798743  0.8517292195255453  1.0000
  H   H26       1.0  0.6748107415662405  0.8205472348683855  0.1482708540842098  1.0000
  H   H27       1.0  0.5373134845443491  0.13475169872591408  0.21945715542549496  1.0000
  H   H28       1.0  0.462689793666037  0.8652485901255246  0.7805439197315709  1.0000
  H   H29       1.0  0.13260961681764633  0.38222141069166327  0.14442672311351154  1.0000
  H   H30       1.0  0.8673924886033931  0.6177799303327445  0.8555725640552371  1.0000
  C   C1        1.0  0.1882182143019052  0.9280921858516817  0.22873323196971296  1.0000
  C   C2        1.0  0.8117827015415956  0.0719069698149681  0.7712638350546046  1.0000
  C   C3        1.0  0.33567132657503157  0.8802700350473882  0.08151657216142644  1.0000
  C   C4        1.0  0.6643307582108592  0.11972808019325498  0.9184831419036359  1.0000
  C   C5        1.0  0.3659158033428014  0.8247101938656201  0.383599649619491  1.0000
  C   C6        1.0  0.6340874787145411  0.17529008323884906  0.6164005664851475  1.0000
  C   C7        1.0  0.3147648669389937  0.6763370017886458  0.4435548086240859  1.0000
  C   C8        1.0  0.6852360503048587  0.3236654383966239  0.5564461267660479  1.0000
  C   C9        1.0  0.3474054426163208  0.6403266816555302  0.5604109354055284  1.0000
  C   C10       1.0  0.6525966520793747  0.359673595854602  0.43958935311441405  1.0000
  C   C11       1.0  0.3022446233082477  0.5073213302777545  0.6242000761144342  1.0000
  C   C12       1.0  0.6977539093025059  0.49267894844935956  0.37580042965143445  1.0000
  C   C13       1.0  0.22497098341185054  0.40768651532435035  0.569965060279394  1.0000
  C   C14       1.0  0.7750263656842196  0.5923137520614501  0.4300346588493512  1.0000
  C   C15       1.0  0.1926498393831793  0.4418264787994841  0.45330955656618255  1.0000
  C   C16       1.0  0.8073498943459826  0.5581759500444788  0.5466905921868348  1.0000
  C   C17       1.0  0.23632493359724552  0.5772695236112922  0.39043889635250667  1.0000
  C   C18       1.0  0.7636771710082543  0.4227329161683214  0.6095619666223231  1.0000
  C   C19       1.0  0.11356120944543593  0.3322716874556804  0.3940199741482005  1.0000
  C   C20       1.0  0.886440902853984  0.667730728829987  0.6059791707217743  1.0000
  C   C21       1.0  0.3437129232438068  0.4729719520760651  0.7494732178283531  1.0000
  C   C22       1.0  0.6562903733858364  0.5270293767957168  0.2505251378726643  1.0000
  C   C23       1.0  0.0056573954594370006  0.3370507282925672  0.9275482619185953  1.0000
  C   C24       1.0  0.9943423060937139  0.6629485100085403  0.07245489088801803  1.0000
  C   C25       1.0  0.22431328643160953  0.24773357082751352  0.868027794850143  1.0000
  C   C26       1.0  0.775685215634198  0.7522613198463545  0.13197256335715937  1.0000
  C   C27       1.0  0.8303256807322371  0.05146730823854989  0.23912496503766087  1.0000
  C   C28       1.0  0.16966093069819982  0.9485298309902174  0.7608827051445747  1.0000
  C   C29       1.0  0.4270373941985355  0.19403315811033647  0.2275009829135542  1.0000
  C   C30       1.0  0.5729647073755474  0.8059681946610481  0.7724991633076146  1.0000
  C   C31       1.0  0.22644026503583356  0.319927599485581  0.18600855923439508  1.0000
  C   C32       1.0  0.7735630415036142  0.6800758916556758  0.8139903709215022  1.0000
  S   S1        1.0  0.7914845884779852  0.9964443853602417  0.3775598735699719  1.0000
  S   S2        1.0  0.2085009367813484  0.003561215400559102  0.6224364220082779  1.0000
  N   N1        1.0  0.8598437005783384  0.08752862741079777  0.13675546649215423  1.0000
  N   N2        1.0  0.1401465620018882  0.9124726236944481  0.8632376724102431  1.0000
  N   N3        1.0  0.19460544195498394  0.9415620131131344  0.112283443555505  1.0000
  N   N4        1.0  0.8053954631631727  0.05843607903922529  0.8877146248200136  1.0000
  N   N5        1.0  0.3202463761936514  0.8617114070508688  0.2653912707708559  1.0000
  N   N6        1.0  0.6797533545040935  0.138289934784865  0.734608161228508  1.0000
  N   N7        1.0  0.41597937575638616  0.8301748731955456  0.17244690928239956  1.0000
  N   N8        1.0  0.5840227120609357  0.169824329053327  0.8275535215363167  1.0000
  N   N9        1.0  0.22220996177456703  0.2830919523081191  0.30346965564821465  1.0000
  N   N10       1.0  0.777793327161156  0.7169094000576025  0.6965304181576502  1.0000
  N   N11       1.0  0.08828063954008061  0.2115384485114689  0.9323927443063912  1.0000
  N   N12       1.0  0.9117202433118693  0.7884586153675244  0.06760890257760375  1.0000
  N   N13       1.0  0.0826560720482163  0.4484347871771065  0.8632681610534835  1.0000
  N   N14       1.0  0.9173424292020584  0.5515612022519604  0.13673377295990014  1.0000
  N   N15       1.0  0.22228908478967213  0.3888988743220735  0.8264256584913456  1.0000
  N   N16       1.0  0.7777094310328964  0.6110981668742993  0.17357441511840938  1.0000
  N   N17       1.0  0.35089015005612373  0.20178174748600236  0.3319448407792863  1.0000
  N   N18       1.0  0.6491119515179523  0.7982196052853894  0.6680553054418825  1.0000
  N   N19       1.0  0.35546333036175076  0.2650057229465545  0.13476783554806107  1.0000
  N   N20       1.0  0.6445387643339445  0.7349945545635705  0.8652324529718814  1.0000
