data_image0
_chemical_formula_structural       Ba4H20C24O26
_chemical_formula_sum              "Ba4 H20 C24 O26"
_cell_length_a       9.123424038132441
_cell_length_b       9.558952404406083
_cell_length_c       10.107751597738321
_cell_angle_alpha    103.95396836376402
_cell_angle_beta     90.00622074692164
_cell_angle_gamma    118.51553366227576

_space_group_name_H-M_alt    "P 1"
_space_group_IT_number       1

loop_
  _space_group_symop_operation_xyz
  'x, y, z'

loop_
  _atom_site_type_symbol
  _atom_site_label
  _atom_site_symmetry_multiplicity
  _atom_site_fract_x
  _atom_site_fract_y
  _atom_site_fract_z
  _atom_site_occupancy
  Ba  Ba1       1.0  0.4234767666610751  0.22551868950426268  0.4992264617750096  1.0000
  Ba  Ba2       1.0  0.1980928242443413  0.7745077078567917  0.0008310555045128586  1.0000
  Ba  Ba3       1.0  0.5765232757608845  0.7744811175101276  0.5007745207694045  1.0000
  Ba  Ba4       1.0  0.8019078384341115  0.22549333953252668  0.9991692224262254  1.0000
  H   H1        1.0  0.8985127235880414  0.8581291162825265  0.8669239466654735  1.0000
  H   H2        1.0  0.04024927129089662  0.1417778709189861  0.6331271784528598  1.0000
  H   H3        1.0  0.10148622587271212  0.1418706973225312  0.13307406931400587  1.0000
  H   H4        1.0  0.959752010578683  0.858224414596684  0.366873383689388  1.0000
  H   H5        1.0  0.4270374683934648  0.917222603553405  0.272298321333544  1.0000
  H   H6        1.0  0.5099266470873759  0.0829808729858996  0.2278163067699738  1.0000
  H   H7        1.0  0.5729625761591991  0.08277720795813077  0.7277006835604996  1.0000
  H   H8        1.0  0.49007401452571764  0.9170201721548423  0.77218495998595  1.0000
  H   H9        1.0  0.22994613588419102  0.5803816566012117  0.47211145852947595  1.0000
  H   H10       1.0  0.649260824358393  0.41935214975963936  0.027765898451292553  1.0000
  H   H11       1.0  0.7700521922547239  0.419616914380356  0.5278882508888645  1.0000
  H   H12       1.0  0.35074031528618127  0.580647659658375  0.9722340953573085  1.0000
  H   H13       1.0  0.928414878395948  0.621113884752596  0.40696772177187784  1.0000
  H   H14       1.0  0.30716511429717747  0.37898203159938504  0.09313489386247656  1.0000
  H   H15       1.0  0.0715829749075425  0.37888592869741433  0.5930302941182292  1.0000
  H   H16       1.0  0.6928349291901414  0.6210177776635816  0.9068650998567525  1.0000
  H   H17       1.0  0.12288793645592488  0.6703341883409948  0.6766008841385944  1.0000
  H   H18       1.0  0.4523251863573206  0.3296450115898394  0.8235231757787675  1.0000
  H   H19       1.0  0.877111010874124  0.32966562076692435  0.3233991094912484  1.0000
  H   H20       1.0  0.5476765724783945  0.6703560359545192  0.17647710224134988  1.0000
  C   C1        1.0  0.18167451201720308  0.5902686428890647  0.2665415303571238  1.0000
  C   C2        1.0  0.5914653927155841  0.4096964472395328  0.2334203126625668  1.0000
  C   C3        1.0  0.8183244353128458  0.40973116621885447  0.733458463272726  1.0000
  C   C4        1.0  0.4085346497063753  0.5903033597748644  0.7665806698818405  1.0000
  C   C5        1.0  0.1684386338378517  0.8407251381287963  0.48335541911867375  1.0000
  C   C6        1.0  0.3274128917225383  0.1592860991457741  0.01662814198862611  1.0000
  C   C7        1.0  0.8315614096494599  0.15927467113417038  0.5166445746005552  1.0000
  C   C8        1.0  0.6725866737332923  0.8407149458399205  0.9833731246779114  1.0000
  C   C9        1.0  0.9266849848457783  0.7365819120330457  0.6840102635579729  1.0000
  C   C10       1.0  0.1899133399205937  0.26349520809308297  0.8160322458518299  1.0000
  C   C11       1.0  0.07331334435849617  0.26341666119709123  0.31598845703518225  1.0000
  C   C12       1.0  0.810086703566718  0.7365046011698837  0.1839677478673921  1.0000
  C   C13       1.0  0.12064159748322822  0.5491066779360024  0.4013130526196919  1.0000
  C   C14       1.0  0.5714283191407432  0.45080233080697235  0.09865172679035085  1.0000
  C   C15       1.0  0.8793573509121729  0.45089313342048604  0.5986859521849726  1.0000
  C   C16       1.0  0.42857343969496503  0.5491987167373864  0.9013485512297595  1.0000
  C   C17       1.0  0.04563581639619228  0.658603565542691  0.47035060770287646  1.0000
  C   C18       1.0  0.3868277483055067  0.3414393901608932  0.02971231288491794  1.0000
  C   C19       1.0  0.9543642270911193  0.34139624372026833  0.5296493860163454  1.0000
  C   C20       1.0  0.6131722951818049  0.6585604191020734  0.9702876808343109  1.0000
  C   C21       1.0  0.0057445650840720125  0.6346380768598009  0.6141474908368568  1.0000
  C   C22       1.0  0.37095246997513703  0.36542958355305893  0.8859149092848573  1.0000
  C   C23       1.0  0.9942543822459768  0.36536173224811813  0.3858525027929931  1.0000
  C   C24       1.0  0.6290475724468224  0.6345702234613383  0.11408607325955  1.0000
  O   O1        1.0  0.07485278257997421  0.5323091393620417  0.16028450625015728  1.0000
  O   O2        1.0  0.5428620400572298  0.4677811065125325  0.3397805513139291  1.0000
  O   O3        1.0  0.9251489751903892  0.46769190593375504  0.8397167605951384  1.0000
  O   O4        1.0  0.4571373842389477  0.5322174646240824  0.6602191581937904  1.0000
  O   O5        1.0  0.3390225853320247  0.6890822963977854  0.27196546322753096  1.0000
  O   O6        1.0  0.6498973176036316  0.310841686314518  0.22791937561535047  1.0000
  O   O7        1.0  0.6609780773464209  0.3109187509915258  0.7280348147032075  1.0000
  O   O8        1.0  0.35010272694903233  0.689158125197018  0.7720796292786931  1.0000
  O   O9        1.0  0.3162863491261589  0.9055586000716784  0.5434663765437052  1.0000
  O   O10       1.0  0.41039643440658574  0.0945218729292066  0.9564182709761017  1.0000
  O   O11       1.0  0.6837125971385306  0.09444120678767119  0.4565346059113225  1.0000
  O   O12       1.0  0.5896047041726362  0.9054779342402381  0.04358271165768459  1.0000
  O   O13       1.0  0.11722978143632891  0.923871430823574  0.43296156442549744  1.0000
  O   O14       1.0  0.1931143063738219  0.07610845763055352  0.06707495182437383  1.0000
  O   O15       1.0  0.8827713582082521  0.0761283785944329  0.5670384293831108  1.0000
  O   O16       1.0  0.8068863541739192  0.923892585261619  0.9329273037567279  1.0000
  O   O17       1.0  0.9772098585712286  0.8061436082693306  0.8169724718373391  1.0000
  O   O18       1.0  0.1708366058880202  0.1936145396557691  0.6831269830623088  1.0000
  O   O19       1.0  0.022788613923395894  0.19385744330703147  0.18302582826427746  1.0000
  O   O20       1.0  0.8291640567904253  0.8063865077335419  0.3168732948684225  1.0000
  O   O21       1.0  0.8175907463541848  0.7454217600766241  0.6197549329761219  1.0000
  O   O22       1.0  0.07199226537346702  0.25484014701799396  0.8802129898399971  1.0000
  O   O23       1.0  0.18240586856704516  0.25457557712068996  0.3802425144909593  1.0000
  O   O24       1.0  0.9280077770484922  0.7451596599963963  0.11978799270441709  1.0000
  O   O25       1.0  0.40382607170140256  5.480622957779974e-05  0.2500043259359118  1.0000
  O   O26       1.0  0.5961728756286462  0.999945002878334  0.749995667693938  1.0000
