data_image0
_chemical_formula_structural       Cu2H52C80N8O16
_chemical_formula_sum              "Cu2 H52 C80 N8 O16"
_cell_length_a       8.835487184947297
_cell_length_b       14.395847087455989
_cell_length_c       16.28260742200523
_cell_angle_alpha    96.91766116671063
_cell_angle_beta     93.47415349717163
_cell_angle_gamma    99.62213251848385

_space_group_name_H-M_alt    "P 1"
_space_group_IT_number       1

loop_
  _space_group_symop_operation_xyz
  'x, y, z'

loop_
  _atom_site_type_symbol
  _atom_site_label
  _atom_site_symmetry_multiplicity
  _atom_site_fract_x
  _atom_site_fract_y
  _atom_site_fract_z
  _atom_site_occupancy
  Cu  Cu1       1.0  0.8593751410457527  0.4226086404148218  0.03968747049468388  1.0000
  Cu  Cu2       1.0  0.14062325892064118  0.5774608666353915  0.9602496674405359  1.0000
  H   H1        1.0  0.8249864231674877  0.0541771349890539  0.7322341959975348  1.0000
  H   H2        1.0  0.17499963668895202  0.9458131142652138  0.2677556771715501  1.0000
  H   H3        1.0  0.6393988373510594  0.031476322067561596  0.7722163063693658  1.0000
  H   H4        1.0  0.3605838695209656  0.9685178339815438  0.227792973293937  1.0000
  H   H5        1.0  0.3814691053409334  0.4711741794327012  0.05624749274360141  1.0000
  H   H6        1.0  0.6186328255770022  0.5288249209971454  0.9437556523628815  1.0000
  H   H7        1.0  0.9149031138032129  0.6555018490449881  0.6356043260720484  1.0000
  H   H8        1.0  0.08509238048924321  0.34450592557735155  0.3644026900057896  1.0000
  H   H9        1.0  0.35225310820052164  0.2722559055105265  0.11303819318123942  1.0000
  H   H10       1.0  0.6476969716932643  0.7277265038663999  0.8869827850209405  1.0000
  H   H11       1.0  0.9053546499109332  0.7576161872145024  0.3749028472549583  1.0000
  H   H12       1.0  0.09465459130058208  0.24238380300968737  0.6251055034212882  1.0000
  H   H13       1.0  0.727219572381955  0.7707615092096207  0.32308939362859956  1.0000
  H   H14       1.0  0.2727981978105376  0.22924071204823093  0.676915805586205  1.0000
  H   H15       1.0  0.004917435082717179  0.46686356381486854  0.2141571291505429  1.0000
  H   H16       1.0  0.9951279689852724  0.5331402257495625  0.7858472765212099  1.0000
  H   H17       1.0  0.9804863082342622  0.5829592548562134  0.3397943062640395  1.0000
  H   H18       1.0  0.019513774134857418  0.41703227627395734  0.6602072138378645  1.0000
  H   H19       1.0  0.7364553363490671  0.40063483513183223  0.8679725195802845  1.0000
  H   H20       1.0  0.2635758531526378  0.599366896270972  0.1320238251877086  1.0000
  H   H21       1.0  0.1860603389535527  0.058169554016132  0.6149123841715892  1.0000
  H   H22       1.0  0.8139323816031806  0.9418240979214831  0.38508793327758184  1.0000
  H   H23       1.0  0.6564995391517101  0.6966762052707411  0.1890434114990782  1.0000
  H   H24       1.0  0.3435417353790271  0.3033335632619015  0.8109437720116548  1.0000
  H   H25       1.0  0.24359413317851863  0.6142490094041121  0.404341050628318  1.0000
  H   H26       1.0  0.756416423629318  0.38575200218689787  0.595650265465416  1.0000
  H   H27       1.0  0.2173405790929692  0.12362176268823082  0.3640463602757649  1.0000
  H   H28       1.0  0.7826704691296271  0.8763683070881358  0.6359602393857956  1.0000
  H   H29       1.0  0.7730653591522626  0.6207222327998352  0.7594322941338733  1.0000
  H   H30       1.0  0.22693110071072914  0.379289314010677  0.24056292110585534  1.0000
  H   H31       1.0  0.6956918823571243  0.578549344967655  0.07048783085961219  1.0000
  H   H32       1.0  0.30438297715333823  0.42147109283037315  0.9295084381239748  1.0000
  H   H33       1.0  0.09806585099345709  0.5695628709878023  0.5245311013176704  1.0000
  H   H34       1.0  0.9019519101848273  0.4304395359787919  0.4754636780748527  1.0000
  H   H35       1.0  0.8839671245162748  0.18312451644386843  0.47573778084968416  1.0000
  H   H36       1.0  0.11602703509094434  0.8168826300772097  0.5242642043046716  1.0000
  H   H37       1.0  0.6659711643388846  0.2718238135838433  0.749545714998206  1.0000
  H   H38       1.0  0.3340125830660909  0.7281622866339889  0.2504368306788933  1.0000
  H   H39       1.0  0.2401819588063745  0.5590448297941889  0.6591807486409637  1.0000
  H   H40       1.0  0.7598148505521678  0.4409639771190115  0.34080861992364225  1.0000
  H   H41       1.0  0.48660405408853086  0.5786359537652502  0.7453557568536979  1.0000
  H   H42       1.0  0.5134134672619127  0.42138195034042514  0.2546476353028737  1.0000
  H   H43       1.0  0.9472922503818991  0.23056048079035923  0.009139016967971295  1.0000
  H   H44       1.0  0.05270501312849524  0.7694331464596686  0.9908638958938525  1.0000
  H   H45       1.0  0.7596713636582066  0.19899300124988886  0.3369163305075915  1.0000
  H   H46       1.0  0.24032386564558553  0.8010054886175338  0.6630926318502761  1.0000
  H   H47       1.0  0.0588534606276028  0.07421564135515271  0.4777242790508254  1.0000
  H   H48       1.0  0.9411406716977879  0.9257667669681029  0.522268587896626  1.0000
  H   H49       1.0  0.8857699865896365  0.09227632033612573  0.8959046065096103  1.0000
  H   H50       1.0  0.11419456278440529  0.9077176395141537  0.10411084063257903  1.0000
  H   H51       1.0  0.47599886832313126  0.16860500452121846  0.3120108614995801  1.0000
  H   H52       1.0  0.5240016439000713  0.8313921422442336  0.6879950327063469  1.0000
  C   C1        1.0  0.5478375586486592  0.6581547819091752  0.399751062090985  1.0000
  C   C2        1.0  0.45217060385207475  0.34185405067740504  0.6002398915594754  1.0000
  C   C3        1.0  0.7224148082524593  0.08447125865093598  0.7473234366680829  1.0000
  C   C4        1.0  0.2775768495009175  0.9155309079277674  0.2526778716769655  1.0000
  C   C5        1.0  0.15721854297834167  0.39197107586767993  0.0846071812574962  1.0000
  C   C6        1.0  0.842746880566132  0.6080388228355602  0.9153923973422878  1.0000
  C   C7        1.0  0.5473596447601495  0.6198716969620719  0.5455799285598744  1.0000
  C   C8        1.0  0.4526390844586814  0.3801398812008188  0.4544141326632882  1.0000
  C   C9        1.0  0.32637615774645923  0.4055500547347394  0.07754340117960373  1.0000
  C   C10       1.0  0.6736216112043181  0.5944576419995473  0.9224685901888919  1.0000
  C   C11       1.0  0.8149479400134965  0.6486275454014887  0.27423095923471413  1.0000
  C   C12       1.0  0.18507797028053113  0.3513754526349898  0.7257727442002705  1.0000
  C   C13       1.0  0.7893890843957152  0.6381521393083601  0.6301964403275947  1.0000
  C   C14       1.0  0.210605942249515  0.36184579275420964  0.3698038494448924  1.0000
  C   C15       1.0  0.5073562864908823  0.1227141016898017  0.5143115008740153  1.0000
  C   C16       1.0  0.49263631600779695  0.8772872605831953  0.4856952682147054  1.0000
  C   C17       1.0  0.40801644532272263  0.3374784330593529  0.09142126295557772  1.0000
  C   C18       1.0  0.591983993965421  0.6625102052369058  0.9085829915013051  1.0000
  C   C19       1.0  0.7102978271999517  0.6399148793681135  0.5540993205049034  1.0000
  C   C20       1.0  0.28968013405983584  0.3600787435637259  0.4458986911603731  1.0000
  C   C21       1.0  0.7931892417022723  0.7198797617672597  0.3459664358836037  1.0000
  C   C22       1.0  0.20682289492113176  0.280106271545499  0.6540274276767946  1.0000
  C   C23       1.0  0.670289722365176  0.13980410007597752  0.5270583425227643  1.0000
  C   C24       1.0  0.3296981456564722  0.8601964996748491  0.4729500301130899  1.0000
  C   C25       1.0  0.46446170912827256  0.6261863407542236  0.4697415491265957  1.0000
  C   C26       1.0  0.5355300320714917  0.37380382302034576  0.5302546329619133  1.0000
  C   C27       1.0  0.4869319727448058  0.08987545984938812  0.6613846324212318  1.0000
  C   C28       1.0  0.5130638910989944  0.91010886696953  0.3386208037289009  1.0000
  C   C29       1.0  0.7961362882669931  0.6651254540485212  0.4831596653215442  1.0000
  C   C30       1.0  0.2038560690077418  0.33487122181152523  0.5168305626039782  1.0000
  C   C31       1.0  0.9306016848191233  0.5199988244344668  0.21185959491239  1.0000
  C   C32       1.0  0.06940250110511671  0.4799872630056115  0.7881291137451428  1.0000
  C   C33       1.0  0.9153046270991538  0.5837034097196819  0.2809212209942729  1.0000
  C   C34       1.0  0.08468460747454287  0.41628187242890385  0.7190687679084249  1.0000
  C   C35       1.0  0.7679421731766993  0.33112290783263637  0.8712588106843172  1.0000
  C   C36       1.0  0.23205039364981414  0.668874183819696  0.12874805792596788  1.0000
  C   C37       1.0  0.255173114510967  0.07836553312375119  0.5645967846242854  1.0000
  C   C38       1.0  0.7448192554897091  0.9216308805592562  0.43540815363856217  1.0000
  C   C39       1.0  0.7359037394067302  0.6475199903636905  0.197166674508658  1.0000
  C   C40       1.0  0.2641251471879684  0.3524773953699025  0.8028333755203507  1.0000
  C   C41       1.0  0.30461509391215463  0.6071070829428893  0.46280899626197686  1.0000
  C   C42       1.0  0.695377337888381  0.39289806861422244  0.5371847102047482  1.0000
  C   C43       1.0  0.27228790137932185  0.11514554976351833  0.4239072699408979  1.0000
  C   C44       1.0  0.7277160505498087  0.884855914651162  0.5760967937186194  1.0000
  C   C45       1.0  0.4653364162111586  0.5952923798108145  0.61509028982411  1.0000
  C   C46       1.0  0.5346643519865069  0.4047142374182826  0.38490323827951306  1.0000
  C   C47       1.0  0.5776765869742704  0.3493672968888717  0.0856728901619732  1.0000
  C   C48       1.0  0.42235186773898187  0.650644809698072  0.9143393586601435  1.0000
  C   C49       1.0  0.7089956088748437  0.6165622380621159  0.6993474399117903  1.0000
  C   C50       1.0  0.29098551340938883  0.3834469945816253  0.3006537759083514  1.0000
  C   C51       1.0  0.43547806783737286  0.1326970995498371  0.43545537517058364  1.0000
  C   C52       1.0  0.5645176211599364  0.8673113967380035  0.5645511195317994  1.0000
  C   C53       1.0  0.7684956219326011  0.16976319638250462  0.8130285881259454  1.0000
  C   C54       1.0  0.2314825429526266  0.8302106697136368  0.18696029736612732  1.0000
  C   C55       1.0  0.7573957065660367  0.5821765455851063  0.1309355296229455  1.0000
  C   C56       1.0  0.24265442667650916  0.41782811574192646  0.8690611431944504  1.0000
  C   C57       1.0  0.22342708059408523  0.5814006253231981  0.5307577788925428  1.0000
  C   C58       1.0  0.7765736199709963  0.41859737419627413  0.4692402387692667  1.0000
  C   C59       1.0  0.7458941920822824  0.12690863640900574  0.607016190878639  1.0000
  C   C60       1.0  0.25409184535818946  0.8730770691235107  0.392989105080062  1.0000
  C   C61       1.0  0.7591548227218895  0.1671270200519288  0.46366634025639547  1.0000
  C   C62       1.0  0.24084083378474463  0.8328771400709912  0.5363439315518832  1.0000
  C   C63       1.0  0.7289359768255252  0.258369442078596  0.8052469371019272  1.0000
  C   C64       1.0  0.271061836187748  0.7416220576991963  0.19475573701654272  1.0000
  C   C65       1.0  0.41463138738919275  0.09645279141023619  0.5786630323120008  1.0000
  C   C66       1.0  0.5853611720138545  0.9035444531787107  0.42133525526817545  1.0000
  C   C67       1.0  0.30210795130500395  0.5762017570475989  0.6055394795938868  1.0000
  C   C68       1.0  0.6978876610455063  0.4237983072393521  0.39446108484440157  1.0000
  C   C69       1.0  0.5496548997651943  0.5944731761044579  0.6917333061479951  1.0000
  C   C70       1.0  0.4503274789667415  0.4055282854117834  0.3082651715393752  1.0000
  C   C71       1.0  0.8858683336228594  0.23569763531574486  0.9501176579688676  1.0000
  C   C72       1.0  0.11409044777998642  0.7643084783626293  0.04989292892610558  1.0000
  C   C73       1.0  0.6888021715206706  0.1771064345978033  0.3860961883298017  1.0000
  C   C74       1.0  0.3111885893552611  0.8229005556542717  0.6139136571566155  1.0000
  C   C75       1.0  0.18409246471506444  0.08779710338514947  0.4870738217187666  1.0000
  C   C76       1.0  0.8159074575608686  0.9121979985482654  0.512926894375589  1.0000
  C   C77       1.0  0.8506202051879299  0.1596839078663947  0.8868066596860373  1.0000
  C   C78       1.0  0.1493304387646219  0.8403213744131577  0.11320848764236051  1.0000
  C   C79       1.0  0.5301175861079416  0.16015389302734925  0.37207870803560184  1.0000
  C   C80       1.0  0.46988001744717434  0.8398574837506134  0.6279263500181218  1.0000
  N   N1        1.0  0.7091581154864671  0.6783221972742056  0.4118454529182216  1.0000
  N   N2        1.0  0.2908433255746062  0.3216744729068424  0.5881475141097142  1.0000
  N   N3        1.0  0.8438371571267143  0.3202093241558616  0.9426056559739351  1.0000
  N   N4        1.0  0.1561406849208993  0.6797717381669841  0.0573785568494216  1.0000
  N   N5        1.0  0.8523901207075326  0.519222399277929  0.1382325586901985  1.0000
  N   N6        1.0  0.14764021130062593  0.48078834995060765  0.8617765142126573  1.0000
  N   N7        1.0  0.6492167206586643  0.10264466422900402  0.6693792687195597  1.0000
  N   N8        1.0  0.350765322270533  0.8973389603669518  0.3306219672216813  1.0000
  O   O1        1.0  0.08874947734911844  0.450768074982527  0.04707284633203562  1.0000
  O   O2        1.0  0.9112884475242496  0.549250537332256  0.9528962553773115  1.0000
  O   O3        1.0  0.6308045363910394  0.40001368759413225  0.02907350367108559  1.0000
  O   O4        1.0  0.3691475610742502  0.600009796851275  0.9709186946120384  1.0000
  O   O5        1.0  0.08851332199473212  0.32852820114388953  0.12187360266825921  1.0000
  O   O6        1.0  0.9115257223248676  0.6714604348646988  0.878141067112452  1.0000
  O   O7        1.0  0.4829506189640611  0.6692845033823076  0.33306154557656253  1.0000
  O   O8        1.0  0.5170657665543388  0.33071311410279247  0.6669221731068264  1.0000
  O   O9        1.0  0.9383121597737585  0.6763380284773888  0.48459786573042163  1.0000
  O   O10       1.0  0.061682902543623214  0.32366417420583826  0.5154023245205082  1.0000
  O   O11       1.0  0.6568888236646303  0.3137922645758736  0.1353882248050269  1.0000
  O   O12       1.0  0.3430839603925335  0.6861902398439811  0.864633471845977  1.0000
  O   O13       1.0  0.4131047224946017  0.0736508607353628  0.721533749856583  1.0000
  O   O14       1.0  0.5868668206376101  0.9263441005462953  0.2784672940381867  1.0000
  O   O15       1.0  0.8870904798359831  0.13525526119551762  0.6207783834106095  1.0000
  O   O16       1.0  0.1129021300861553  0.8647459481408719  0.3792369667082199  1.0000
