data_image0
_chemical_formula_structural       Na4Co2H24C20O16
_chemical_formula_sum              "Na4 Co2 H24 C20 O16"
_cell_length_a       7.659382412591852
_cell_length_b       9.631338591190083
_cell_length_c       10.42169813014363
_cell_angle_alpha    108.89039664967596
_cell_angle_beta     89.99960363108934
_cell_angle_gamma    113.43153535966051

_space_group_name_H-M_alt    "P 1"
_space_group_IT_number       1

loop_
  _space_group_symop_operation_xyz
  'x, y, z'

loop_
  _atom_site_type_symbol
  _atom_site_label
  _atom_site_symmetry_multiplicity
  _atom_site_fract_x
  _atom_site_fract_y
  _atom_site_fract_z
  _atom_site_occupancy
  Na  Na1       1.0  0.5000011991533597  0.9999993892016052  0.49999937485419116  1.0000
  Na  Na2       1.0  0.49999948819666434  1.902415881699999e-06  2.5831769789999983e-07  1.0000
  Na  Na3       1.0  0.180797629973945  0.9999646137557858  0.7499826286738128  1.0000
  Na  Na4       1.0  0.8191990854556083  3.34449365624e-05  0.2500151756818809  1.0000
  Co  Co1       1.0  0.7446829591273243  0.9999889941049529  0.7499788985673137  1.0000
  Co  Co2       1.0  0.25531999563516916  1.6320684132200004e-05  0.2500220374441327  1.0000
  H   H1        1.0  0.02355183899690858  0.7361149183362128  0.43408635295969594  1.0000
  H   H2        1.0  0.2874008796019538  0.2639041563933233  0.0658858114925991  1.0000
  H   H3        1.0  0.9764454809068681  0.26388434928518484  0.5659137323642086  1.0000
  H   H4        1.0  0.7125996562028121  0.7360963206393764  0.9341146358641554  1.0000
  H   H5        1.0  0.8660244327837248  0.7021928575712907  0.29051461755961583  1.0000
  H   H6        1.0  0.16379307587261135  0.2977688592276734  0.2094529427229048  1.0000
  H   H7        1.0  0.1339740965399798  0.2978088288149507  0.709486191825974  1.0000
  H   H8        1.0  0.8362087656455374  0.7022316180461559  0.7905465451661727  1.0000
  H   H9        1.0  0.755578309802452  0.544877098131792  0.5102565757848866  1.0000
  H   H10       1.0  0.210634595477508  0.4551379117786993  0.9897522445453507  1.0000
  H   H11       1.0  0.24442162141021834  0.4551221697451736  0.4897425500723431  1.0000
  H   H12       1.0  0.7893659402093932  0.5448625650273158  0.010249162280089754  1.0000
  H   H13       1.0  0.5885243686074729  0.5180312415813048  0.3772265823895396  1.0000
  H   H14       1.0  0.07042645775006652  0.4819723200673919  0.12279282827133638  1.0000
  H   H15       1.0  0.41147556260520446  0.48196802629566077  0.6227725434676898  1.0000
  H   H16       1.0  0.9295746826467948  0.5180293661210483  0.877208940584943  1.0000
  H   H17       1.0  0.7704635536187042  0.4050952694092159  0.20191073503141152  1.0000
  H   H18       1.0  0.36535259938872133  0.594901476072465  0.29809390883111325  1.0000
  H   H19       1.0  0.22953758689602913  0.5949064170059087  0.7980900743561891  1.0000
  H   H20       1.0  0.6346466309383985  0.4050990011724878  0.7019055790559606  1.0000
  H   H21       1.0  0.9246016133818884  0.4182805503062993  0.3382302615573423  1.0000
  H   H22       1.0  0.5062823832830291  0.581686807752  0.16175715890268802  1.0000
  H   H23       1.0  0.07539892254074224  0.5817199269530917  0.6617692263307335  1.0000
  H   H24       1.0  0.4937193619416648  0.4183160880455502  0.8382440125157519  1.0000
  C   C1        1.0  0.8152173158773407  0.8356627652045319  0.4834693980807359  1.0000
  C   C2        1.0  0.9795381298083897  0.16429168793615637  0.016507477279667192  1.0000
  C   C3        1.0  0.1847872339503596  0.16433529516130108  0.5165216900002251  1.0000
  C   C4        1.0  0.0204657179550836  0.8357075795307553  0.9834935675179398  1.0000
  C   C5        1.0  0.8741604786743693  0.706368230923644  0.3970717241547277  1.0000
  C   C6        1.0  0.16772206624606403  0.2936093421246467  0.1028967139366301  1.0000
  C   C7        1.0  0.1258381467070535  0.2936310364855074  0.6029293206388646  1.0000
  C   C8        1.0  0.8322796787428998  0.7063935532195273  0.8971063764191742  1.0000
  C   C9        1.0  0.7390993610585924  0.5417222785146905  0.4042890191350781  1.0000
  C   C10       1.0  0.19730538344087728  0.4582879832787937  0.09571921813060408  1.0000
  C   C11       1.0  0.2609011748640455  0.45827819874470777  0.5957104687529977  1.0000
  C   C12       1.0  0.8026939431796976  0.5417100754424381  0.9042785862271076  1.0000
  C   C13       1.0  0.7796269876097242  0.4036591774646111  0.3066748041610623  1.0000
  C   C14       1.0  0.37596173597812316  0.5963547175392776  0.19333684228664086  1.0000
  C   C15       1.0  0.22037475773284138  0.5963437185596234  0.6933254077886988  1.0000
  C   C16       1.0  0.6240336736201755  0.40364334068525654  0.8066628810054156  1.0000
  C   C17       1.0  0.6339547984006515  0.24182679956431488  0.3067203291742474  1.0000
  C   C18       1.0  0.3921525067770517  0.758192918521935  0.19329722764514662  1.0000
  C   C19       1.0  0.3660432222708037  0.758171258462404  0.6932803535884987  1.0000
  C   C20       1.0  0.607855257890833  0.2418063492149969  0.8067028576867943  1.0000
  O   O1        1.0  0.8630160035550815  0.882911236931484  0.6151334505754562  1.0000
  O   O2        1.0  0.9800657738814209  0.1171074326573063  0.8848444911585323  1.0000
  O   O3        1.0  0.1369833217689376  0.11708681929616199  0.3848749079377428  1.0000
  O   O4        1.0  0.019934762041216927  0.8828930446020847  0.11515499672954375  1.0000
  O   O5        1.0  0.7197659809280521  0.8876233582790717  0.4290029858273599  1.0000
  O   O6        1.0  0.8321576556987864  0.1122836548356716  0.07099005098658043  1.0000
  O   O7        1.0  0.2802356681210584  0.1123819562688837  0.5709989096517634  1.0000
  O   O8        1.0  0.16784157462833338  0.887716822409274  0.9290094369004935  1.0000
  O   O9        1.0  0.6686078279420187  0.1767881463029042  0.3845937815290697  1.0000
  O   O10       1.0  0.4918966971450089  0.8231871053207342  0.11539668904432435  1.0000
  O   O11       1.0  0.33139261168716405  0.8232147494802005  0.6154073898883682  1.0000
  O   O12       1.0  0.5080993175168586  0.17681216296629287  0.8846005178725351  1.0000
  O   O13       1.0  0.4730078679614209  0.1789186184540412  0.2243964461404176  1.0000
  O   O14       1.0  0.2941447521560434  0.821121215370944  0.2756191546737057  1.0000
  O   O15       1.0  0.5269906612444117  0.8210830677055155  0.775605322713851  1.0000
  O   O16       1.0  0.7058481424268166  0.17887442407429424  0.7243798445556566  1.0000
