data_image0
_chemical_formula_structural       H32Rh4C34S4N4O16
_chemical_formula_sum              "H32 Rh4 C34 S4 N4 O16"
_cell_length_a       8.142896870235608
_cell_length_b       13.616534753720355
_cell_length_c       14.1324857703788
_cell_angle_alpha    91.50671249997941
_cell_angle_beta     98.35962047994083
_cell_angle_gamma    90.27520792855968

_space_group_name_H-M_alt    "P 1"
_space_group_IT_number       1

loop_
  _space_group_symop_operation_xyz
  'x, y, z'

loop_
  _atom_site_type_symbol
  _atom_site_label
  _atom_site_symmetry_multiplicity
  _atom_site_fract_x
  _atom_site_fract_y
  _atom_site_fract_z
  _atom_site_occupancy
  H   H1        1.0  0.5035200886553426  0.5172369008861678  0.8890615214932682  1.0000
  H   H2        1.0  0.4973653054583096  0.4805593911134877  0.11151871643000531  1.0000
  H   H3        1.0  0.45841555641137427  0.6436823369359458  0.8959628473481587  1.0000
  H   H4        1.0  0.5423456307608064  0.35412451562223884  0.1030093599015274  1.0000
  H   H5        1.0  0.37596606322033915  0.571769717600695  0.7910554315186149  1.0000
  H   H6        1.0  0.6292826672493561  0.4253978603347974  0.20759430365583142  1.0000
  H   H7        1.0  0.8696448314390111  0.831038124756297  0.972566284354656  1.0000
  H   H8        1.0  0.1236018859436356  0.1671472946708761  0.022330105986753807  1.0000
  H   H9        1.0  0.6849641225121915  0.7767108660718026  0.9999934166661364  1.0000
  H   H10       1.0  0.30805428934828427  0.2211400804138464  0.9939924925903796  1.0000
  H   H11       1.0  0.7200417506438866  0.7782002461895415  0.8781259140943122  1.0000
  H   H12       1.0  0.274295437826872  0.22019285241697875  0.1160107183693455  1.0000
  H   H13       1.0  0.4560207910543994  0.1662536913489845  0.6582647160247391  1.0000
  H   H14       1.0  0.5428016212301472  0.8340151685068309  0.3449271361782138  1.0000
  H   H15       1.0  0.46158482677169843  0.2025987583220896  0.5398864669107226  1.0000
  H   H16       1.0  0.5344301155407649  0.7989241323062402  0.46348518885313444  1.0000
  H   H17       1.0  0.5545653598287927  0.08917875539535197  0.5779549072666654  1.0000
  H   H18       1.0  0.44130428451157394  0.9117150570365454  0.42324733899879874  1.0000
  H   H19       1.0  0.0717704907460401  0.1242965249684715  0.2078157861936418  1.0000
  H   H20       1.0  0.9202528988324586  0.8817553212640377  0.7961829939565988  1.0000
  H   H21       1.0  0.8743928646267776  0.06730250241253799  0.18093674470019042  1.0000
  H   H22       1.0  0.1203387789919503  0.9357309775896142  0.8220973794560607  1.0000
  H   H23       1.0  0.05803434267023281  0.9948437571511658  0.1801686344273534  1.0000
  H   H24       1.0  0.9398419394242126  0.0109274736112681  0.8235561495980761  1.0000
  H   H25       1.0  0.41867994023449034  0.4703037330560065  0.3193929435861449  1.0000
  H   H26       1.0  0.5535395854080889  0.532900332632039  0.6704466216652066  1.0000
  H   H27       1.0  0.36905125242228826  0.6459744278001337  0.5726306560744591  1.0000
  H   H28       1.0  0.6017239168423245  0.35654386121163384  0.4172842828278008  1.0000
  H   H29       1.0  0.022742959153852403  0.6635391045242186  0.7644948096447879  1.0000
  H   H30       1.0  0.05600904039823721  0.3474630464987029  0.24579559299409232  1.0000
  H   H31       1.0  0.8543869547918419  0.7575015002110276  0.6237595124389301  1.0000
  H   H32       1.0  0.21155949170624672  0.2413216293526474  0.3821608697100772  1.0000
  Rh  Rh1       1.0  0.0713177343278417  0.5301165787577347  0.07257887596373541  1.0000
  Rh  Rh2       1.0  0.9235091962130894  0.4685554378848239  0.9214332046121286  1.0000
  Rh  Rh3       1.0  0.0661499838505577  0.9242570662117798  0.49265173026064  1.0000
  Rh  Rh4       1.0  0.9278985895474535  0.07900439971481889  0.5104506327792677  1.0000
  C   C1        1.0  0.25708789523537945  0.5479448032802949  0.9152615709741242  1.0000
  C   C2        1.0  0.74226469054603  0.4504172465192226  0.08199483206903582  1.0000
  C   C3        1.0  0.40677262986220347  0.5720888737365257  0.8691027037708494  1.0000
  C   C4        1.0  0.5946497005146584  0.4256170030937695  0.1297719263051462  1.0000
  C   C5        1.0  0.8643110671401147  0.6731658258885177  0.965930796956279  1.0000
  C   C6        1.0  0.1295568051655707  0.32512001544473884  0.0282685610962403  1.0000
  C   C7        1.0  0.7798752450365428  0.7711552517712904  0.952180304050174  1.0000
  C   C8        1.0  0.2136549036948168  0.22701591212879177  0.0421011331358869  1.0000
  C   C9        1.0  0.28762592418555505  0.0879091538300116  0.5526668596858144  1.0000
  C   C10       1.0  0.7082239457069975  0.9135853230706629  0.4507209441682321  1.0000
  C   C11       1.0  0.45111891761312256  0.1385108169174458  0.5841988492784225  1.0000
  C   C12       1.0  0.5454670976189178  0.8624974226095788  0.4186139217627343  1.0000
  C   C13       1.0  0.0030184506876623  0.03685102252908481  0.320058925380664  1.0000
  C   C14       1.0  0.991195039796395  0.9673935075396257  0.6833356860449912  1.0000
  C   C15       1.0  0.0025104217905748995  0.05622502537381989  0.2153801124755077  1.0000
  C   C16       1.0  0.9924826076091691  0.9485871360758366  0.7881851229362766  1.0000
  C   C17       1.0  0.2275446241902372  0.614151389249699  0.2835721632498577  1.0000
  C   C18       1.0  0.7556004813783874  0.39275968418730406  0.7059040593142427  1.0000
  C   C19       1.0  0.27314889914570273  0.6340240410352324  0.38111299446526914  1.0000
  C   C20       1.0  0.7022861432429296  0.37105017022868475  0.6090250212091206  1.0000
  C   C21       1.0  0.2171318198505432  0.7194028386043527  0.42256572876274134  1.0000
  C   C22       1.0  0.7657063974727693  0.2866439095724544  0.5699999703830444  1.0000
  C   C23       1.0  0.3801222669409157  0.5669739863856903  0.43849803302914847  1.0000
  C   C24       1.0  0.5908019709069308  0.4356233368411182  0.5515824820156894  1.0000
  C   C25       1.0  0.4480061727586033  0.4837920472798061  0.3964209151896938  1.0000
  C   C26       1.0  0.5228824103952975  0.5189708090578478  0.5935104484869101  1.0000
  C   C27       1.0  0.42067321374835126  0.5827149389645356  0.5385805858917578  1.0000
  C   C28       1.0  0.5502700338621835  0.4199185176774662  0.4513380498844981  1.0000
  C   C29       1.0  0.9968789314057181  0.6371698112010123  0.6906179569190061  1.0000
  C   C30       1.0  0.06241582182603621  0.36237078332110434  0.32226357453102145  1.0000
  C   C31       1.0  0.9066721408958145  0.6847250390790194  0.6183767827251928  1.0000
  C   C32       1.0  0.14521167593748877  0.3087725267101717  0.39287786222953974  1.0000
  C   C33       1.0  0.9944776373518778  0.5248436345708642  0.5437442411847542  1.0000
  C   C34       1.0  0.028099448210902305  0.45268558266288045  0.47803450125810093  1.0000
  S   S1        1.0  0.07329800377946331  0.5232005261798491  0.6641606381065159  1.0000
  S   S2        1.0  0.9593296577731466  0.46441209731197824  0.3569344379371416  1.0000
  S   S3        1.0  0.873629851987957  0.6252894806447171  0.5081493122477667  1.0000
  S   S4        1.0  0.14064501026347642  0.3482970150748059  0.5090537839563183  1.0000
  N   N1        1.0  0.19519916967600182  0.5891106792957502  0.2028541980220595  1.0000
  N   N2        1.0  0.8015460157274815  0.41536247665405324  0.7863211741711781  1.0000
  N   N3        1.0  0.1782198177773324  0.7903981922433587  0.4623965130184971  1.0000
  N   N4        1.0  0.8177230497152621  0.215650061832882  0.5360220844677386  1.0000
  O   O1        1.0  0.2669622344535298  0.5668588508019496  0.004996370974303902  1.0000
  O   O2        1.0  0.7288131912045941  0.43370089499038034  0.9914938845533501  1.0000
  O   O3        1.0  0.1303113586801956  0.5092222122782245  0.8626019177488191  1.0000
  O   O4        1.0  0.8702272760392447  0.4876293569962726  0.1345810474588518  1.0000
  O   O5        1.0  0.9642650910802503  0.6636774906835471  0.04351648532908571  1.0000
  O   O6        1.0  0.02885287789164441  0.3345301894669107  0.950991014833477  1.0000
  O   O7        1.0  0.8274409723848635  0.6071895347854125  0.899755398304926  1.0000
  O   O8        1.0  0.16796585443405826  0.3913733966583095  0.0941263728385735  1.0000
  O   O9        1.0  0.2877310120990373  0.9960800604079126  0.5315876270814145  1.0000
  O   O10       1.0  0.7074067060382561  0.006157652906871599  0.4690533991994883  1.0000
  O   O11       1.0  0.15749934294876772  0.14136927016544829  0.5487765953558323  1.0000
  O   O12       1.0  0.8380151231545484  0.8597116244657885  0.45739635505170645  1.0000
  O   O13       1.0  0.06709263899049492  0.956426215542457  0.3515766840307536  1.0000
  O   O14       1.0  0.9240967404661617  0.046742162302841506  0.6511260552058502  1.0000
  O   O15       1.0  0.93911601671644  0.103177512559391  0.3689125540444991  1.0000
  O   O16       1.0  0.05747760731968301  0.9015334962881026  0.6349974377692648  1.0000
