data_image0
_chemical_formula_structural       K2Nd2H28C8N36O12
_chemical_formula_sum              "K2 Nd2 H28 C8 N36 O12"
_cell_length_a       7.3499980491000185
_cell_length_b       9.716141023220777
_cell_length_c       12.741753492032196
_cell_angle_alpha    90.00001384808442
_cell_angle_beta     89.9997424745576
_cell_angle_gamma    97.7074357839781

_space_group_name_H-M_alt    "P 1"
_space_group_IT_number       1

loop_
  _space_group_symop_operation_xyz
  'x, y, z'

loop_
  _atom_site_type_symbol
  _atom_site_label
  _atom_site_symmetry_multiplicity
  _atom_site_fract_x
  _atom_site_fract_y
  _atom_site_fract_z
  _atom_site_occupancy
  K   K1        1.0  0.4447359528264343  0.49423138784583653  0.750001421756906  1.0000
  K   K2        1.0  0.5552735134960682  0.5057653701567589  0.2500127960537952  1.0000
  Nd  Nd1       1.0  0.8102741436880834  0.22359148451593572  0.7500001356160481  1.0000
  Nd  Nd2       1.0  0.18972560005816066  0.7764107022693383  0.24999917060243596  1.0000
  H   H1        1.0  0.8651191478654283  0.19953823872431548  0.14055333199907238  1.0000
  H   H2        1.0  0.13488666800622437  0.8004565860963029  0.6405522401771718  1.0000
  H   H3        1.0  0.13489122719230554  0.8004564131973954  0.8594475438475299  1.0000
  H   H4        1.0  0.8651171565057112  0.19953925269690137  0.35944628121406197  1.0000
  H   H5        1.0  0.8740986455058887  0.5382566407748827  0.8142745957571123  1.0000
  H   H6        1.0  0.12590307979756693  0.4617444166815903  0.31427452120713173  1.0000
  H   H7        1.0  0.12590358464989043  0.461744448358502  0.18572549527937102  1.0000
  H   H8        1.0  0.874093954520397  0.5382578295831663  0.6857247850148765  1.0000
  H   H9        1.0  0.4288977235373821  0.0653179715499306  0.8124433563624365  1.0000
  H   H10       1.0  0.5710988203099915  0.9346842439402894  0.3124429994330242  1.0000
  H   H11       1.0  0.5710990877618441  0.9346832365424124  0.18755673468110245  1.0000
  H   H12       1.0  0.4288979909923185  0.0653169641522453  0.6875563067891762  1.0000
  H   H13       1.0  0.13925983160950037  0.07380522977598504  0.8124437338356998  1.0000
  H   H14       1.0  0.8607373978957966  0.9261938414572555  0.3124449764225758  1.0000
  H   H15       1.0  0.8607365336645786  0.9261939019723048  0.1875547875655457  1.0000
  H   H16       1.0  0.1392589673782823  0.07380529029103403  0.6875535449786696  1.0000
  H   H17       1.0  0.6657508496126922  0.3980160609364206  0.9422140730019422  1.0000
  H   H18       1.0  0.3342446749350216  0.601986090597926  0.4422134834683788  1.0000
  H   H19       1.0  0.3342475394132477  0.6019861555882074  0.057786802860974276  1.0000
  H   H20       1.0  0.6657521363642046  0.3980151174944171  0.5577866075751529  1.0000
  H   H21       1.0  0.5213765671187857  0.2606258045390604  0.9340183583638719  1.0000
  H   H22       1.0  0.47862173122977947  0.7393762915548553  0.43401820449813744  1.0000
  H   H23       1.0  0.47862588605265427  0.739376322766539  0.0659817326724124  1.0000
  H   H24       1.0  0.5213762117679295  0.26062384862552784  0.5659818865438239  1.0000
  H   H25       1.0  0.5184824529642709  0.8198812808990469  0.8095897018504842  1.0000
  H   H26       1.0  0.4815156910207745  0.18012194442962945  0.3095910028294568  1.0000
  H   H27       1.0  0.4815166051148054  0.18012405014261657  0.1904096043691865  1.0000
  H   H28       1.0  0.5184844987537005  0.8198823186998896  0.6904090882099823  1.0000
  C   C1        1.0  0.0030218969949516285  0.2882261868890056  0.013093982884249997  1.0000
  C   C2        1.0  0.99696595402402  0.7117691171047299  0.5130929863115554  1.0000
  C   C3        1.0  0.9969812418467396  0.7117727961603962  0.986905323329509  1.0000
  C   C4        1.0  0.0030229686354701292  0.2882270488257889  0.4869047502777448  1.0000
  C   C5        1.0  0.7897210105446247  0.07314331765290663  0.016829473575882  1.0000
  C   C6        1.0  0.21027764884146194  0.9268517465816049  0.516829779546967  1.0000
  C   C7        1.0  0.2102834830142868  0.9268556356569493  0.9831690478147761  1.0000
  C   C8        1.0  0.7897212194561829  0.0731400287413564  0.48317109631432226  1.0000
  N   N1        1.0  0.031821165279176035  0.3024782457120453  0.9091119090967011  1.0000
  N   N2        1.0  0.9681773287022039  0.697523862656837  0.4091112587407011  1.0000
  N   N3        1.0  0.9681781324326693  0.697521864728593  0.0908881819434981  1.0000
  N   N4        1.0  0.03182106032990362  0.3024783538681746  0.5908880474795453  1.0000
  N   N5        1.0  0.1732696770171671  0.4072398552192384  0.9003562683716524  1.0000
  N   N6        1.0  0.8267291087477132  0.5927632956366935  0.4003567506354813  1.0000
  N   N7        1.0  0.8267287120118493  0.5927623613055816  0.09964382266993249  1.0000
  N   N8        1.0  0.17326950329697152  0.40723995906034127  0.5996433404059118  1.0000
  N   N9        1.0  0.22194204206665094  0.4528903475302145  0.9941816001860174  1.0000
  N   N10       1.0  0.778054875036304  0.5471138249969628  0.4941822002879945  1.0000
  N   N11       1.0  0.7780574786608555  0.5471108010826458  0.00581849085399  1.0000
  N   N12       1.0  0.22194215928166727  0.4528884212677866  0.505817105934014  1.0000
  N   N13       1.0  0.11780684732550378  0.38016030271250406  0.0677958895562369  1.0000
  N   N14       1.0  0.8821929728427661  0.6198420036090299  0.5677975283426875  1.0000
  N   N15       1.0  0.8821965145318486  0.6198397185091127  0.9322034166573303  1.0000
  N   N16       1.0  0.11780497015494261  0.38015813657135317  0.43220256269928103  1.0000
  N   N17       1.0  0.8748782110948949  0.19292167496917054  0.06126360390729959  1.0000
  N   N18       1.0  0.12511512644548625  0.807075562669475  0.5612656780386516  1.0000
  N   N19       1.0  0.1251285458548139  0.8070751425163822  0.9387364871228812  1.0000
  N   N20       1.0  0.8748805697631212  0.19292045456099782  0.4387375522911867  1.0000
  N   N21       1.0  0.7653474749920972  0.046749198719460636  0.9138222131381255  1.0000
  N   N22       1.0  0.2346523366888107  0.953252877587204  0.4138258741229279  1.0000
  N   N23       1.0  0.2346565559153007  0.9532539370190067  0.0861763082535347  1.0000
  N   N24       1.0  0.7653469610107067  0.04674723285266681  0.5861773562026115  1.0000
  N   N25       1.0  0.6707336419330686  0.9162666453730073  0.9102750271305737  1.0000
  N   N26       1.0  0.32926710630335515  0.08373332659835603  0.4102759207866029  1.0000
  N   N27       1.0  0.3292665644616052  0.08373135898346361  0.08972506390824007  1.0000
  N   N28       1.0  0.6707319683897524  0.9162657456698755  0.5897249550751269  1.0000
  N   N29       1.0  0.6407755106199176  0.8691145442923518  0.0053117056808745  1.0000
  N   N30       1.0  0.35922841845675885  0.13088562726056105  0.5053114715780538  1.0000
  N   N31       1.0  0.3592264965202077  0.13088550666881105  0.9946883853557933  1.0000
  N   N32       1.0  0.640773365667705  0.8691133855283867  0.4946886194588059  1.0000
  N   N33       1.0  0.7153149211190738  0.9646837697762154  0.0756873319422482  1.0000
  N   N34       1.0  0.2846841680214638  0.0353154181396818  0.5756880582051949  1.0000
  N   N35       1.0  0.2846879947131171  0.035314175101355316  0.9243104046290254  1.0000
  N   N36       1.0  0.7153160383701261  0.9646825862165898  0.4243128176549504  1.0000
  O   O1        1.0  0.8512008581357334  0.47787858038033465  0.7499993219590521  1.0000
  O   O2        1.0  0.14880137202313642  0.5221225087532416  0.24999998425609246  1.0000
  O   O3        1.0  0.5016557283042288  0.10099687424392563  0.7499997403797494  1.0000
  O   O4        1.0  0.4983442550778676  0.8990000919405149  0.24999956583791763  1.0000
  O   O5        1.0  0.058343665119579696  0.07227088726197199  0.7499995293081483  1.0000
  O   O6        1.0  0.941653369201468  0.9277313590029764  0.24999899209252158  1.0000
  O   O7        1.0  0.614997204690475  0.32224363013251894  0.8927272223889631  1.0000
  O   O8        1.0  0.38499779986945976  0.6777606518746426  0.3927280850278407  1.0000
  O   O9        1.0  0.38500163036985663  0.6777606627367448  0.10727286865223817  1.0000
  O   O10       1.0  0.6149978797282002  0.32224162412946106  0.6072727908386071  1.0000
  O   O11       1.0  0.4449466498128557  0.7760554001474845  0.749998309225937  1.0000
  O   O12       1.0  0.5550544486475246  0.2239467568980516  0.2500009969907779  1.0000
