data_image0
_chemical_formula_structural       Cu4H28C28I4N4
_chemical_formula_sum              "Cu4 H28 C28 I4 N4"
_cell_length_a       4.041240289757615
_cell_length_b       11.942202152974687
_cell_length_c       16.33974593740227
_cell_angle_alpha    98.46576034748728
_cell_angle_beta     89.99929746874548
_cell_angle_gamma    89.99801684326825

_space_group_name_H-M_alt    "P 1"
_space_group_IT_number       1

loop_
  _space_group_symop_operation_xyz
  'x, y, z'

loop_
  _atom_site_type_symbol
  _atom_site_label
  _atom_site_symmetry_multiplicity
  _atom_site_fract_x
  _atom_site_fract_y
  _atom_site_fract_z
  _atom_site_occupancy
  Cu  Cu1       1.0  0.4191971011558309  0.6982281875619945  0.7061310158739076  1.0000
  Cu  Cu2       1.0  0.9191624071852329  0.8017698808693436  0.7938754841286907  1.0000
  Cu  Cu3       1.0  0.5807891958346899  0.30176757449069663  0.2938693691670906  1.0000
  Cu  Cu4       1.0  0.08081894096559239  0.19822417836437717  0.2061228863662734  1.0000
  H   H1        1.0  0.13178697297533404  0.49549055848085277  0.7644892833498319  1.0000
  H   H2        1.0  0.6318624398495346  0.0045216834765540006  0.735512470949196  1.0000
  H   H3        1.0  0.8681869516513318  0.5045043506109081  0.23550978826666116  1.0000
  H   H4        1.0  0.3681758212310554  0.9954782950408966  0.26448529602599535  1.0000
  H   H5        1.0  0.11956732696150138  0.28800276040853834  0.7207188723633067  1.0000
  H   H6        1.0  0.6195846564303834  0.21201291473433775  0.7792630844420145  1.0000
  H   H7        1.0  0.8804090721503569  0.7119938224765789  0.27927670267845167  1.0000
  H   H8        1.0  0.3804041148015855  0.787988757262454  0.2207348601591903  1.0000
  H   H9        1.0  0.7337771661142864  0.33876797413537924  0.5125261661256673  1.0000
  H   H10       1.0  0.2338368573782716  0.16123452535175886  0.9874742431751359  1.0000
  H   H11       1.0  0.2662363494117272  0.6612380080734254  0.48748691854444104  1.0000
  H   H12       1.0  0.766198929979282  0.8387502275621158  0.012524375559820574  1.0000
  H   H13       1.0  0.7263813250110686  0.5455537839375778  0.5670861713931928  1.0000
  H   H14       1.0  0.22638863930914968  0.9544508663017621  0.9329093901955048  1.0000
  H   H15       1.0  0.27361239481954397  0.45445215322007454  0.4329183404581656  1.0000
  H   H16       1.0  0.7736174544810124  0.04553047787128149  0.0670845871444072  1.0000
  H   H17       1.0  0.6050859841462851  0.14919332035659486  0.5280275852099834  1.0000
  H   H18       1.0  0.1050897470177432  0.35080987287259546  0.9719598410375311  1.0000
  H   H19       1.0  0.39490031258034713  0.8508100286913063  0.47196747517495646  1.0000
  H   H20       1.0  0.8949287185074581  0.6491858470304875  0.02803258341553768  1.0000
  H   H21       1.0  0.0943406274006549  0.10970213273971298  0.6619083507958551  1.0000
  H   H22       1.0  0.5943070593088038  0.3903045718931394  0.8380776417196785  1.0000
  H   H23       1.0  0.9056827867379978  0.8902978490974572  0.33809002855999637  1.0000
  H   H24       1.0  0.4056247991738715  0.609689468289602  0.1619170548020676  1.0000
  H   H25       1.0  0.2907456466170401  0.002479181976511299  0.5840187996571656  1.0000
  H   H26       1.0  0.7907146133438232  0.4975369678429545  0.9159773520767729  1.0000
  H   H27       1.0  0.7092183796704673  0.9975266876044201  0.41597285296605685  1.0000
  H   H28       1.0  0.20927663101588223  0.5024817326378324  0.08404073809020927  1.0000
  C   C1        1.0  0.26233931306174435  0.45710199087270786  0.7088823878001804  1.0000
  C   C2        1.0  0.7623685677309381  0.042918756766411485  0.7911161720396649  1.0000
  C   C3        1.0  0.7376321368616418  0.5428979848361237  0.2911147669774721  1.0000
  C   C4        1.0  0.237632575318159  0.9570922533999421  0.2088876476453905  1.0000
  C   C5        1.0  0.25794625812623906  0.3410108957387621  0.6839042880848041  1.0000
  C   C6        1.0  0.7579969862906779  0.1590208704125544  0.8160874847430293  1.0000
  C   C7        1.0  0.7420425131999692  0.6589874092796038  0.3160969755705522  1.0000
  C   C8        1.0  0.24201900307689067  0.8410003115855103  0.1839198493883742  1.0000
  C   C9        1.0  0.42763347937411555  0.29370563614533296  0.6117464646701478  1.0000
  C   C10       1.0  0.9276486570830612  0.2063138793211721  0.8882496055197535  1.0000
  C   C11       1.0  0.5723528174049831  0.7062926817956734  0.3882572483802278  1.0000
  C   C12       1.0  0.07235001144589151  0.793698811123093  0.11175194229640789  1.0000
  C   C13       1.0  0.4395130645849433  0.17252847928355655  0.5806762286865421  1.0000
  C   C14       1.0  0.9395390033417712  0.3274697195594953  0.9193169569102863  1.0000
  C   C15       1.0  0.5605103484805626  0.8274943248482529  0.4193178113011414  1.0000
  C   C16       1.0  0.0605042082696627  0.6724931092266928  0.08069588749158638  1.0000
  C   C17       1.0  0.2673169292543491  0.09132828721247675  0.6104928394020774  1.0000
  C   C18       1.0  0.7673210725679238  0.40867120461278  0.8894979681037327  1.0000
  C   C19       1.0  0.732676790974949  0.908678399726284  0.3894933907857592  1.0000
  C   C20       1.0  0.23267512322492218  0.5913017834851572  0.11051594149375178  1.0000
  C   C21       1.0  0.5959427650939374  0.3699442338213785  0.568765570104226  1.0000
  C   C22       1.0  0.0959761935397125  0.13007773081092466  0.931229973225996  1.0000
  C   C23       1.0  0.40408807233583127  0.6300524390731111  0.4312471505417577  1.0000
  C   C24       1.0  0.9040620669969569  0.8699382618281603  0.06875600849986796  1.0000
  C   C25       1.0  0.5912692428099717  0.48496534615929204  0.5982962383252967  1.0000
  C   C26       1.0  0.0913134732467924  0.0150558206437594  0.9016974001433198  1.0000
  C   C27       1.0  0.40875911993266095  0.5150355532210539  0.4017157014190715  1.0000
  C   C28       1.0  0.9087099407936206  0.9849500388850954  0.09829241530461268  1.0000
  I   I1        1.0  0.9172691162384438  0.7871649166102016  0.6313528430121025  1.0000
  I   I2        1.0  0.41726730814175284  0.7128374086739127  0.8686541093519367  1.0000
  I   I3        1.0  0.08273202770882189  0.21283083889598228  0.3686463173008577  1.0000
  I   I4        1.0  0.5827189887100843  0.28716173003757456  0.13134479367700888  1.0000
  N   N1        1.0  0.42736263805565494  0.5295888745421207  0.6673368449037937  1.0000
  N   N2        1.0  0.9273804537556458  0.9704234445636855  0.832663779065335  1.0000
  N   N3        1.0  0.5725914899801267  0.47041957034981857  0.3326618098352156  1.0000
  N   N4        1.0  0.07260089536875108  0.02955450697150039  0.16732861860528203  1.0000
