data_image0
_chemical_formula_structural       Co2P4H28C18N4O12
_chemical_formula_sum              "Co2 P4 H28 C18 N4 O12"
_cell_length_a       6.8281867435524815
_cell_length_b       10.532782701961933
_cell_length_c       10.68572941966693
_cell_angle_alpha    113.41525267433605
_cell_angle_beta     94.4094802457309
_cell_angle_gamma    101.02883503464778

_space_group_name_H-M_alt    "P 1"
_space_group_IT_number       1

loop_
  _space_group_symop_operation_xyz
  'x, y, z'

loop_
  _atom_site_type_symbol
  _atom_site_label
  _atom_site_symmetry_multiplicity
  _atom_site_fract_x
  _atom_site_fract_y
  _atom_site_fract_z
  _atom_site_occupancy
  Co  Co1       1.0  0.12742346202606575  0.37304873877087635  0.3159889656014911  1.0000
  Co  Co2       1.0  0.8725848367053288  0.6269553110573085  0.6840101357357115  1.0000
  P   P1        1.0  0.27836387976470434  0.5340397244093255  0.6467257401419318  1.0000
  P   P2        1.0  0.7216396567057404  0.46595899617646813  0.35327665903444233  1.0000
  P   P3        1.0  0.9398706739549925  0.8881697561177904  0.6297814337328663  1.0000
  P   P4        1.0  0.060124796235946604  0.1118353769590001  0.3702212274526104  1.0000
  H   H1        1.0  0.2643398789139937  0.3112451425726163  0.6036054515113278  1.0000
  H   H2        1.0  0.735659245280225  0.6887535841063299  0.3963948690881055  1.0000
  H   H3        1.0  0.07955990131315363  0.09344718720817011  0.6209431535626564  1.0000
  H   H4        1.0  0.9204355727271576  0.9065579457210758  0.37906044357838914  1.0000
  H   H5        1.0  0.5522694104763773  0.6814624818910319  0.5669001675132466  1.0000
  H   H6        1.0  0.4477300758135385  0.3185373115274928  0.4330987171984546  1.0000
  H   H7        1.0  0.3856863349086836  0.7791394388446945  0.7872184581401814  1.0000
  H   H8        1.0  0.6143171977123814  0.22085928188863593  0.21278300508061684  1.0000
  H   H9        1.0  0.8651273128111259  0.9332640163821966  0.9090885439464673  1.0000
  H   H10       1.0  0.13486997339616386  0.06673364578492882  0.09091127174095703  1.0000
  H   H11       1.0  0.8397043583213702  0.08481641209917971  0.881252639374765  1.0000
  H   H12       1.0  0.1602918410359991  0.9151823180025431  0.11875035131416922  1.0000
  H   H13       1.0  0.6274873858371708  0.9801246228996873  0.9111383861505759  1.0000
  H   H14       1.0  0.37250990806887074  0.0198730389723707  0.0888633014479865  1.0000
  H   H15       1.0  0.4107990986953851  0.9353520199059844  0.6818273026345524  1.0000
  H   H16       1.0  0.5891923224406953  0.06464564969684261  0.3181741094096111  1.0000
  H   H17       1.0  0.615698594898042  0.05704756055449418  0.6650310288364452  1.0000
  H   H18       1.0  0.38429466037560195  0.942951173707691  0.3349699521641586  1.0000
  H   H19       1.0  0.5184589645701223  0.8845426367466301  0.527893545734152  1.0000
  H   H20       1.0  0.48153575889600836  0.11545609558285717  0.47210750415504793  1.0000
  H   H21       1.0  0.9944679134585215  0.5910092483081826  0.9398733329602751  1.0000
  H   H22       1.0  0.005549545538215731  0.4089915889526807  0.06012307061576655  1.0000
  H   H23       1.0  0.8591053601931052  0.6192999542237204  0.1599867037246129  1.0000
  H   H24       1.0  0.14090292426645593  0.3806955598879115  0.8400109191136595  1.0000
  H   H25       1.0  0.5331489915787415  0.6954187857957805  0.19162813305552373  1.0000
  H   H26       1.0  0.46685961704559287  0.3045735283774605  0.808359827001013  1.0000
  H   H27       1.0  0.3550336573400159  0.7381024075796745  0.002209627345827405  1.0000
  H   H28       1.0  0.6449628969771269  0.2618931214033537  0.9977911882059161  1.0000
  C   C1        1.0  0.4766965967168775  0.6993487948828375  0.7524241594945311  1.0000
  C   C2        1.0  0.5233072941505057  0.30065099273761586  0.24757493188297275  1.0000
  C   C3        1.0  0.7036772148206083  0.8868607440266842  0.7043292246415265  1.0000
  C   C4        1.0  0.2963178745905921  0.1131390548948588  0.2956713253155101  1.0000
  C   C5        1.0  0.7622384227586921  0.9755310042379863  0.8610212307570893  1.0000
  C   C6        1.0  0.23775850463944445  0.024469859195370695  0.13897982411195642  1.0000
  C   C7        1.0  0.553180694877  0.944147403083193  0.6408972021968113  1.0000
  C   C8        1.0  0.4468125642460166  0.0558513310314552  0.3591047147593542  1.0000
  C   C9        1.0  0.580971414379249  0.6857016277674504  0.8739027019147657  1.0000
  C   C10       1.0  0.41902774004714877  0.3143013658845462  0.12610397366754006  1.0000
  C   C11       1.0  0.8536616578574084  0.6236239721211944  0.9600548817902922  1.0000
  C   C12       1.0  0.14633456130967915  0.3763704890894958  0.03995392133816013  1.0000
  C   C13       1.0  0.7781433771033763  0.6401646231959005  0.08104086400761902  1.0000
  C   C14       1.0  0.22186373582000135  0.3598319620961377  0.9189393428096652  1.0000
  C   C15       1.0  0.5967014304468848  0.6826845697845699  0.09822736793675098  1.0000
  C   C16       1.0  0.4033116784264835  0.3173120030555125  0.9017830650131274  1.0000
  C   C17       1.0  0.4976108966173883  0.7058702071317028  0.9934751653761185  1.0000
  C   C18       1.0  0.5023899808774958  0.294129587304873  0.006505069112812137  1.0000
  N   N1        1.0  0.6228486057657392  0.7311459333919146  0.6684946016431257  1.0000
  N   N2        1.0  0.3771505107297344  0.2688527935821056  0.3315038470451698  1.0000
  N   N3        1.0  0.75745198592945  0.6458458647095638  0.8580082439008835  1.0000
  N   N4        1.0  0.24255078288080512  0.3541592603266608  0.14198446621634284  1.0000
  O   O1        1.0  0.24857273915622363  0.5285406548602012  0.501974272258501  1.0000
  O   O2        1.0  0.7514300648612462  0.47146020069484257  0.49802799412051973  1.0000
  O   O3        1.0  0.09690297471509281  0.5412504201236389  0.7217899543996824  1.0000
  O   O4        1.0  0.9031045959755417  0.45875149637290497  0.2782110827574088  1.0000
  O   O5        1.0  0.3715701095615459  0.40856868970812604  0.6504210749772457  1.0000
  O   O6        1.0  0.6284304828251663  0.5914300350381296  0.34957931451078406  1.0000
  O   O7        1.0  0.052332767033668445  0.8032382753219522  0.6843924720451542  1.0000
  O   O8        1.0  0.9476674775291868  0.19676791840126379  0.31561083182953104  1.0000
  O   O9        1.0  0.885140936020605  0.8285522322067181  0.4712724824634338  1.0000
  O   O10       1.0  0.114852696183398  0.17145183635824418  0.5287296738100409  1.0000
  O   O11       1.0  0.0656910183347321  0.047447110417429904  0.6897468041071094  1.0000
  O   O12       1.0  0.9343037122673153  0.9525558897703307  0.3102549850315487  1.0000
