data_image0
_chemical_formula_structural       Zn4H28C24S4N12O16
_chemical_formula_sum              "Zn4 H28 C24 S4 N12 O16"
_cell_length_a       6.559594964064811
_cell_length_b       9.694663066000524
_cell_length_c       16.519252339169487
_cell_angle_alpha    90.00003706448865
_cell_angle_beta     89.99948661510875
_cell_angle_gamma    90.00001392152372

_space_group_name_H-M_alt    "P 1"
_space_group_IT_number       1

loop_
  _space_group_symop_operation_xyz
  'x, y, z'

loop_
  _atom_site_type_symbol
  _atom_site_label
  _atom_site_symmetry_multiplicity
  _atom_site_fract_x
  _atom_site_fract_y
  _atom_site_fract_z
  _atom_site_occupancy
  Zn  Zn1       1.0  0.21577446185804663  0.6538116512476508  0.6353360021376984  1.0000
  Zn  Zn2       1.0  0.2842233659137534  0.3461905810317987  0.1353337757259254  1.0000
  Zn  Zn3       1.0  0.7842276252295974  0.15381200083049856  0.8646691346609144  1.0000
  Zn  Zn4       1.0  0.7157733740168484  0.8461864730537838  0.36466491598023504  1.0000
  H   H1        1.0  0.7858866965669478  0.29716087956360576  0.6941299633867357  1.0000
  H   H2        1.0  0.7141059875566358  0.7028404986835708  0.1941287235439901  1.0000
  H   H3        1.0  0.21410932551899722  0.7971617512246638  0.805869173681721  1.0000
  H   H4        1.0  0.28588767057263453  0.20283654519043642  0.30586688759415637  1.0000
  H   H5        1.0  0.380162799184646  0.31998793447341  0.8877550638158309  1.0000
  H   H6        1.0  0.11983995596817462  0.6800125162211473  0.3877499105029186  1.0000
  H   H7        1.0  0.619845424003586  0.8199928070715855  0.61224468715357  1.0000
  H   H8        1.0  0.8801475989762225  0.180011574374646  0.11224690278732648  1.0000
  H   H9        1.0  0.16251765807501078  0.48691785513527464  0.8086647325015689  1.0000
  H   H10       1.0  0.3374853723462935  0.5130825073874591  0.3086617754807008  1.0000
  H   H11       1.0  0.8374814564597345  0.986922864623047  0.6913368971988232  1.0000
  H   H12       1.0  0.6625067177294782  0.0130805735025135  0.1913392126291527  1.0000
  H   H13       1.0  0.18988999765359446  0.46470238215466253  0.5208968136564991  1.0000
  H   H14       1.0  0.3101134832490615  0.5352997225446784  0.020895777602319796  1.0000
  H   H15       1.0  0.8101106362851029  0.964701517358115  0.9791035969936601  1.0000
  H   H16       1.0  0.6898877588544536  0.03529811559928219  0.4791027974129135  1.0000
  H   H17       1.0  0.9597269256706582  0.5000208814257335  0.5422063541844295  1.0000
  H   H18       1.0  0.5402798870071379  0.4999751699759615  0.04220565146652429  1.0000
  H   H19       1.0  0.0402781751798358  2.0136813276399996e-05  0.9577938820537709  1.0000
  H   H20       1.0  0.4597214616368532  0.9999783289747268  0.45779309795124584  1.0000
  H   H21       1.0  0.08606050165298032  0.8500277763721159  0.5172637327656702  1.0000
  H   H22       1.0  0.41393696397165775  0.14997432427697532  0.017264001866351495  1.0000
  H   H23       1.0  0.9139370570247466  0.35002828661797036  0.9827366348505392  1.0000
  H   H24       1.0  0.5860643043967714  0.64997341338141  0.4827370376056947  1.0000
  H   H25       1.0  0.17093375778349446  0.9249339915103434  0.5959511777185253  1.0000
  H   H26       1.0  0.32906649067438565  0.07506716536810389  0.0959523234775972  1.0000
  H   H27       1.0  0.8290622935706721  0.42493645802595376  0.9040504287230318  1.0000
  H   H28       1.0  0.6709378094952001  0.5750672172399333  0.4040480825208803  1.0000
  C   C1        1.0  0.6012605617712767  0.4916709173305379  0.5977984839382984  1.0000
  C   C2        1.0  0.898732789992387  0.50832313305456  0.09779651975004097  1.0000
  C   C3        1.0  0.3987431272920077  0.9916709062190565  0.9022043582455479  1.0000
  C   C4        1.0  0.10126234797469641  0.0083213086238132  0.40220325585962496  1.0000
  C   C5        1.0  0.5328438250612136  0.4376164717797338  0.6787380929828187  1.0000
  C   C6        1.0  0.9671522582573788  0.5623828263191228  0.17873953983778523  1.0000
  C   C7        1.0  0.4671598516435865  0.9376215432226614  0.8212617021429407  1.0000
  C   C8        1.0  0.03283831866423981  0.062373675866481904  0.3212590453596675  1.0000
  C   C9        1.0  0.6476842687760964  0.3400411726381662  0.7206804483002642  1.0000
  C   C10       1.0  0.8523169580222144  0.659961266707292  0.22068354762094336  1.0000
  C   C11       1.0  0.35231786107944174  0.8400472031116522  0.7793187048522012  1.0000
  C   C12       1.0  0.1476782146837934  0.15995209520045245  0.2793187063171486  1.0000
  C   C13       1.0  0.4226112368042437  0.3525439620198441  0.8270173793618836  1.0000
  C   C14       1.0  0.07739290044385433  0.6474533264784058  0.3270166010600802  1.0000
  C   C15       1.0  0.5773924204089199  0.852547861332866  0.6729811731257553  1.0000
  C   C16       1.0  0.9226068428904526  0.14745865081550144  0.1729820160525506  1.0000
  C   C17       1.0  0.30395045090156003  0.44623980588474405  0.7836609224721653  1.0000
  C   C18       1.0  0.19605009951730074  0.5537584657726883  0.2836596903895412  1.0000
  C   C19       1.0  0.69605322778002  0.946241717103632  0.7163388758895051  1.0000
  C   C20       1.0  0.803938950930217  0.053761748894977805  0.21634010228459735  1.0000
  C   C21       1.0  0.8899288378189284  0.6468832496076901  0.7739476225275439  1.0000
  C   C22       1.0  0.6100635543470078  0.35311615463819374  0.2739563041442209  1.0000
  C   C23       1.0  0.1100701988152011  0.14688741973778016  0.7260484313626918  1.0000
  C   C24       1.0  0.3899316626651129  0.8531004727357825  0.2260442062245787  1.0000
  S   S1        1.0  0.7853878356455372  0.645755862996765  0.8627871784958641  1.0000
  S   S2        1.0  0.7146193043048046  0.3542477662698715  0.3627882274506716  1.0000
  S   S3        1.0  0.21461882311620437  0.14574861103837833  0.6372119017270279  1.0000
  S   S4        1.0  0.28539420680247224  0.8542546548299087  0.1372104672519825  1.0000
  N   N1        1.0  0.3604486833581718  0.489042702803104  0.7101175508545055  1.0000
  N   N2        1.0  0.13955963849886643  0.5109523923824711  0.21012073949190574  1.0000
  N   N3        1.0  0.6395580541267023  0.9890457148595501  0.7898804475039255  1.0000
  N   N4        1.0  0.8604355000923077  0.0109557701331084  0.2898772210427225  1.0000
  N   N5        1.0  0.5928507658507485  0.29870506268338204  0.794889101603381  1.0000
  N   N6        1.0  0.9071518212210705  0.7012984908886254  0.29489262834417923  1.0000
  N   N7        1.0  0.4071528790112141  0.7987068967184143  0.705110036031371  1.0000
  N   N8        1.0  0.09285098341252511  0.2012933503575525  0.20510721967878703  1.0000
  N   N9        1.0  0.9678459743266714  0.6481406149132881  0.7088936936646488  1.0000
  N   N10       1.0  0.5321631431634231  0.3518649057763241  0.20889235864098765  1.0000
  N   N11       1.0  0.0321713562826744  0.14813143069596893  0.7911132570396545  1.0000
  N   N12       1.0  0.46784122041484016  0.8518658177761509  0.2911129940793558  1.0000
  O   O1        1.0  0.5028538905999796  0.5965564342692035  0.5707805052656665  1.0000
  O   O2        1.0  0.9971522718084813  0.403437585999086  0.07078299735611887  1.0000
  O   O3        1.0  0.4971542813735397  0.09655679155979159  0.929217951136202  1.0000
  O   O4        1.0  0.0028399077741810006  0.9034364848933903  0.4292175319073976  1.0000
  O   O5        1.0  0.7473583731052075  0.43118093233110244  0.5641284101813893  1.0000
  O   O6        1.0  0.7526357448069378  0.5688172065011157  0.0641306162373496  1.0000
  O   O7        1.0  0.25263310626205293  0.9311788630601755  0.9358701718406122  1.0000
  O   O8        1.0  0.24735635805485154  0.06881854679011921  0.4358697874371487  1.0000
  O   O9        1.0  0.09995289627554631  0.5410361310274966  0.5344920329014754  1.0000
  O   O10       1.0  0.40004875076026997  0.4589649573332509  0.0344918616217029  1.0000
  O   O11       1.0  0.9000506894876138  0.04103558746253811  0.9655088240875428  1.0000
  O   O12       1.0  0.5999480150136237  0.9589640303389261  0.4655080831199853  1.0000
  O   O13       1.0  0.1355232748252533  0.8334300216093025  0.5739356987868546  1.0000
  O   O14       1.0  0.3644729011575337  0.1665721422206019  0.07393735932674157  1.0000
  O   O15       1.0  0.8644727555627156  0.3334314890986789  0.9260646626027693  1.0000
  O   O16       1.0  0.635526846545446  0.6665680847281407  0.42606247566833827  1.0000
