data_image0
_chemical_formula_structural       Co6H100C128N8O38
_chemical_formula_sum              "Co6 H100 C128 N8 O38"
_cell_length_a       16.083331836064012
_cell_length_b       18.00779198649118
_cell_length_c       18.007792815354865
_cell_angle_alpha    64.77151672096278
_cell_angle_beta     73.83792729774201
_cell_angle_gamma    73.83798544073382

_space_group_name_H-M_alt    "P 1"
_space_group_IT_number       1

loop_
  _space_group_symop_operation_xyz
  'x, y, z'

loop_
  _atom_site_type_symbol
  _atom_site_label
  _atom_site_symmetry_multiplicity
  _atom_site_fract_x
  _atom_site_fract_y
  _atom_site_fract_z
  _atom_site_occupancy
  Co  Co1       1.0  0.4477400256450891  0.8623181516891023  0.6714152166462881  1.0000
  Co  Co2       1.0  0.0522638542915388  0.3285784207767292  0.13768176902391363  1.0000
  Co  Co3       1.0  0.5522603401899744  0.1376852325007007  0.32857941989240663  1.0000
  Co  Co4       1.0  0.9477404734944203  0.67141121207694  0.8623187271183423  1.0000
  Co  Co5       1.0  0.49999491486127556  0.9999968439241587  0.5000019661687033  1.0000
  Co  Co6       1.0  0.9999976745614346  0.4999991291147765  0.9999993325211776  1.0000
  H   H1        1.0  0.6860458907491915  0.43761676647382336  0.657694650510251  1.0000
  H   H2        1.0  0.8139540084942141  0.3423023111091866  0.5623803140704525  1.0000
  H   H3        1.0  0.3139545482648813  0.5623828367941782  0.3423043172430835  1.0000
  H   H4        1.0  0.18604513910274526  0.6576973050772353  0.4376178537267703  1.0000
  H   H5        1.0  0.6551250316053939  0.3805458371120309  0.6117113479473275  1.0000
  H   H6        1.0  0.8448700682161243  0.3882883842848628  0.6194500397146284  1.0000
  H   H7        1.0  0.3448728182812317  0.6194537649662665  0.38828825408635476  1.0000
  H   H8        1.0  0.15512807265518797  0.6117131252946351  0.38054592105633117  1.0000
  H   H9        1.0  0.5334295759115264  0.24462144081196163  0.8175627034590464  1.0000
  H   H10       1.0  0.9665700479675651  0.1824435263224515  0.7553782866732063  1.0000
  H   H11       1.0  0.46657522447879535  0.7553756325632933  0.18243902555038716  1.0000
  H   H12       1.0  0.033429449272567496  0.8175641481024555  0.24462144255536344  1.0000
  H   H13       1.0  0.6487343804828852  0.2176914486271926  0.7780661558560453  1.0000
  H   H14       1.0  0.8512654062934498  0.22194405677394263  0.7823047931203037  1.0000
  H   H15       1.0  0.3512713440142505  0.7823074717369778  0.22193680025385734  1.0000
  H   H16       1.0  0.14873490625202374  0.7780661431664984  0.2176914648396248  1.0000
  H   H17       1.0  0.4990884662662509  0.414387310196858  0.6660730898345406  1.0000
  H   H18       1.0  0.0009123468081142926  0.33392795896882893  0.5856061224954842  1.0000
  H   H19       1.0  0.5009160635923423  0.585607943513459  0.3339250193117634  1.0000
  H   H20       1.0  0.9990863278236828  0.6660742091648046  0.4143866569807102  1.0000
  H   H21       1.0  0.5243177684740701  0.47675091418501847  0.7098701759516216  1.0000
  H   H22       1.0  0.9756831447428169  0.2901246219419491  0.523247258832278  1.0000
  H   H23       1.0  0.47568474478661915  0.5232481127981786  0.2901246362384453  1.0000
  H   H24       1.0  0.024317504571200656  0.7098706434970765  0.4767506846382616  1.0000
  H   H25       1.0  0.6890911154092834  0.31579174501479923  0.8283682643109813  1.0000
  H   H26       1.0  0.8109108453810093  0.1716282618168492  0.6842114217348296  1.0000
  H   H27       1.0  0.3109086684564061  0.6842078241726028  0.17163365475315112  1.0000
  H   H28       1.0  0.18908994521033395  0.8283694139774768  0.3157927043555659  1.0000
  H   H29       1.0  0.5748623377988622  0.32663085609680553  0.8773530831512983  1.0000
  H   H30       1.0  0.9251420654359918  0.12264599569881092  0.673371490182774  1.0000
  H   H31       1.0  0.42513656072908645  0.6733699820101438  0.12264685887054572  1.0000
  H   H32       1.0  0.07486017672943023  0.8773541586120217  0.3266329159058897  1.0000
  H   H33       1.0  0.506112417239045  0.26868124442844993  0.573684916419495  1.0000
  H   H34       1.0  0.993887054225205  0.4263254090136357  0.7313088281812056  1.0000
  H   H35       1.0  0.4938848878739747  0.7313176517992588  0.4263217767459437  1.0000
  H   H36       1.0  0.006112377702436259  0.5736860801162538  0.26868377709201496  1.0000
  H   H37       1.0  0.46255567365979994  0.14938102013859117  0.5658949379549583  1.0000
  H   H38       1.0  0.03744123941175558  0.43411879497043065  0.8506092925977737  1.0000
  H   H39       1.0  0.5374362072759098  0.8506191091434943  0.43411368089950025  1.0000
  H   H40       1.0  0.9625589611856425  0.5658920699833557  0.14938338408934013  1.0000
  H   H41       1.0  0.5336671717278278  0.9896813643472698  0.8050511224188667  1.0000
  H   H42       1.0  0.9663415211748471  0.1949563893198203  0.010305762616333293  1.0000
  H   H43       1.0  0.4663364182909078  0.010311974807784499  0.19495134510838596  1.0000
  H   H44       1.0  0.033663702240396214  0.8050520068483636  0.9896844898235101  1.0000
  H   H45       1.0  0.5773644667909891  0.1076348984820612  0.8136695001495865  1.0000
  H   H46       1.0  0.9226419266606953  0.1863396383036999  0.8923528082477219  1.0000
  H   H47       1.0  0.4226453097816005  0.8923565564159687  0.18633334729510417  1.0000
  H   H48       1.0  0.07735763137475253  0.813671246622562  0.1076383513650469  1.0000
  H   H49       1.0  0.315275579845995  0.3518389920040049  0.9089845319962252  1.0000
  H   H50       1.0  0.18472569188213583  0.0910116931507261  0.6481617474692598  1.0000
  H   H51       1.0  0.6847283865620852  0.648162520252342  0.09101000164396557  1.0000
  H   H52       1.0  0.8152768412679733  0.9089903686613072  0.3518390173566882  1.0000
  H   H53       1.0  0.16818702011004666  0.4416768531940037  0.9228698644276889  1.0000
  H   H54       1.0  0.33181152276100795  0.0771273348896884  0.5583244434730686  1.0000
  H   H55       1.0  0.8318144769851727  0.5583240266424667  0.07712609202496169  1.0000
  H   H56       1.0  0.6681877739797883  0.9228747254352071  0.44167711420330147  1.0000
  H   H57       1.0  0.2551233031835166  0.6367581223978294  0.6935378349789971  1.0000
  H   H58       1.0  0.24487926755201528  0.3064587077788588  0.3632447853441079  1.0000
  H   H59       1.0  0.7448808233815213  0.36324588129343743  0.3064561787033497  1.0000
  H   H60       1.0  0.7551219369852191  0.6935402577997751  0.6367553709194026  1.0000
  H   H61       1.0  0.3999836464079038  0.5457022738457482  0.6757046185304318  1.0000
  H   H62       1.0  0.10001992458104779  0.3242934109137039  0.4542991237889921  1.0000
  H   H63       1.0  0.6000197956795147  0.4542986203962656  0.32428974511567793  1.0000
  H   H64       1.0  0.8999819272380447  0.675705554962349  0.5457008739044369  1.0000
  H   H65       1.0  0.639553008330388  0.5868603547448431  0.7559967851360554  1.0000
  H   H66       1.0  0.8604419650006676  0.2440025194888236  0.41314269650020213  1.0000
  H   H67       1.0  0.36044212789427377  0.41313985710399953  0.24400433829027424  1.0000
  H   H68       1.0  0.13955146271438673  0.7559964019808589  0.5868627138931828  1.0000
  H   H69       1.0  0.7344916218482425  0.6367206171715695  0.8064478986588455  1.0000
  H   H70       1.0  0.7654940131986052  0.1935615830162192  0.3632830033587808  1.0000
  H   H71       1.0  0.26549978612229796  0.36328206405773505  0.19355533187458449  1.0000
  H   H72       1.0  0.2344907116533648  0.8064454330677862  0.6367228371583026  1.0000
  H   H73       1.0  0.8133209521866788  0.3858632434015946  0.9742469406005725  1.0000
  H   H74       1.0  0.686670140216023  0.025755437512742698  0.6141386802440394  1.0000
  H   H75       1.0  0.18667770356547203  0.6141388436524196  0.025752541453322023  1.0000
  H   H76       1.0  0.3133244250524  0.9742410066301517  0.3858658158707371  1.0000
  H   H77       1.0  0.7158175644903011  0.3353644947385703  0.9278957860085412  1.0000
  H   H78       1.0  0.784179278973042  0.07210034822847433  0.6646366572896696  1.0000
  H   H79       1.0  0.2841835233789424  0.6646351155834935  0.0721024646265676  1.0000
  H   H80       1.0  0.21582196784065383  0.9278917543030758  0.33536578738959816  1.0000
  H   H81       1.0  0.28712388739219813  0.7591013554097898  0.7490959535260161  1.0000
  H   H82       1.0  0.2128853620115763  0.2508926509568212  0.2408976892325398  1.0000
  H   H83       1.0  0.7128804384596634  0.2408982631560477  0.25090094571052635  1.0000
  H   H84       1.0  0.7871269292969388  0.749092586827274  0.7591049067191662  1.0000
  H   H85       1.0  0.2984532739403817  0.6106700360262495  0.887851883623689  1.0000
  H   H86       1.0  0.2015426354163097  0.11214548394221421  0.38933872246384027  1.0000
  H   H87       1.0  0.7015427037722617  0.3893357631935004  0.11214948697731583  1.0000
  H   H88       1.0  0.7984574224885178  0.8878459259545933  0.6106698548209835  1.0000
  H   H89       1.0  0.5380941253077366  0.7021646826500644  0.8097538595577233  1.0000
  H   H90       1.0  0.9619081069836993  0.1902520515669366  0.29782870534358347  1.0000
  H   H91       1.0  0.4619069891049321  0.2978279970585689  0.19025226497455333  1.0000
  H   H92       1.0  0.038094838538995514  0.8097512932727683  0.7021686482036242  1.0000
  H   H93       1.0  0.3987306000213167  0.48046058031101063  0.9298750529363885  1.0000
  H   H94       1.0  0.1012636794913035  0.0701324887505663  0.5195393257662317  1.0000
  H   H95       1.0  0.6012671890699864  0.519535811265932  0.07013311871309465  1.0000
  H   H96       1.0  0.8987335524426997  0.9298701883989438  0.48046303618456665  1.0000
  H   H97       1.0  0.5368412419731499  0.6397511130900142  0.955584963754454  1.0000
  H   H98       1.0  0.9631550874764158  0.044419144054302306  0.3602459693178163  1.0000
  H   H99       1.0  0.4631540872451224  0.36024468660686193  0.04442127941863556  1.0000
  H   H100      1.0  0.036840213625133254  0.9555835794993754  0.6397529585062501  1.0000
  C   C1        1.0  0.5993310253393815  0.3510572753883423  0.7438097592307499  1.0000
  C   C2        1.0  0.9006695485253856  0.2561908606456954  0.6489381638992878  1.0000
  C   C3        1.0  0.4006717165373673  0.6489404418380716  0.25619053986054025  1.0000
  C   C4        1.0  0.09932935629577594  0.7438100044877843  0.35105954392998473  1.0000
  C   C5        1.0  0.6737175936542599  0.3761245831234277  0.6682949466815131  1.0000
  C   C6        1.0  0.8262793461780048  0.3317036389062835  0.6238734096086631  1.0000
  C   C7        1.0  0.32628373541747635  0.6238737714949424  0.3317043224696902  1.0000
  C   C8        1.0  0.1737189082146884  0.6682972124165046  0.37612557388698054  1.0000
  C   C9        1.0  0.5873037442503628  0.26253656693079097  0.7638545032401823  1.0000
  C   C10       1.0  0.912696351598406  0.2361519459626749  0.7374579446248999  1.0000
  C   C11       1.0  0.412700651633898  0.7374592571999727  0.23614784430728258  1.0000
  C   C12       1.0  0.087303803936713  0.7638557760561115  0.26253771619659005  1.0000
  C   C13       1.0  0.5150731382311092  0.4141002964668203  0.7218484495930825  1.0000
  C   C14       1.0  0.984927872508628  0.27815139471493205  0.5858955878562639  1.0000
  C   C15       1.0  0.48492960993885253  0.5858974477861382  0.2781496153056435  1.0000
  C   C16       1.0  0.015071158420340673  0.7218488662149269  0.41410067431255726  1.0000
  C   C17       1.0  0.6226959782699808  0.3525017769891223  0.8203616125803633  1.0000
  C   C18       1.0  0.8773059293684325  0.1796356767100562  0.6474988558641784  1.0000
  C   C19       1.0  0.37730457898538816  0.6474971882920784  0.17963870225322853  1.0000
  C   C20       1.0  0.12269421866095338  0.820362019056745  0.35250375315187904  1.0000
  C   C21       1.0  0.5436739373379424  0.1955397539671964  0.693744250859048  1.0000
  C   C22       1.0  0.9563289852852532  0.30626672492274315  0.8044481755426246  1.0000
  C   C23       1.0  0.45632940203847744  0.8044548003517492  0.30626054944096365  1.0000
  C   C24       1.0  0.043674576255966664  0.6937435305579173  0.1955428211817463  1.0000
  C   C25       1.0  0.5114329599182669  0.2072040693570827  0.6239016324043191  1.0000
  C   C26       1.0  0.9885689378086226  0.37610869901610056  0.7927870306311176  1.0000
  C   C27       1.0  0.4885652368257141  0.7927935849776304  0.3761048036108435  1.0000
  C   C28       1.0  0.011432796981686937  0.623900904072201  0.20720690598005126  1.0000
  C   C29       1.0  0.48712918364786617  0.14131080981815813  0.619971780451138  1.0000
  C   C30       1.0  0.012868410224164982  0.3800388794800043  0.8586819311791203  1.0000
  C   C31       1.0  0.5128638767568887  0.8586899715588602  0.38003405708661114  1.0000
  C   C32       1.0  0.9871321513903196  0.6199700985399091  0.14131255255619365  1.0000
  C   C33       1.0  0.49462549011165174  0.062464516774426215  0.6856648341021766  1.0000
  C   C34       1.0  0.00537448632990586  0.31434565565765393  0.9375240218220781  1.0000
  C   C35       1.0  0.5053723084194744  0.9375319153423264  0.31433998625845294  1.0000
  C   C36       1.0  0.9946281448112868  0.6856627258075463  0.062467981994395  1.0000
  C   C37       1.0  0.5272253880899954  0.051220200991657805  0.7549244904339217  1.0000
  C   C38       1.0  0.9727821111604553  0.24508291606348828  0.9487668853380241  1.0000
  C   C39       1.0  0.4727771873365824  0.948774997773299  0.24507856280777668  1.0000
  C   C40       1.0  0.027225422983988737  0.7549236278462814  0.05122190569906585  1.0000
  C   C41       1.0  0.5518466978837536  0.11729460179174821  0.759583739616616  1.0000
  C   C42       1.0  0.9481576330297158  0.24042395386423723  0.8826946951591098  1.0000
  C   C43       1.0  0.4481571721065406  0.8827005975680535  0.24041899648491236  1.0000
  C   C44       1.0  0.05184281506339516  0.7595856824123858  0.11729676585152753  1.0000
  C   C45       1.0  0.470165353640347  0.9929886276710889  0.6790507099130211  1.0000
  C   C46       1.0  0.0298354580669056  0.32095522219691464  0.007001313320770914  1.0000
  C   C47       1.0  0.5298303879505112  0.0070084550534588  0.3209521219813282  1.0000
  C   C48       1.0  0.9701679029749781  0.6790494191837271  0.9929915118514072  1.0000
  C   C49       1.0  0.36706326495162495  0.44313455590593526  0.7926851972422851  1.0000
  C   C50       1.0  0.13293605871665892  0.20731346066534678  0.5568650112887568  1.0000
  C   C51       1.0  0.6329377062496276  0.5568656991595662  0.20731114776442883  1.0000
  C   C52       1.0  0.8670634886664528  0.7926873844956577  0.4431342136148613  1.0000
  C   C53       1.0  0.30110969426089434  0.4144055508551646  0.8619772367159726  1.0000
  C   C54       1.0  0.19889081449986182  0.13801928391518462  0.5855942389473936  1.0000
  C   C55       1.0  0.6988929791567599  0.5855959675629592  0.13801705551625076  1.0000
  C   C56       1.0  0.8011114371053835  0.8619809109354578  0.41440681585241623  1.0000
  C   C57       1.0  0.21919286555978346  0.465065519516486  0.8696217848759318  1.0000
  C   C58       1.0  0.28080778180672183  0.13037404125864066  0.5349348359252204  1.0000
  C   C59       1.0  0.7808099292457624  0.5349353744281019  0.1303727373402593  1.0000
  C   C60       1.0  0.7191931799547077  0.8696261732670505  0.4650648603703403  1.0000
  C   C61       1.0  0.20218186777380243  0.54616590602803  0.8094650036074214  1.0000
  C   C62       1.0  0.29781885097834493  0.19053230644663444  0.45383735620013954  1.0000
  C   C63       1.0  0.7978201520687732  0.4538355850661233  0.19053168138744783  1.0000
  C   C64       1.0  0.7021819831019727  0.8094685055260556  0.5461643443040103  1.0000
  C   C65       1.0  0.26838071697557797  0.5738716793245332  0.7402091273885174  1.0000
  C   C66       1.0  0.23162042250805828  0.2597892466965419  0.4261301390984258  1.0000
  C   C67       1.0  0.7316236492186476  0.4261310619063964  0.25978646335806843  1.0000
  C   C68       1.0  0.768378595834477  0.7402109601802351  0.5738705914555309  1.0000
  C   C69       1.0  0.35015806563085056  0.5227965507602051  0.7305460735699612  1.0000
  C   C70       1.0  0.14984359334596323  0.2694498628609167  0.4772044185153915  1.0000
  C   C71       1.0  0.6498447338946107  0.4772043634542911  0.2694467730018104  1.0000
  C   C72       1.0  0.8501569607627957  0.7305490889070114  0.5227970134144823  1.0000
  C   C73       1.0  0.11737907381254331  0.6045488565740696  0.817981920841838  1.0000
  C   C74       1.0  0.3826219586216552  0.18201391630757516  0.3954528220929348  1.0000
  C   C75       1.0  0.8826237131264918  0.3954520035873444  0.18201539411506923  1.0000
  C   C76       1.0  0.617379241195657  0.8179850290011501  0.6045490098149955  1.0000
  C   C77       1.0  0.6725554457422048  0.4583227248832173  0.8378478583350244  1.0000
  C   C78       1.0  0.8274402706757868  0.1621513074287648  0.5416805150169494  1.0000
  C   C79       1.0  0.32744151094015456  0.5416781123314465  0.16215255939707876  1.0000
  C   C80       1.0  0.17255740804074546  0.8378457559181599  0.45832351681156075  1.0000
  C   C81       1.0  0.6770635325889457  0.5434940814937974  0.8046325826451763  1.0000
  C   C82       1.0  0.8229298635865092  0.19536822247723512  0.4565105150001258  1.0000
  C   C83       1.0  0.3229321263830798  0.4565067416127349  0.19536926932337198  1.0000
  C   C84       1.0  0.17706291527338172  0.8046306919383923  0.5434956125114853  1.0000
  C   C85       1.0  0.7301500147920663  0.5708652498306606  0.8327829856057888  1.0000
  C   C86       1.0  0.7698430557483462  0.16722399464339335  0.4291348501777748  1.0000
  C   C87       1.0  0.26984653109101225  0.4291343111129677  0.16722028485690996  1.0000
  C   C88       1.0  0.23015017267989163  0.8327793119517184  0.5708676746614216  1.0000
  C   C89       1.0  0.7800933776498127  0.5143700179951906  0.8939649293873938  1.0000
  C   C90       1.0  0.7198989477567537  0.10604043536071832  0.48563181059057553  1.0000
  C   C91       1.0  0.21990604519879747  0.48563143812607723  0.10603518262853136  1.0000
  C   C92       1.0  0.28009257688177747  0.8939616011251489  0.5143733255712489  1.0000
  C   C93       1.0  0.7739254745163038  0.4297985464772368  0.9274519925046576  1.0000
  C   C94       1.0  0.7260650061666284  0.07255320394256158  0.5702034996867908  1.0000
  C   C95       1.0  0.22607265219527048  0.570202902292543  0.07254899519957556  1.0000
  C   C96       1.0  0.2739288276277989  0.9274469735282551  0.429800733620425  1.0000
  C   C97       1.0  0.7199581404680587  0.40133314840166884  0.9005081811951142  1.0000
  C   C98       1.0  0.7800362742618745  0.0994927065260001  0.598667817189586  1.0000
  C   C99       1.0  0.2800393452548703  0.5986683270972224  0.09949073088664297  1.0000
  C   C100      1.0  0.21996205488312617  0.900504370631623  0.4013349389725605  1.0000
  C   C101      1.0  0.8424989280567061  0.5437275430269324  0.9184582819329562  1.0000
  C   C102      1.0  0.6574948412076012  0.08154696615569891  0.4562735602035347  1.0000
  C   C103      1.0  0.15750008713922622  0.4562726503365724  0.08154356571728982  1.0000
  C   C104      1.0  0.3424966865775402  0.9184550838434333  0.543730458862008  1.0000
  C   C105      1.0  0.3408162424013739  0.7249922698788042  0.782797366371767  1.0000
  C   C106      1.0  0.15918829013919114  0.2171962607296578  0.27500386111680797  1.0000
  C   C107      1.0  0.6591842823781419  0.2750036065204783  0.21720146421107955  1.0000
  C   C108      1.0  0.8408192756293786  0.7827933803677781  0.7249952836268747  1.0000
  C   C109      1.0  0.3454794754207666  0.6517224446779724  0.8512204839982188  1.0000
  C   C110      1.0  0.1545228830394834  0.14877831548422188  0.3482761023887734  1.0000
  C   C111      1.0  0.6545213183171795  0.34827524462961895  0.14878252499589448  1.0000
  C   C112      1.0  0.8454816017568305  0.8512137952910949  0.651724990891921  1.0000
  C   C113      1.0  0.4708271103934861  0.6990564054672035  0.8131122961072634  1.0000
  C   C114      1.0  0.029174578622253488  0.18689008818311242  0.3009391039859679  1.0000
  C   C115      1.0  0.5291734002262986  0.30093941012236775  0.18689156140886348  1.0000
  C   C116      1.0  0.9708301113932973  0.8131076569621315  0.6990584852024995  1.0000
  C   C117      1.0  0.463901595060605  0.5672346534333458  0.9361448141968438  1.0000
  C   C118      1.0  0.036092352821611884  0.0638565047488129  0.4327669192190697  1.0000
  C   C119      1.0  0.5360931754270623  0.43276742507946153  0.06385617782570566  1.0000
  C   C120      1.0  0.9639044374105621  0.9361418140043796  0.5672362526634346  1.0000
  C   C121      1.0  0.4421717970589469  0.4890834993813372  0.9612891313686376  1.0000
  C   C122      1.0  0.057822717526292394  0.0387134055106486  0.5109199634827419  1.0000
  C   C123      1.0  0.5578241418846375  0.5109191839299498  0.03871298917419348  1.0000
  C   C124      1.0  0.9421742328628468  0.9612874046774778  0.4890826884419254  1.0000
  C   C125      1.0  0.5214734167456427  0.5782352538242819  0.9747257504751233  1.0000
  C   C126      1.0  0.9785216975214156  0.0252759260155173  0.4217662341809215  1.0000
  C   C127      1.0  0.47851989272812284  0.42176430563220896  0.025278312838011567  1.0000
  C   C128      1.0  0.021474730120367255  0.9747242729149123  0.5782356892015271  1.0000
  N   N1        1.0  0.4194071050603512  0.7535698355703674  0.7594914366384343  1.0000
  N   N2        1.0  0.08059906062865  0.24050605809291173  0.24642383995077202  1.0000
  N   N3        1.0  0.5805964881049943  0.2464235170979593  0.2405099137925362  1.0000
  N   N4        1.0  0.9194089499883517  0.759487954914114  0.7535733777649157  1.0000
  N   N5        1.0  0.4282680791619452  0.6360665843509422  0.8701765013973173  1.0000
  N   N6        1.0  0.07173248635216821  0.12982471595512374  0.3639338787603918  1.0000
  N   N7        1.0  0.5717318260916427  0.36393236036292365  0.12982564765079013  1.0000
  N   N8        1.0  0.9282690776288474  0.8701723559330007  0.6360686430994703  1.0000
  O   O1        1.0  0.749999748912451  0.31363397711147206  0.6863625965225211  1.0000
  O   O2        1.0  0.2500014587713864  0.6863650019804268  0.31363644264470736  1.0000
  O   O3        1.0  0.5657437153260075  0.2645802839880673  0.6910559110432146  1.0000
  O   O4        1.0  0.9342585803412929  0.30895346983937344  0.7354090138406516  1.0000
  O   O5        1.0  0.43426193163300303  0.7354124045591914  0.30894854495032575  1.0000
  O   O6        1.0  0.06574251346037839  0.6910561599780395  0.2645828471480343  1.0000
  O   O7        1.0  0.47350609804293237  0.9202205068846396  0.7367922928366892  1.0000
  O   O8        1.0  0.02648974773305919  0.26321112762975213  0.07976949548245929  1.0000
  O   O9        1.0  0.5264875866076508  0.0797772264476961  0.2632085505913722  1.0000
  O   O10       1.0  0.9735107022941423  0.7367885229346953  0.9202255624338843  1.0000
  O   O11       1.0  0.44349492667132034  0.005791600197554199  0.6124708613831301  1.0000
  O   O12       1.0  0.05650548707374268  0.3875323016447467  0.9942049919837501  1.0000
  O   O13       1.0  0.5565033245747558  0.9942092376119614  0.3875292392087958  1.0000
  O   O14       1.0  0.9434985928557114  0.6124685523548905  0.00579256438112438  1.0000
  O   O15       1.0  0.4457919601203811  0.38907590800345565  0.7917850274397509  1.0000
  O   O16       1.0  0.05420739273942838  0.2082141576584959  0.6109221836752781  1.0000
  O   O17       1.0  0.5542087295360146  0.6109224801006619  0.20821160754082502  1.0000
  O   O18       1.0  0.9457932032850065  0.7917879235311601  0.3890773812164952  1.0000
  O   O19       1.0  0.11165473409622703  0.6815077722370051  0.7773532262238448  1.0000
  O   O20       1.0  0.3883491174989047  0.22264507200358713  0.31849342508683515  1.0000
  O   O21       1.0  0.8883489334606408  0.3184917987349607  0.2226477414197773  1.0000
  O   O22       1.0  0.6116545825338163  0.7773575878502966  0.6815090268075324  1.0000
  O   O23       1.0  0.047810043807316946  0.5733130511290838  0.8680114206459068  1.0000
  O   O24       1.0  0.4521919157851926  0.13198745208686805  0.42668568069500884  1.0000
  O   O25       1.0  0.9521942417021733  0.4266834447716619  0.13198678708059217  1.0000
  O   O26       1.0  0.5478090428296267  0.8680127489255512  0.573315132696834  1.0000
  O   O27       1.0  0.6200956322126671  0.4380474726700641  0.8039973738974382  1.0000
  O   O28       1.0  0.8799050360234799  0.19599726973619624  0.5619546174644229  1.0000
  O   O29       1.0  0.3799032726084945  0.5619533924634225  0.1960003339318348  1.0000
  O   O30       1.0  0.12009547774290742  0.8039985593666403  0.43804812295542206  1.0000
  O   O31       1.0  0.8910117641703579  0.4898369275690939  0.9695339749433172  1.0000
  O   O32       1.0  0.608984503011449  0.030469063386313208  0.510158453314517  1.0000
  O   O33       1.0  0.10898888042375171  0.5101583176000235  0.030465644171648806  1.0000
  O   O34       1.0  0.3910085731263349  0.9695317855570522  0.4898417987418073  1.0000
  O   O35       1.0  0.8439104098425075  0.6225629046724563  0.8835511362946918  1.0000
  O   O36       1.0  0.6560835529636363  0.11645535026215728  0.3774392219244546  1.0000
  O   O37       1.0  0.15608860063350957  0.3774372684211471  0.1164523869999741  1.0000
  O   O38       1.0  0.34390877596711505  0.8835491644427833  0.6225663528057269  1.0000
