data_image0
_chemical_formula_structural       Zn8H48Pd4C56N8Cl8O44
_chemical_formula_sum              "Zn8 H48 Pd4 C56 N8 Cl8 O44"
_cell_length_a       12.904434718178678
_cell_length_b       15.04758339501122
_cell_length_c       22.810790143331403
_cell_angle_alpha    89.99986798832573
_cell_angle_beta     89.9993977151598
_cell_angle_gamma    90.0000469897394

_space_group_name_H-M_alt    "P 1"
_space_group_IT_number       1

loop_
  _space_group_symop_operation_xyz
  'x, y, z'

loop_
  _atom_site_type_symbol
  _atom_site_label
  _atom_site_symmetry_multiplicity
  _atom_site_fract_x
  _atom_site_fract_y
  _atom_site_fract_z
  _atom_site_occupancy
  Zn  Zn1       1.0  0.756240898247455  0.5575395992980106  0.0173023000725792  1.0000
  Zn  Zn2       1.0  0.25623845119377353  0.05753672732478071  0.4826988274906867  1.0000
  Zn  Zn3       1.0  0.7437583629516668  0.5575407158713757  0.5173051835094498  1.0000
  Zn  Zn4       1.0  0.24376134046979556  0.05754316038291311  0.9826933815159861  1.0000
  Zn  Zn5       1.0  0.1677058746784823  0.1801962680422093  0.0964103175667006  1.0000
  Zn  Zn6       1.0  0.6677026799166724  0.6801951334265864  0.4035920257104806  1.0000
  Zn  Zn7       1.0  0.3322957993502412  0.18019678340164802  0.5964131139073956  1.0000
  Zn  Zn8       1.0  0.8322933795902184  0.680197642475683  0.9035869310449485  1.0000
  H   H1        1.0  0.5105255028197746  0.35907026886933835  0.49244849221064163  1.0000
  H   H2        1.0  0.010523072548338097  0.8590721525901088  0.007547936091043501  1.0000
  H   H3        1.0  0.9894840991054465  0.3590722258087026  0.99244947884209  1.0000
  H   H4        1.0  0.4894770192275713  0.8590714512860059  0.5075533066285374  1.0000
  H   H5        1.0  0.3770207489075261  0.216376466159609  0.3468985806754077  1.0000
  H   H6        1.0  0.8770229925272799  0.7163781995637422  0.1531002732748803  1.0000
  H   H7        1.0  0.12297707069588167  0.21638214824037047  0.846894728359672  1.0000
  H   H8        1.0  0.6229731148283545  0.716377900603213  0.6531034352064609  1.0000
  H   H9        1.0  0.5418954926280151  0.44870358880163513  0.31394771898823143  1.0000
  H   H10       1.0  0.0418936137819657  0.9487048494598227  0.1860492635815945  1.0000
  H   H11       1.0  0.9581012432768785  0.44871017520326717  0.8139480150653782  1.0000
  H   H12       1.0  0.4581040139412166  0.9487094421775526  0.6860552587037532  1.0000
  H   H13       1.0  0.38226892598709833  0.19680624513331685  0.1398009752794493  1.0000
  H   H14       1.0  0.8822665390520965  0.6968072556513646  0.3602005076335145  1.0000
  H   H15       1.0  0.11772808119869178  0.19680860065469125  0.639803729953293  1.0000
  H   H16       1.0  0.6177241444487648  0.6968076175042272  0.8601988784232545  1.0000
  H   H17       1.0  0.5108921221849413  0.30508466861481054  0.9807560362189065  1.0000
  H   H18       1.0  0.0109057476845891  0.8050845178489184  0.5192426576413425  1.0000
  H   H19       1.0  0.9890967236408059  0.3050770730529351  0.48075703136415626  1.0000
  H   H20       1.0  0.489105699563808  0.8050855615432936  0.0192454063499099  1.0000
  H   H21       1.0  0.5844645268247745  0.4109330391131892  0.15118254499711267  1.0000
  H   H22       1.0  0.08447124165046199  0.9109304088481239  0.34881292716844575  1.0000
  H   H23       1.0  0.9155235798908022  0.41092896211351615  0.6511857241004577  1.0000
  H   H24       1.0  0.4155326194948826  0.9109356356672649  0.8488169830358602  1.0000
  H   H25       1.0  0.21713564221541753  0.361352315214404  0.0788468537007034  1.0000
  H   H26       1.0  0.7171352201922898  0.8613517838550848  0.4211540438983192  1.0000
  H   H27       1.0  0.28286420429436276  0.3613541243291394  0.5788473130902858  1.0000
  H   H28       1.0  0.7828645572099402  0.861351599296775  0.9211531881200514  1.0000
  H   H29       1.0  0.23804565637961866  0.33817041180593316  0.1450014663717525  1.0000
  H   H30       1.0  0.7380433662694867  0.8381701113605757  0.35499934238264796  1.0000
  H   H31       1.0  0.2619552614952312  0.3381741996345511  0.6450029266410979  1.0000
  H   H32       1.0  0.7619537463419945  0.8381758928704388  0.8549977339250177  1.0000
  H   H33       1.0  0.16692053508258906  0.1760890876795287  0.2157766397035772  1.0000
  H   H34       1.0  0.6669211124696375  0.6760896988360016  0.2842243993016567  1.0000
  H   H35       1.0  0.3330796877157737  0.1760889390387348  0.7157811849439782  1.0000
  H   H36       1.0  0.8330779404060207  0.6760888856519145  0.7842197383799813  1.0000
  H   H37       1.0  0.2887477031593306  0.16614269523292793  0.2091364455897988  1.0000
  H   H38       1.0  0.7887481569384958  0.666143283214346  0.2908630086887598  1.0000
  H   H39       1.0  0.21125263392891466  0.16614578222451123  0.7091395219583561  1.0000
  H   H40       1.0  0.7112507629582224  0.6661457056526813  0.7908625779525451  1.0000
  H   H41       1.0  0.9781324300084435  0.253759808949944  0.1286198051971468  1.0000
  H   H42       1.0  0.4781294255992775  0.7537604227088791  0.371381022124659  1.0000
  H   H43       1.0  0.5218737724323572  0.2537601022210866  0.6286174297629259  1.0000
  H   H44       1.0  0.021873092784666398  0.7537600514184959  0.8713808386291575  1.0000
  H   H45       1.0  0.9863162518028759  0.15224248837726154  0.1435237697153653  1.0000
  H   H46       1.0  0.48631584964714136  0.652243818718169  0.35647716341860297  1.0000
  H   H47       1.0  0.513689577717109  0.15224609857799007  0.6435258267430797  1.0000
  H   H48       1.0  0.0136868508476198  0.6522454352554661  0.8564717678413416  1.0000
  Pd  Pd1       1.0  0.45662855705189287  0.3157295161855629  0.2373378378566855  1.0000
  Pd  Pd2       1.0  0.9566295358727857  0.815730202606268  0.2626608308920311  1.0000
  Pd  Pd3       1.0  0.04336287141355649  0.3157304893908304  0.7373379651688268  1.0000
  Pd  Pd4       1.0  0.5433669498994573  0.8157318403627656  0.7626657804737107  1.0000
  C   C1        1.0  0.5588772229016639  0.36350629936578843  0.0629853614442126  1.0000
  C   C2        1.0  0.05888927005854328  0.8635000384518181  0.43701208826109905  1.0000
  C   C3        1.0  0.9411179057612242  0.3635009115647279  0.5629848815481964  1.0000
  C   C4        1.0  0.4411245283952282  0.8635066126955879  0.9370155538732875  1.0000
  C   C5        1.0  0.5445048549050853  0.36310545962500385  0.12360759202925921  1.0000
  C   C6        1.0  0.044516480851015686  0.8631007394351826  0.37638775164439414  1.0000
  C   C7        1.0  0.9554852701185508  0.36310274033859  0.6236074652313306  1.0000
  C   C8        1.0  0.4554914715073933  0.863106659394795  0.8763950774693754  1.0000
  C   C9        1.0  0.6301328542692841  0.4309424493469791  0.0360601217012757  1.0000
  C   C10       1.0  0.1301413004584759  0.9309374235687288  0.4639354873650348  1.0000
  C   C11       1.0  0.8698643889048582  0.4309409979170979  0.5360596263277557  1.0000
  C   C12       1.0  0.369866635633734  0.9309439468306521  0.9639398142831013  1.0000
  C   C13       1.0  0.5030230755461176  0.304005755848415  0.028333112137737305  1.0000
  C   C14       1.0  0.0030306029444204987  0.804004025889526  0.4716634444113765  1.0000
  C   C15       1.0  0.9969757420045724  0.30400107256251363  0.5283362462224872  1.0000
  C   C16       1.0  0.4969770699821224  0.8040046590689373  0.9716670168995022  1.0000
  C   C17       1.0  0.3734397090587007  0.1784586495837956  0.0227726274088766  1.0000
  C   C18       1.0  0.8734413428130664  0.6784612452927021  0.47722630546463307  1.0000
  C   C19       1.0  0.12656100947732798  0.17845370127736973  0.5227766448406257  1.0000
  C   C20       1.0  0.6265603184658275  0.6784562969885144  0.97722856934719  1.0000
  C   C21       1.0  0.5332557300153055  0.4138652731284154  0.405864797529631  1.0000
  C   C22       1.0  0.0332555624216226  0.9138655255097846  0.09413185091028  1.0000
  C   C23       1.0  0.9667415866831988  0.41386920747839895  0.9058646039388024  1.0000
  C   C24       1.0  0.4667414190226607  0.9138661370548461  0.5941386715463395  1.0000
  C   C25       1.0  0.4950390097008607  0.3517588717429446  0.4457890464763424  1.0000
  C   C26       1.0  0.9950368949899511  0.8517616148862646  0.0542084627303012  1.0000
  C   C27       1.0  0.0049663951623913  0.351766463058425  0.9457885249399992  1.0000
  C   C28       1.0  0.5049635054522099  0.8517638897201749  0.5542153938136849  1.0000
  C   C29       1.0  0.3904444794734231  0.21331597074882316  0.4661653455409009  1.0000
  C   C30       1.0  0.8904435190132671  0.7133174558942414  0.0338351869564093  1.0000
  C   C31       1.0  0.109560415964097  0.21331699132031903  0.9661602577139945  1.0000
  C   C32       1.0  0.6095555807787604  0.7133131599799897  0.5338393053145225  1.0000
  C   C33       1.0  0.4365089036084909  0.2806431489840834  0.4249925373981469  1.0000
  C   C34       1.0  0.9365064017186455  0.7806471486527614  0.0750054273571621  1.0000
  C   C35       1.0  0.06349992131421799  0.2806507821790945  0.9249907916820989  1.0000
  C   C36       1.0  0.5634935447343635  0.7806461425762309  0.5750089423274574  1.0000
  C   C37       1.0  0.4287710044524005  0.24558622727986554  0.11699098093959749  1.0000
  C   C38       1.0  0.9287736173718172  0.7455871581852307  0.38300795982400626  1.0000
  C   C39       1.0  0.0712264732273624  0.24558589129469507  0.6169948883941316  1.0000
  C   C40       1.0  0.5712221118284688  0.7455861576443894  0.8830087985765758  1.0000
  C   C41       1.0  0.42009417424803525  0.2723262983180277  0.36466281028523173  1.0000
  C   C42       1.0  0.9200920990295953  0.7723294228448125  0.1353357029329629  1.0000
  C   C43       1.0  0.0799072418372191  0.27233726604738717  0.8646609671629264  1.0000
  C   C44       1.0  0.5799036167068718  0.7723317513026942  0.6353395588791315  1.0000
  C   C45       1.0  0.43681066682528064  0.24388573104662473  0.0561486994561591  1.0000
  C   C46       1.0  0.9368121470332226  0.743887114140094  0.44384931940113154  1.0000
  C   C47       1.0  0.06319491634122439  0.24388140196479918  0.5561504626620604  1.0000
  C   C48       1.0  0.5631878723377709  0.7438787977024646  0.9438519594134077  1.0000
  C   C49       1.0  0.5136637883838588  0.40171856895231167  0.346410107247344  1.0000
  C   C50       1.0  0.013662513893940798  0.9017192783618384  0.1535875527302721  1.0000
  C   C51       1.0  0.9863346237822056  0.40172118820237296  0.8464102357599897  1.0000
  C   C52       1.0  0.48633489912573663  0.9017199039330207  0.6535898731849485  1.0000
  C   C53       1.0  0.5955760113454643  0.49208313469923576  0.42644604094911637  1.0000
  C   C54       1.0  0.09557622691581708  0.9920834589194599  0.0735509954221385  1.0000
  C   C55       1.0  0.9044233204918085  0.4920863599059118  0.9264444636839073  1.0000
  C   C56       1.0  0.40442431093557457  0.9920846904408549  0.573555117213445  1.0000
  N   N1        1.0  0.4792649945449697  0.3054675638010238  0.1499931495816682  1.0000
  N   N2        1.0  0.9792705466810713  0.8054652871142379  0.3500032084644289  1.0000
  N   N3        1.0  0.020725725590864393  0.30546586257151637  0.6499960415852541  1.0000
  N   N4        1.0  0.5207297278665095  0.8054689023509383  0.8500069772466076  1.0000
  N   N5        1.0  0.45892772226208917  0.33152193107031996  0.3261501743748383  1.0000
  N   N6        1.0  0.9589264798983306  0.8315229274929408  0.1738480183270212  1.0000
  N   N7        1.0  0.041067492116454184  0.3315282191048325  0.8261476849837095  1.0000
  N   N8        1.0  0.5410677995321577  0.8315252281630237  0.6738534199367407  1.0000
  Cl  Cl1       1.0  0.43111271680061225  0.4664819759622248  0.2240927513959008  1.0000
  Cl  Cl2       1.0  0.9311157738122945  0.9664826161507065  0.2759062779056194  1.0000
  Cl  Cl3       1.0  0.0688798749082338  0.4664823028737075  0.7240879049826461  1.0000
  Cl  Cl4       1.0  0.5688852566044742  0.9664836076032018  0.7759119528215095  1.0000
  Cl  Cl5       1.0  0.4473339287288382  0.1615552407908538  0.245575312416733  1.0000
  Cl  Cl6       1.0  0.9473373857052604  0.661555955968133  0.2544218924119264  1.0000
  Cl  Cl7       1.0  0.0526556515914507  0.16155489152233574  0.7455788916814967  1.0000
  Cl  Cl8       1.0  0.5526606584022672  0.6615556066963394  0.7544276636172073  1.0000
  O   O1        1.0  0.3443008455802641  0.14850691850697464  0.4421751308773807  1.0000
  O   O2        1.0  0.844305637888766  0.648505661678854  0.0578270892119761  1.0000
  O   O3        1.0  0.1556951364694115  0.14850398474169418  0.9421680156493154  1.0000
  O   O4        1.0  0.6556929543371693  0.648502063334952  0.5578300569526391  1.0000
  O   O5        1.0  0.629856765487304  0.4872410831423509  0.47819908220670027  1.0000
  O   O6        1.0  0.12985561977720286  0.9872435816826768  0.0217981964548102  1.0000
  O   O7        1.0  0.8701431481457147  0.4872456129385583  0.9781981467930337  1.0000
  O   O8        1.0  0.370147426888785  0.9872441241227179  0.5218012065292754  1.0000
  O   O9        1.0  0.6923413861064559  0.4712538653028346  0.071910483941565  1.0000
  O   O10       1.0  0.19235204957272595  0.9712509583345795  0.4280868865297904  1.0000
  O   O11       1.0  0.8076544525891832  0.47125236936462767  0.5719099194071192  1.0000
  O   O12       1.0  0.3076612414062082  0.9712581016529  0.9280880755563601  1.0000
  O   O13       1.0  0.2970091104029606  0.13933335307368108  0.051356286654034  1.0000
  O   O14       1.0  0.7970128261532137  0.6393333903195713  0.44864359774391  1.0000
  O   O15       1.0  0.20299336397141587  0.1393258012132677  0.5513624807811155  1.0000
  O   O16       1.0  0.7029916552998897  0.6393271675872966  0.9486423392726877  1.0000
  O   O17       1.0  0.39200201146310576  0.16079370041872215  0.9707450086503685  1.0000
  O   O18       1.0  0.8920050109324221  0.6607938724399319  0.529252081089659  1.0000
  O   O19       1.0  0.10799887458628628  0.16077453468413694  0.47075264964569646  1.0000
  O   O20       1.0  0.6080026490325778  0.6607846750920814  0.029254899795851896  1.0000
  O   O21       1.0  0.6257480391086928  0.4459438700540942  0.9821899971380502  1.0000
  O   O22       1.0  0.12575161727273348  0.9459423951774396  0.5178060472700423  1.0000
  O   O23       1.0  0.8742509864822237  0.4459435024679195  0.48218904361333864  1.0000
  O   O24       1.0  0.37425223983046857  0.945948673168914  0.0178090392483767  1.0000
  O   O25       1.0  0.6071499195011112  0.5561499678134396  0.3902021454240341  1.0000
  O   O26       1.0  0.10714899038484298  0.056148397463921605  0.1097954852508565  1.0000
  O   O27       1.0  0.8928431729922364  0.5561498619497273  0.8901975681508815  1.0000
  O   O28       1.0  0.3928484431978205  0.0561496207011416  0.6098014292948477  1.0000
  O   O29       1.0  0.4015944076856002  0.2285090165249599  0.5208709902754904  1.0000
  O   O30       1.0  0.9015867068982074  0.728512270149487  0.9791290082982728  1.0000
  O   O31       1.0  0.0984226668372514  0.22851576173433594  0.0208681667999002  1.0000
  O   O32       1.0  0.5984126412187223  0.7285103760886499  0.4791310071154058  1.0000
  O   O33       1.0  0.2242289972112488  0.18466196061373802  0.1886682395005295  1.0000
  O   O34       1.0  0.7242298448437837  0.684663806265391  0.3113324463241298  1.0000
  O   O35       1.0  0.27577251325445923  0.1846710747894349  0.6886735632597834  1.0000
  O   O36       1.0  0.7757702612609164  0.6846682685462895  0.8113285639266437  1.0000
  O   O37       1.0  0.1953831125842953  0.3233434902924728  0.1110479360486636  1.0000
  O   O38       1.0  0.6953809652754899  0.8233437358895017  0.3889531484679054  1.0000
  O   O39       1.0  0.3046137739278619  0.32334332129467197  0.611047827952568  1.0000
  O   O40       1.0  0.8046139514219559  0.8233442314548967  0.8889508484192844  1.0000
  O   O41       1.0  0.022320515901263605  0.20911306378377503  0.14674743140307098  1.0000
  O   O42       1.0  0.5223190332278591  0.7091160922262106  0.3532531004534433  1.0000
  O   O43       1.0  0.47768877234180707  0.2091196641860975  0.6467528719286335  1.0000
  O   O44       1.0  0.9776857399099865  0.7091193698536599  0.853248019649584  1.0000
