data_image0
_chemical_formula_structural       Cu2H24C40N20
_chemical_formula_sum              "Cu2 H24 C40 N20"
_cell_length_a       7.3000182372603835
_cell_length_b       9.814316455236751
_cell_length_c       14.49094257015628
_cell_angle_alpha    102.61439474370505
_cell_angle_beta     89.96671954449826
_cell_angle_gamma    111.745130065475

_space_group_name_H-M_alt    "P 1"
_space_group_IT_number       1

loop_
  _space_group_symop_operation_xyz
  'x, y, z'

loop_
  _atom_site_type_symbol
  _atom_site_label
  _atom_site_symmetry_multiplicity
  _atom_site_fract_x
  _atom_site_fract_y
  _atom_site_fract_z
  _atom_site_occupancy
  Cu  Cu1       1.0  0.6116109824013947  0.00013065570128389443  0.750018307164801  1.0000
  Cu  Cu2       1.0  0.3883949412082258  0.9998728488281896  0.2499873298635364  1.0000
  H   H1        1.0  0.45484802681205133  0.6883134269230878  0.6137922613769008  1.0000
  H   H2        1.0  0.2333159380679887  0.6879834115920217  0.11371190691907877  1.0000
  H   H3        1.0  0.5451496448220183  0.3116900060994254  0.3862085358805558  1.0000
  H   H4        1.0  0.7666726242117864  0.31201549016955  0.8862868686604843  1.0000
  H   H5        1.0  0.31306856522002147  0.4283465290958545  0.508608625610087  1.0000
  H   H6        1.0  0.11535923889608311  0.42802094534129514  0.008439148507939392  1.0000
  H   H7        1.0  0.6869269001203904  0.5716579681053487  0.4913881822113026  1.0000
  H   H8        1.0  0.884623308366038  0.5719823657862335  0.9915533522402316  1.0000
  H   H9        1.0  0.2085748860308385  0.20458497556279556  0.5784585950269944  1.0000
  H   H10       1.0  0.9960150841311306  0.20420629695410494  0.0782871695220138  1.0000
  H   H11       1.0  0.7914258288761715  0.7954218088696834  0.4215406068343697  1.0000
  H   H12       1.0  0.003982531404403756  0.7957970146137614  0.9217060192027378  1.0000
  H   H13       1.0  0.23981329562909084  0.23752864822714062  0.7543685490099606  1.0000
  H   H14       1.0  0.9971362286415941  0.2370987612711276  0.25418460532264936  1.0000
  H   H15       1.0  0.7601854051712138  0.7624713532049086  0.2456290008387114  1.0000
  H   H16       1.0  0.0028708959867813277  0.7628988991270589  0.7458077803757704  1.0000
  H   H17       1.0  0.46845074037274514  0.648708563136502  0.008796008748433311  1.0000
  H   H18       1.0  0.17983650843858365  0.6483175755022047  0.5087279738235182  1.0000
  H   H19       1.0  0.5315525907661964  0.3512869967693176  0.9912057412143653  1.0000
  H   H20       1.0  0.8201559935537264  0.3516700013970038  0.49126712435724335  1.0000
  H   H21       1.0  0.5607587736086617  0.8769336465637638  0.93833129071016  1.0000
  H   H22       1.0  0.31574604293498243  0.8765050640613268  0.4382438411080898  1.0000
  H   H23       1.0  0.4392344190097433  0.12306081367157867  0.06167168498353701  1.0000
  H   H24       1.0  0.6842460031552023  0.12348709501023342  0.5617560478495065  1.0000
  C   C1        1.0  0.4222093002163021  0.6096616748068442  0.7428129504547273  1.0000
  C   C2        1.0  0.18693275367947135  0.6092754146615889  0.24269902418176062  1.0000
  C   C3        1.0  0.5777812098068652  0.3903383876142215  0.25718805984056564  1.0000
  C   C4        1.0  0.8130654044559336  0.39072350243655773  0.7573011324076121  1.0000
  C   C5        1.0  0.40631435435404495  0.5885809866509392  0.6428624693726449  1.0000
  C   C6        1.0  0.18199562622174884  0.5882310306137343  0.14275139919051577  1.0000
  C   C7        1.0  0.5936830842290989  0.4114247264164206  0.3571400315884361  1.0000
  C   C8        1.0  0.8179970237967924  0.4117678240913278  0.8572446086385526  1.0000
  C   C9        1.0  0.32997148828615513  0.44480138560163596  0.5854697538689706  1.0000
  C   C10       1.0  0.11463120958590879  0.4444274373691997  0.08530772837251989  1.0000
  C   C11       1.0  0.6700308392509342  0.5552031399049325  0.4145291273212451  1.0000
  C   C12       1.0  0.8853628863750914  0.5555770607957343  0.9146890797859798  1.0000
  C   C13       1.0  0.2690468501992101  0.31708673977248475  0.6252464252808991  1.0000
  C   C14       1.0  0.047727803144333246  0.316697653358723  0.12507346568816757  1.0000
  C   C15       1.0  0.730959037711344  0.6829166874676673  0.37475436995389094  1.0000
  C   C16       1.0  0.9522766235241563  0.6833000972975682  0.8749244541628158  1.0000
  C   C17       1.0  0.2847023931075228  0.3340909020923277  0.722204637172439  1.0000
  C   C18       1.0  0.04868934524647273  0.33369181464998127  0.22203102907372602  1.0000
  C   C19       1.0  0.715296069541985  0.665911368343238  0.277793924695068  1.0000
  C   C20       1.0  0.9513119922502682  0.6663024852243636  0.7779622610102168  1.0000
  C   C21       1.0  0.36152027465791303  0.480185577078565  0.7833141688006435  1.0000
  C   C22       1.0  0.11791295959815778  0.4797870291814661  0.28319419769445636  1.0000
  C   C23       1.0  0.6384727104739412  0.5198166972119082  0.21668439441530293  1.0000
  C   C24       1.0  0.8820871003818241  0.5202129492041934  0.71680196844752  1.0000
  C   C25       1.0  0.45025775631199144  0.6350321189486933  0.9320725802231068  1.0000
  C   C26       1.0  0.18425356206605398  0.6346452594925579  0.4319851496199973  1.0000
  C   C27       1.0  0.5497458078778764  0.36496116091228004  0.0679274660360747  1.0000
  C   C28       1.0  0.8157505345889862  0.3653490826196588  0.5680109065288974  1.0000
  C   C29       1.0  0.5050619012653854  0.7631753863719483  0.8925598106817818  1.0000
  C   C30       1.0  0.2575765902751286  0.7627687978439327  0.39247170212468774  1.0000
  C   C31       1.0  0.4949373166354506  0.236820165383719  0.10744124860755731  1.0000
  C   C32       1.0  0.7424198786671425  0.23722673375652198  0.6075279744692922  1.0000
  C   C33       1.0  0.30131229825771305  0.06858748357533528  0.8748263742254069  1.0000
  C   C34       1.0  0.7664923989625124  0.06823285734441237  0.3749456835900419  1.0000
  C   C35       1.0  0.6986949232681425  0.9314103866081497  0.12517915348406208  1.0000
  C   C36       1.0  0.2335261841751475  0.9317740580969271  0.6250625057911847  1.0000
  C   C37       1.0  0.988999874585325  0.0707078335747866  0.875870527595467  1.0000
  C   C38       1.0  0.08093866416314911  0.0704399933407629  0.3756938080532849  1.0000
  C   C39       1.0  0.010998293749807233  0.929291105606026  0.12413101236349178  1.0000
  C   C40       1.0  0.9190612597284302  0.9295679536786636  0.624307629198036  1.0000
  N   N1        1.0  0.4926373428285801  0.7519538316000622  0.8001156140718991  1.0000
  N   N2        1.0  0.258822577184489  0.7515431672411381  0.3000187156440148  1.0000
  N   N3        1.0  0.5073559059534105  0.24804622889354988  0.1998853955491739  1.0000
  N   N4        1.0  0.7411804750047183  0.2484545733375469  0.699978512859289  1.0000
  N   N5        1.0  0.37779356793443947  0.4955632590075751  0.8791678783307617  1.0000
  N   N6        1.0  0.11708742110531027  0.49517797303559524  0.3790585018850905  1.0000
  N   N7        1.0  0.622201283277896  0.5044345204774601  0.12083142724957702  1.0000
  N   N8        1.0  0.8829172131147732  0.5048174423691949  0.6209342558383073  1.0000
  N   N9        1.0  0.4528736552907235  0.0710069181787318  0.8456399669670278  1.0000
  N   N10       1.0  0.6172294872114467  0.07049819406639558  0.34584907320378744  1.0000
  N   N11       1.0  0.5471312033885595  0.928994461848262  0.15437365028188307  1.0000
  N   N12       1.0  0.3827651972482257  0.9295020090007995  0.654160927982474  1.0000
  N   N13       1.0  0.14468344007701722  0.0679084794153795  0.9162905676930821  1.0000
  N   N14       1.0  0.9225164695980654  0.06755125513686272  0.4162657560912493  1.0000
  N   N15       1.0  0.855322107555317  0.9320860383944097  0.0837165550753696  1.0000
  N   N16       1.0  0.07749339546217732  0.9324601488872163  0.5837410009263451  1.0000
  N   N17       1.0  0.8413003919347235  0.07440339367179401  0.8461228921485643  1.0000
  N   N18       1.0  0.23243308079114666  0.07432488648575489  0.3458754149280026  1.0000
  N   N19       1.0  0.15872202375322067  0.9255864862356019  0.15387666905856176  1.0000
  N   N20       1.0  0.7675689881956771  0.9256818638590047  0.654121711541876  1.0000
