data_image0
_chemical_formula_structural       Zn2H32C40S2N6O20
_chemical_formula_sum              "Zn2 H32 C40 S2 N6 O20"
_cell_length_a       14.641022228859134
_cell_length_b       15.99140096951393
_cell_length_c       19.13230916992215
_cell_angle_alpha    90.25471384276295
_cell_angle_beta     89.96908393600204
_cell_angle_gamma    89.96704501523979

_space_group_name_H-M_alt    "P 1"
_space_group_IT_number       1

loop_
  _space_group_symop_operation_xyz
  'x, y, z'

loop_
  _atom_site_type_symbol
  _atom_site_label
  _atom_site_symmetry_multiplicity
  _atom_site_fract_x
  _atom_site_fract_y
  _atom_site_fract_z
  _atom_site_occupancy
  Zn  Zn1       1.0  0.40486979469992695  0.5062996050474738  0.5034615171807673  1.0000
  Zn  Zn2       1.0  0.5960333574388202  0.495237232124687  0.5053058773323471  1.0000
  H   H1        1.0  0.3565742659945671  0.5114385345280895  0.2828377314605533  1.0000
  H   H2        1.0  0.06674210305679648  0.5612077971417619  0.4006908792275398  1.0000
  H   H3        1.0  0.9217028751373917  0.6330688116863712  0.4950694734711193  1.0000
  H   H4        1.0  0.07867757878270959  0.6369105171585829  0.4679406935578643  1.0000
  H   H5        1.0  0.35364705359491927  0.4833341389971865  0.15356283124656045  1.0000
  H   H6        1.0  0.6443949307897443  0.44301745242448487  0.15637582667100255  1.0000
  H   H7        1.0  0.35084143582758287  0.44274006389539994  0.8516767492165659  1.0000
  H   H8        1.0  0.6440290344130019  0.4610676527517796  0.8558564188986326  1.0000
  H   H9        1.0  0.35301343297702914  0.46488603665205364  0.7217689137925875  1.0000
  H   H10       1.0  0.6449143860020216  0.4846521615727468  0.7261612116415253  1.0000
  H   H11       1.0  0.6372538527252019  0.0907211569920889  0.49572192338358445  1.0000
  H   H12       1.0  0.6457984984677196  0.4691346722208395  0.28582737255428736  1.0000
  H   H13       1.0  0.34900619510239755  0.0474601860251127  0.4863971342682875  1.0000
  H   H14       1.0  0.653118517781408  0.9506425915219837  0.47863502263859925  1.0000
  H   H15       1.0  0.36575653034856254  0.908882687245111  0.5192547142139361  1.0000
  H   H16       1.0  0.43178510919301527  0.07023382149099433  0.3819475270685332  1.0000
  H   H17       1.0  0.5514391232189838  0.07502737485148003  0.38340496629920306  1.0000
  H   H18       1.0  0.2721544959059656  0.9373098472289102  0.40694593612398233  1.0000
  H   H19       1.0  0.5468737451595944  0.8022351539647516  0.3424979246923671  1.0000
  H   H20       1.0  0.9779258356119057  0.3968997174933264  0.3668603578945665  1.0000
  H   H21       1.0  0.1599172502679878  0.3740028551267259  0.41937814050170635  1.0000
  H   H22       1.0  0.454570019633195  0.8725536588021329  0.611466838066747  1.0000
  H   H23       1.0  0.075369667718391  0.37349293803713124  0.5168499237378087  1.0000
  H   H24       1.0  0.5949843445762467  0.9519034988354138  0.61682740821351  1.0000
  H   H25       1.0  0.4076213227658912  0.049074404843523205  0.6239509391866634  1.0000
  H   H26       1.0  0.5583477024358103  0.13727870905579925  0.5983389085639106  1.0000
  H   H27       1.0  0.923306167802437  0.3633940913841371  0.4885915153688743  1.0000
  H   H28       1.0  0.9098406089194527  0.5471130166701245  0.6084699774368119  1.0000
  H   H29       1.0  0.0645235101805568  0.5828943885911573  0.5960348189008117  1.0000
  H   H30       1.0  0.933008941262962  0.43890624108352233  0.6029094737014449  1.0000
  H   H31       1.0  0.0871728003171697  0.47664358066577966  0.6141890761252073  1.0000
  H   H32       1.0  0.90969092605814  0.5824717015601236  0.41299054656138895  1.0000
  C   C1        1.0  0.48480644008702717  0.3384631075605641  0.49559363152710756  1.0000
  C   C2        1.0  0.5815783414073366  0.057502432998148806  0.5228708829951716  1.0000
  C   C3        1.0  0.5987539252379648  0.9615008162313643  0.5166246623856595  1.0000
  C   C4        1.0  0.4257584087802897  0.9460982422425419  0.5330144392438572  1.0000
  C   C5        1.0  0.5121237747568371  0.7530509727755118  0.500865280467359  1.0000
  C   C6        1.0  0.4903077775768239  0.08176259419429502  0.4865670868833052  1.0000
  C   C7        1.0  0.5087792666374895  0.9180059923019785  0.48562183412094145  1.0000
  C   C8        1.0  0.5019705104181185  0.501583871162872  0.3693940003152677  1.0000
  C   C9        1.0  0.497253537519093  0.9518162775978996  0.40920137004921037  1.0000
  C   C10       1.0  0.49211305267546374  0.048478089570132006  0.41059657519007703  1.0000
  C   C11       1.0  0.5147204513725114  0.8279002921112025  0.4906732755714174  1.0000
  C   C12       1.0  0.4973837547182853  0.4427956822453965  0.07219079689077293  1.0000
  C   C13       1.0  0.4818558743300869  0.17211794317835682  0.48692437202817734  1.0000
  C   C14       1.0  0.48148287027488124  0.2479986116393889  0.49039761039873053  1.0000
  C   C15       1.0  0.9525204887562283  0.42012247223715354  0.46448374015436417  1.0000
  C   C16       1.0  0.05829860308257649  0.4195996347279377  0.4762725069877123  1.0000
  C   C17       1.0  0.9473763091522828  0.49958656633254617  0.5784992656540242  1.0000
  C   C18       1.0  0.050821911030809006  0.5186678660580029  0.5784742109218544  1.0000
  C   C19       1.0  0.9122414948552661  0.49828463538396767  0.5021235576512028  1.0000
  C   C20       1.0  0.08807785807772459  0.5079387197956252  0.5031459166765091  1.0000
  C   C21       1.0  0.04804594584234681  0.5762033544904243  0.4548543834004166  1.0000
  C   C22       1.0  0.9433910028176912  0.5787040714546522  0.46394350516970945  1.0000
  C   C23       1.0  0.41490924881806274  0.45207552270834844  0.8237946648730914  1.0000
  C   C24       1.0  0.18667701617999913  0.5118996221295973  0.503443053800851  1.0000
  C   C25       1.0  0.813446532057732  0.49303563132441053  0.5021904456763553  1.0000
  C   C26       1.0  0.5087498519120359  0.6627073769469477  0.5070283591367543  1.0000
  C   C27       1.0  0.5002009348631874  0.48816104027338986  0.6390237477364806  1.0000
  C   C28       1.0  0.4189214774910893  0.49625424208819174  0.25435444972494287  1.0000
  C   C29       1.0  0.5825805086968571  0.4727796610589294  0.2560060689713808  1.0000
  C   C30       1.0  0.41743454575115635  0.4809624428804328  0.18278740393125767  1.0000
  C   C31       1.0  0.5817227727018944  0.4581838772242933  0.18440284103783006  1.0000
  C   C32       1.0  0.49882553785401745  0.4609738119330089  0.14729772757608126  1.0000
  C   C33       1.0  0.5011750512043776  0.49116947338075795  0.2915804362057771  1.0000
  C   C34       1.0  0.5805587382712434  0.46242353209515136  0.8261763011720124  1.0000
  C   C35       1.0  0.49674043176493404  0.4374929671408978  0.9373214107336455  1.0000
  C   C36       1.0  0.41609217850264457  0.464409107427251  0.7519497535237394  1.0000
  C   C37       1.0  0.5811354081805504  0.47527179694981925  0.7543854845104436  1.0000
  C   C38       1.0  0.4990541475326681  0.4760363285573277  0.7166499333788467  1.0000
  C   C39       1.0  0.49733398499250103  0.4505444154026678  0.8615503467032329  1.0000
  C   C40       1.0  0.40634714546084894  0.040464035075331105  0.5233225650721565  1.0000
  S   S1        1.0  0.3977142739661801  0.906052288408816  0.3582579284174231  1.0000
  S   S2        1.0  0.5943982489921851  0.9261897694418766  0.34626483202477953  1.0000
  N   N1        1.0  0.5774638270551906  0.42722168048162257  0.039096441922126204  1.0000
  N   N2        1.0  0.415704766025641  0.43367993697497553  0.039633793239573806  1.0000
  N   N3        1.0  0.5772263883697022  0.42382793672847907  0.9704137078036085  1.0000
  N   N4        1.0  0.4155591001537998  0.4317255605339767  0.9708659880461571  1.0000
  N   N5        1.0  0.265788119620801  0.5129993186588636  0.5034070273739533  1.0000
  N   N6        1.0  0.7345347990818283  0.48948364348215273  0.5041772182551015  1.0000
  O   O1        1.0  0.410847591611784  0.3779509473743874  0.4839948114783541  1.0000
  O   O2        1.0  0.42347179553138403  0.8223955460366597  0.3375528632044863  1.0000
  O   O3        1.0  0.3164653717352124  0.8923124768019975  0.4146363011698854  1.0000
  O   O4        1.0  0.5605444451038936  0.9483330824469365  0.27834275473199455  1.0000
  O   O5        1.0  0.6774884609532776  0.9631046069442776  0.37156794761776285  1.0000
  O   O6        1.0  0.6071265937741118  0.8282644043202156  0.3533824611933128  1.0000
  O   O7        1.0  0.9289142962349359  0.4243604622535742  0.3931259353054416  1.0000
  O   O8        1.0  0.099190663910008  0.3969794827415143  0.41155279402595835  1.0000
  O   O9        1.0  0.4462667600541437  0.932598132865543  0.6050793662628424  1.0000
  O   O10       1.0  0.6294509616030339  0.9252268441182565  0.5790391248237443  1.0000
  O   O11       1.0  0.37846003353836716  0.07980750742198948  0.5858886179197569  1.0000
  O   O12       1.0  0.5621886924444867  0.36901342803553655  0.5116388872794746  1.0000
  O   O13       1.0  0.580744040277139  0.0798527262896158  0.595044623200444  1.0000
  O   O14       1.0  0.42739206382175615  0.5229802012883411  0.3989760283182236  1.0000
  O   O15       1.0  0.577197147798131  0.48644768668400223  0.40023657035989413  1.0000
  O   O16       1.0  0.4306491478374995  0.6316441305135286  0.5204626318408645  1.0000
  O   O17       1.0  0.5834903755393412  0.6240172841827913  0.4974975263392381  1.0000
  O   O18       1.0  0.42391402973822073  0.4825394780284711  0.6072152220593099  1.0000
  O   O19       1.0  0.5773445918208325  0.5025126396631306  0.610702859757403  1.0000
  O   O20       1.0  0.3641425774212977  0.966539010808596  0.30924688111007015  1.0000
