data_image0
_chemical_formula_structural       Al2H17C26O10F
_chemical_formula_sum              "Al2 H17 C26 O10 F1"
_cell_length_a       7.240831301939203
_cell_length_b       11.092152641248799
_cell_length_c       15.007222859957865
_cell_angle_alpha    81.72580912138937
_cell_angle_beta     77.65969176888085
_cell_angle_gamma    71.58883524960393

_space_group_name_H-M_alt    "P 1"
_space_group_IT_number       1

loop_
  _space_group_symop_operation_xyz
  'x, y, z'

loop_
  _atom_site_type_symbol
  _atom_site_label
  _atom_site_symmetry_multiplicity
  _atom_site_fract_x
  _atom_site_fract_y
  _atom_site_fract_z
  _atom_site_occupancy
  Al  Al1       1.0  0.5050839708789708  0.4855074945566996  0.49958119925767625  1.0000
  Al  Al2       1.0  0.005226876822824491  0.48466420520797737  0.5011069643013002  1.0000
  H   H1        1.0  0.21390556217141923  0.6310784230816111  0.4312004235197833  1.0000
  H   H2        1.0  0.7550966384802749  0.38428429713338363  0.6046323417920263  1.0000
  H   H3        1.0  0.1450599529793877  0.09688703474274972  0.5193978768772425  1.0000
  H   H4        1.0  0.7435711210491078  0.11461755896829123  0.4751455166327716  1.0000
  H   H5        1.0  0.2738787100494022  0.8585404618271752  0.5201732053155794  1.0000
  H   H6        1.0  0.8098417633995607  0.5688549510044469  0.7587061410364626  1.0000
  H   H7        1.0  0.42441708695808683  0.455496301641432  0.7823701764008817  1.0000
  H   H8        1.0  0.1380832418025832  0.5488362859218583  0.2373636235454484  1.0000
  H   H9        1.0  0.6271675152012507  0.43975764165641357  0.2209353914118708  1.0000
  H   H10       1.0  0.6061359196448207  0.6578122777274089  0.9856468717683667  1.0000
  H   H11       1.0  0.566118305552287  0.5701664522367978  0.9056911594789625  1.0000
  H   H12       1.0  0.32361171454463994  0.3677756838442648  0.018233627885990717  1.0000
  H   H13       1.0  0.499264825194672  0.4295902322934139  0.9438684706022613  1.0000
  H   H14       1.0  0.2535313522635008  0.6563683313171182  0.004104586101114197  1.0000
  H   H15       1.0  0.37862605751486456  0.5590683156162584  0.08994001620216349  1.0000
  H   H16       1.0  0.8066363982474061  0.3700151531856975  0.9892657506356812  1.0000
  H   H17       1.0  0.5762161702821444  0.4232563114566903  0.05985270779635242  1.0000
  C   C1        1.0  0.8271669291581534  0.4854437135060863  0.3403971217370341  1.0000
  C   C2        1.0  0.6476103260842905  0.7096623337894103  0.5005232123374839  1.0000
  C   C3        1.0  0.17838800771047394  0.4997531383742458  0.6604565437876032  1.0000
  C   C4        1.0  0.3636324526106948  0.2623033336609595  0.49791688995345845  1.0000
  C   C5        1.0  0.5789735660472247  0.8519217570620797  0.4991096409695927  1.0000
  C   C6        1.0  0.4360045197004753  0.12010659080250724  0.49763353714905634  1.0000
  C   C7        1.0  0.707894543358293  0.9273711528371676  0.4862321657966575  1.0000
  C   C8        1.0  0.30314753522557675  0.048048418254147386  0.5100883731751865  1.0000
  C   C9        1.0  0.6395883243127402  0.0591431337897532  0.48545422659227466  1.0000
  C   C10       1.0  0.3748074412852845  0.9161434715431866  0.5106830791669665  1.0000
  C   C11       1.0  0.6668239405537973  0.5689940734370681  0.9507072352845399  1.0000
  C   C12       1.0  0.34608340479316274  0.45521933475480136  0.9779295410567669  1.0000
  C   C13       1.0  0.2771124393410958  0.5633672391560867  0.044520197734222174  1.0000
  C   C14       1.0  0.7031310005789139  0.45311196723653774  0.024260951985979825  1.0000
  C   C15       1.0  0.9212401469114013  0.5523565486885147  0.8014048174254212  1.0000
  C   C16       1.0  0.8675839487741895  0.5597737870129721  0.8955724156317828  1.0000
  C   C17       1.0  0.26915645651686043  0.4874796802172128  0.8146701620745133  1.0000
  C   C18       1.0  0.21375971445797154  0.49427898327452613  0.9089807032924568  1.0000
  C   C19       1.0  0.04156735089794234  0.5357963742841251  0.19519509612408828  1.0000
  C   C20       1.0  0.08699620437614897  0.5494648485492348  0.10018560408420289  1.0000
  C   C21       1.0  0.7529261638383673  0.47289054494970645  0.1861440803843735  1.0000
  C   C22       1.0  0.8010636126592059  0.4858326410710419  0.09106239372693642  1.0000
  C   C23       1.0  0.12231290578016284  0.5168655191918816  0.7604609545278223  1.0000
  C   C24       1.0  0.01429238090636886  0.5339771244474819  0.9486445043154105  1.0000
  C   C25       1.0  0.8724880335391988  0.4996365957460611  0.2384552420155828  1.0000
  C   C26       1.0  0.9621139150304076  0.5289485266054187  0.04863130692027795  1.0000
  O   O1        1.0  0.6544476963737084  0.4786029277175246  0.3778528231201861  1.0000
  O   O2        1.0  0.8299411702194418  0.6553263419273564  0.5032783341453992  1.0000
  O   O3        1.0  0.041207437183587096  0.49151384487149125  0.6222552846463002  1.0000
  O   O4        1.0  0.4944368227122738  0.3168218652534094  0.4979150309943279  1.0000
  O   O5        1.0  0.357572648455502  0.49207144479965603  0.6230139824484268  1.0000
  O   O6        1.0  0.1791274440847062  0.3145845515941517  0.4989676208705802  1.0000
  O   O7        1.0  0.9667685969362267  0.48270744157479584  0.3809914398944514  1.0000
  O   O8        1.0  0.5150192442991469  0.6569201382521543  0.4986439267134982  1.0000
  O   O9        1.0  0.24577807629658813  0.5437289334366541  0.45826479141405935  1.0000
  O   O10       1.0  0.7628933563619925  0.4272632702504708  0.5435020630397106  1.0000
  F   F1        1.0  0.9078366689869811  0.8744618247682822  0.4725820171948456  1.0000
