data_image0
_chemical_formula_structural       Cd2H24C16N20O4
_chemical_formula_sum              "Cd2 H24 C16 N20 O4"
_cell_length_a       8.74143665560779
_cell_length_b       9.253593081438895
_cell_length_c       10.488793000865074
_cell_angle_alpha    63.83638271490032
_cell_angle_beta     79.38871687525253
_cell_angle_gamma    65.33106487701487

_space_group_name_H-M_alt    "P 1"
_space_group_IT_number       1

loop_
  _space_group_symop_operation_xyz
  'x, y, z'

loop_
  _atom_site_type_symbol
  _atom_site_label
  _atom_site_symmetry_multiplicity
  _atom_site_fract_x
  _atom_site_fract_y
  _atom_site_fract_z
  _atom_site_occupancy
  Cd  Cd1       1.0  0.09348544289876064  0.10248701649811652  0.2608316645790297  1.0000
  Cd  Cd2       1.0  0.5935633130556753  0.363501145347861  0.7391172066001205  1.0000
  H   H1        1.0  0.5154343149472354  0.0037721533359089477  0.21052955199009923  1.0000
  H   H2        1.0  0.015490686864346547  0.21463251737364408  0.7892730831446003  1.0000
  H   H3        1.0  0.1836955728174844  0.6201715774070846  0.7026874739150202  1.0000
  H   H4        1.0  0.6837026746314552  0.32307545251043696  0.2973149817988699  1.0000
  H   H5        1.0  0.654087810344713  0.7815454582588967  0.748954622665373  1.0000
  H   H6        1.0  0.1541426248631695  0.5300787357640714  0.2514521841970562  1.0000
  H   H7        1.0  0.6728506081755582  0.9513453908975221  0.5863979168384079  1.0000
  H   H8        1.0  0.17294792237959927  0.5371693196311893  0.4141030038917536  1.0000
  H   H9        1.0  0.7875071499734003  0.8876042527025516  0.7391067573672458  1.0000
  H   H10       1.0  0.28747483586855815  0.6263744759549466  0.26133549050651794  1.0000
  H   H11       1.0  0.8337395296295255  0.662766560160051  0.5772216445077377  1.0000
  H   H12       1.0  0.33410137682593444  0.2395593843442824  0.4228580142227117  1.0000
  H   H13       1.0  0.9511944852947567  0.5891491336592761  0.7311519226902164  1.0000
  H   H14       1.0  0.4514011766156044  0.3202593361598717  0.26890707189433977  1.0000
  H   H15       1.0  0.8642635426235757  0.550567339219171  0.2114300320711352  1.0000
  H   H16       1.0  0.3645202822610543  0.7623111456031636  0.7881748108237829  1.0000
  H   H17       1.0  0.7860344835806718  0.6749749648348667  0.03570288552658226  1.0000
  H   H18       1.0  0.2861103844575228  0.7107118834813091  0.9638788746068557  1.0000
  H   H19       1.0  0.6446065515449108  0.6761919434164766  0.1817986877501951  1.0000
  H   H20       1.0  0.14481471506304205  0.8581180488278757  0.8177442929327513  1.0000
  H   H21       1.0  0.9252195859642287  0.8221283650400932  0.10218773687935102  1.0000
  H   H22       1.0  0.42503595187109516  0.9243251102622378  0.8980492909053126  1.0000
  H   H23       1.0  0.7854862827641118  0.8241277332746361  0.2482861646103914  1.0000
  H   H24       1.0  0.2856599910834562  0.07250850109833348  0.7517641830079996  1.0000
  C   C1        1.0  0.7421981560748353  0.8399759057093306  0.680295061582399  1.0000
  C   C2        1.0  0.24223865415780926  0.5198742695745223  0.32010570064764465  1.0000
  C   C3        1.0  0.8864917250631877  0.7039017045361146  0.6368129870371108  1.0000
  C   C4        1.0  0.38668367972260154  0.3404438597070437  0.36335607955042803  1.0000
  C   C5        1.0  0.009504987099269542  0.7785656425472282  0.5393233221830301  1.0000
  C   C6        1.0  0.5096827229336683  0.31765336187171994  0.46084127513425  1.0000
  C   C7        1.0  0.3032732570319467  0.7505698810888575  0.5296473456769135  1.0000
  C   C8        1.0  0.8033722593934414  0.28036904606673113  0.47031867281823037  1.0000
  C   C9        1.0  0.7708343275259536  0.6734601480946337  0.14236548975338073  1.0000
  C   C10       1.0  0.2709671080578887  0.8159635768960025  0.8572968696215286  1.0000
  C   C11       1.0  0.7981150621164445  0.8276949124753159  0.14086077306686906  1.0000
  C   C12       1.0  0.29805763254177736  0.9686168618580236  0.8591363376393987  1.0000
  C   C13       1.0  0.6752756584617005  0.996687205058265  0.039975047774959256  1.0000
  C   C14       1.0  0.17493797443691525  0.03663840407792644  0.9599749726304553  1.0000
  C   C15       1.0  0.3937259334480032  0.22093844252155753  0.03405924772594906  1.0000
  C   C16       1.0  0.8936438003320292  0.25527101875297115  0.9658041494625637  1.0000
  N   N1        1.0  0.22796319684286465  0.4598561187831648  0.88184778271431  1.0000
  N   N2        1.0  0.727855092139443  0.34185999928372  0.11813581699502863  1.0000
  N   N3        1.0  0.385228503665985  0.3358443678957526  0.8985456354253859  1.0000
  N   N4        1.0  0.8851008721006224  0.23453994204418643  0.1013844064235272  1.0000
  N   N5        1.0  0.14435730003554428  0.4222164544304121  0.0004675098263717508  1.0000
  N   N6        1.0  0.6442913219730146  0.42296709034589225  0.9994987578642809  1.0000
  N   N7        1.0  0.24527554937814958  0.2713902256670976  0.09977279648983031  1.0000
  N   N8        1.0  0.7452220853474288  0.37152881457006964  0.9001231220102428  1.0000
  N   N9        1.0  0.5306140191190707  0.07327130891041374  0.1020682525607342  1.0000
  N   N10       1.0  0.030561155162018783  0.17560501637387194  0.8977877994453395  1.0000
  N   N11       1.0  0.30584394521012115  0.8851716142767785  0.40762824454461816  1.0000
  N   N12       1.0  0.8059720509064902  0.2930650689239939  0.5922923171328662  1.0000
  N   N13       1.0  0.4690969581143069  0.8672890224298582  0.38558684658615755  1.0000
  N   N14       1.0  0.9692349064117282  0.25310346361916175  0.6142972280557758  1.0000
  N   N15       1.0  0.16539687194346442  0.7126247906967931  0.5970729262517409  1.0000
  N   N16       1.0  0.6654599596755449  0.3098376989249728  0.4029543007372853  1.0000
  N   N17       1.0  0.4610338192914726  0.6518900815270142  0.5819784565670789  1.0000
  N   N18       1.0  0.9611252904169019  0.2339698189847538  0.41793718562593096  1.0000
  N   N19       1.0  0.5615304401081715  0.72871911156556  0.4885225983261919  1.0000
  N   N20       1.0  0.061650568729902495  0.21737483142487676  0.511358072097906  1.0000
  O   O1        1.0  0.7037290983023964  0.05607907093460782  0.9098196782080523  1.0000
  O   O2        1.0  0.20301020685062096  0.9656076311804253  0.0902192173398148  1.0000
  O   O3        1.0  0.969124215396292  0.8917328382706696  0.4162235615593488  1.0000
  O   O4        1.0  0.469391153070987  0.30746087715014875  0.5840465570676088  1.0000
