data_image0
_chemical_formula_structural       Mn6H6C24O18
_chemical_formula_sum              "Mn6 H6 C24 O18"
_cell_length_a       7.053736387541169
_cell_length_b       15.36357768847121
_cell_length_c       15.363663735757388
_cell_angle_alpha    117.70157566650917
_cell_angle_beta     98.80645189985614
_cell_angle_gamma    98.80381188779879

_space_group_name_H-M_alt    "P 1"
_space_group_IT_number       1

loop_
  _space_group_symop_operation_xyz
  'x, y, z'

loop_
  _atom_site_type_symbol
  _atom_site_label
  _atom_site_symmetry_multiplicity
  _atom_site_fract_x
  _atom_site_fract_y
  _atom_site_fract_z
  _atom_site_occupancy
  Mn  Mn1       1.0  0.020561717322493695  0.41091395828205185  0.7386021493702586  1.0000
  Mn  Mn2       1.0  0.6097102958336862  0.3276957728426097  0.5890989174695136  1.0000
  Mn  Mn3       1.0  0.28197419565159976  0.2613976215346199  0.672286899816001  1.0000
  Mn  Mn4       1.0  0.9794377871918912  0.5890862281195907  0.2613973632113868  1.0000
  Mn  Mn5       1.0  0.39028958918495255  0.672305174114783  0.4109022771832472  1.0000
  Mn  Mn6       1.0  0.718024928647118  0.7386018043184561  0.3277128833773871  1.0000
  H   H1        1.0  0.691930733009741  0.5305468989789971  0.5530069936838871  1.0000
  H   H2        1.0  0.16136845428017213  0.022451202951920397  0.4694465800319065  1.0000
  H   H3        1.0  0.1388790169060242  0.4470087159354249  0.9775551161450835  1.0000
  H   H4        1.0  0.3080702061143369  0.4694532874407145  0.44699261970128384  1.0000
  H   H5        1.0  0.8386314305460729  0.977549744000676  0.5305533128322749  1.0000
  H   H6        1.0  0.8611201073926863  0.5529907099176581  0.02244466704831178  1.0000
  C   C1        1.0  0.23931271872950075  0.3926264294673698  0.5636286833943699  1.0000
  C   C2        1.0  0.8466511717697714  0.17100066302700156  0.6073925241064727  1.0000
  C   C3        1.0  0.675640964886604  0.4363899793373349  0.8290003110115478  1.0000
  C   C4        1.0  0.7606864055692169  0.6073729963857061  0.4363710997990252  1.0000
  C   C5        1.0  0.15334833274461335  0.8289995233746337  0.39260698847516534  1.0000
  C   C6        1.0  0.32435997433366737  0.5636102070847782  0.17099995326790907  1.0000
  C   C7        1.0  0.1140640694781325  0.4485909913032629  0.5343857277170089  1.0000
  C   C8        1.0  0.6654618473725904  0.0857989432262372  0.5514181355047256  1.0000
  C   C9        1.0  0.5796698238354808  0.46562597493615226  0.9141989836371421  1.0000
  C   C10       1.0  0.8859368697421387  0.5514091951188432  0.46561453656245533  1.0000
  C   C11       1.0  0.3345394721595411  0.9142020037468299  0.44858250905727454  1.0000
  C   C12       1.0  0.42032968077509736  0.5343742114678847  0.08580117983878924  1.0000
  C   C13       1.0  0.9363528241467662  0.46623068320122474  0.5659486297480143  1.0000
  C   C14       1.0  0.47010207853589486  0.0997159599104123  0.5337731233602411  1.0000
  C   C15       1.0  0.3703824763406303  0.4340706165652506  0.9002733404074945  1.0000
  C   C16       1.0  0.06364811497731182  0.5337695032184868  0.4340509836371568  1.0000
  C   C17       1.0  0.5298974260746832  0.9002842264936249  0.4662270401156903  1.0000
  C   C18       1.0  0.6296180825677808  0.5659288093059018  0.09972654358942623  1.0000
  C   C19       1.0  0.8278337555177728  0.5169940597870165  0.529832362841951  1.0000
  C   C20       1.0  0.3108312759394495  0.012836007202793098  0.48300085111900865  1.0000
  C   C21       1.0  0.29797933024384793  0.4701822347543754  0.9871608960811215  1.0000
  C   C22       1.0  0.17216718370249848  0.4830061266350895  0.4701679014375131  1.0000
  C   C23       1.0  0.6891682286711285  0.9871641792012439  0.5169993123569299  1.0000
  C   C24       1.0  0.7020216088802301  0.5298179516653362  0.012838717304049284  1.0000
  O   O1        1.0  0.39203505475845896  0.37652060924094854  0.5297522838335809  1.0000
  O   O2        1.0  0.015474268131050845  0.15324771604726803  0.6235179114396061  1.0000
  O   O3        1.0  0.8622173325503013  0.4703141689466506  0.8467781220230322  1.0000
  O   O4        1.0  0.6079655040537589  0.6234788166278022  0.47024694926905397  1.0000
  O   O5        1.0  0.9845262907773602  0.8467517098238773  0.3764819725573147  1.0000
  O   O6        1.0  0.13778255227595082  0.5296867780059458  0.1532217708411565  1.0000
  O   O7        1.0  0.18935777693893383  0.36072269735907264  0.6233822392109047  1.0000
  O   O8        1.0  0.8286055086170591  0.2626659883316265  0.6392939519104388  1.0000
  O   O9        1.0  0.5659297729377073  0.3766033771175898  0.7373382486803949  1.0000
  O   O10       1.0  0.8106417276716442  0.6392774890449644  0.37661792426502677  1.0000
  O   O11       1.0  0.17139399589732557  0.737334198070016  0.3607055606712065  1.0000
  O   O12       1.0  0.43407116628256387  0.6233968093045231  0.26266201559906205  1.0000
  O   O13       1.0  0.8676038996154104  0.4372137573799719  0.6283787004980823  1.0000
  O   O14       1.0  0.4303535395626739  0.19115740655080063  0.5627718548444207  1.0000
  O   O15       1.0  0.23916998469604775  0.3716332510138328  0.8088311633851859  1.0000
  O   O16       1.0  0.1323970396048608  0.5627864290421343  0.3716215637813818  1.0000
  O   O17       1.0  0.5696473996575904  0.8088427798713055  0.4372284094350434  1.0000
  O   O18       1.0  0.7608295199145303  0.6283669353902043  0.19116900009074558  1.0000
