data_image0
_chemical_formula_structural       Dy4H52C40O40
_chemical_formula_sum              "Dy4 H52 C40 O40"
_cell_length_a       6.576456290124559
_cell_length_b       12.00740404007921
_cell_length_c       19.193188223646402
_cell_angle_alpha    71.756721284823
_cell_angle_beta     79.78359703723926
_cell_angle_gamma    74.00831393377082

_space_group_name_H-M_alt    "P 1"
_space_group_IT_number       1

loop_
  _space_group_symop_operation_xyz
  'x, y, z'

loop_
  _atom_site_type_symbol
  _atom_site_label
  _atom_site_symmetry_multiplicity
  _atom_site_fract_x
  _atom_site_fract_y
  _atom_site_fract_z
  _atom_site_occupancy
  Dy  Dy1       1.0  0.1344927666701778  0.8269185771846208  0.01571726482478652  1.0000
  Dy  Dy2       1.0  0.9782939233281518  0.6728289007861433  0.48508406733396475  1.0000
  Dy  Dy3       1.0  0.8655108557602486  0.1730799888879915  0.9842825534971241  1.0000
  Dy  Dy4       1.0  0.021702831644773744  0.3271741764781453  0.5149168942059319  1.0000
  H   H1        1.0  0.9068187921381178  0.7704745469041043  0.6484514768423183  1.0000
  H   H2        1.0  0.3260210494709877  0.728931884975772  0.8526325692905985  1.0000
  H   H3        1.0  0.09318072975133856  0.2295231169301744  0.3515498863802408  1.0000
  H   H4        1.0  0.6739835050466355  0.2710666810968405  0.14736785881420644  1.0000
  H   H5        1.0  0.27011827781244335  0.5545986870395154  0.06289830762558068  1.0000
  H   H6        1.0  0.8879178369353293  0.9450441312843124  0.437779096598206  1.0000
  H   H7        1.0  0.7298844125307865  0.4453998790330971  0.9371009009134428  1.0000
  H   H8        1.0  0.11207832423571766  0.054957141503308486  0.5622204312031087  1.0000
  H   H9        1.0  0.04859608151820538  0.5931856161801363  0.03008240251382691  1.0000
  H   H10       1.0  0.672131370391483  0.9054755668344683  0.4707844899507025  1.0000
  H   H11       1.0  0.9514044422159812  0.4068156566074848  0.9699173883346294  1.0000
  H   H12       1.0  0.32786874986163644  0.0945211947614766  0.5292137192678723  1.0000
  H   H13       1.0  0.6717886480688336  0.7734663692252397  0.075414101839101  1.0000
  H   H14       1.0  0.521924429444354  0.7261719379069119  0.42552688826365437  1.0000
  H   H15       1.0  0.3282131460378749  0.22653309908571367  0.9245854748365689  1.0000
  H   H16       1.0  0.4780656483918758  0.2738329438340514  0.5744750686029223  1.0000
  H   H17       1.0  0.8422738780096701  0.7495164526044532  0.13209386274697724  1.0000
  H   H18       1.0  0.7273323940839803  0.7492674348237998  0.3690150514334719  1.0000
  H   H19       1.0  0.15772843819755838  0.2504830157065001  0.8679051918281788  1.0000
  H   H20       1.0  0.2726567158143779  0.2507365446788228  0.6309853177306552  1.0000
  H   H21       1.0  0.5880682315892756  0.0771440844161617  0.8608559338372929  1.0000
  H   H22       1.0  0.5254677829626572  0.4220589732888982  0.6400052126977018  1.0000
  H   H23       1.0  0.4119357649771517  0.922853579418117  0.1391440384484852  1.0000
  H   H24       1.0  0.4745376612858645  0.5779432017370567  0.35999529701692984  1.0000
  H   H25       1.0  0.7243393015320123  0.8310084235602843  0.8302559987511419  1.0000
  H   H26       1.0  0.38317035293143686  0.6685171037799051  0.6700622313625219  1.0000
  H   H27       1.0  0.2756628667107037  0.1689901425123281  0.16974373188838854  1.0000
  H   H28       1.0  0.6168299107244124  0.3314832667693821  0.32993988953423786  1.0000
  H   H29       1.0  0.3484538107594373  0.0327413269637091  0.7665384417789272  1.0000
  H   H30       1.0  0.1456097411146047  0.4665212784715109  0.7361472862212893  1.0000
  H   H31       1.0  0.6515471653177372  0.9672563368705696  0.23346300912601242  1.0000
  H   H32       1.0  0.8543933233646256  0.5334763853627678  0.26385207628159435  1.0000
  H   H33       1.0  0.4429747769974879  0.8889799433431165  0.7508783630959359  1.0000
  H   H34       1.0  0.08073421224763391  0.610563628763785  0.751269605794967  1.0000
  H   H35       1.0  0.557024892856482  0.11101862272949599  0.24912232406224183  1.0000
  H   H36       1.0  0.9192653096418226  0.38943403507049357  0.24873175742759204  1.0000
  H   H37       1.0  0.5381360242749835  0.0597678763091878  0.6464781861339546  1.0000
  H   H38       1.0  0.24380897916515185  0.4403103525814913  0.8550990864858508  1.0000
  H   H39       1.0  0.4618547301318966  0.9402333964784333  0.3535221228212464  1.0000
  H   H40       1.0  0.7561924831618468  0.5596864090144464  0.14490086439903396  1.0000
  H   H41       1.0  0.5694308366936766  0.180283459760112  0.7245452809308051  1.0000
  H   H42       1.0  0.4744881095874684  0.3195006394331372  0.7766681606301945  1.0000
  H   H43       1.0  0.43056357436063286  0.8197160085508414  0.27545551131689194  1.0000
  H   H44       1.0  0.5255152508207884  0.6804988288778162  0.22332984974393366  1.0000
  H   H45       1.0  0.9070089215671189  0.1303129895381403  0.7852903677696902  1.0000
  H   H46       1.0  0.822535207009281  0.3703138002606394  0.7140110421910464  1.0000
  H   H47       1.0  0.09299443884113841  0.869686478772806  0.21470764260443084  1.0000
  H   H48       1.0  0.17746878305153027  0.6296883747653226  0.28598937984119743  1.0000
  H   H49       1.0  0.9855143716349842  0.9925325438448098  0.7617661342120599  1.0000
  H   H50       1.0  0.7386383411611345  0.5083472432372389  0.7372815702725932  1.0000
  H   H51       1.0  0.014482945850922085  0.0074687289428112995  0.23823069540430453  1.0000
  H   H52       1.0  0.2613628545819109  0.4916531273120411  0.26272116040706095  1.0000
  C   C1        1.0  0.7115745911733454  0.004449839471604399  0.8443230667329759  1.0000
  C   C2        1.0  0.5587672163494872  0.4951105046143951  0.6561386140563101  1.0000
  C   C3        1.0  0.28842701911816687  0.9955478243626742  0.15567620808752744  1.0000
  C   C4        1.0  0.44123047071063565  0.5048925726499007  0.3438629572664739  1.0000
  C   C5        1.0  0.603625966093659  0.9146341881800168  0.8323565672772375  1.0000
  C   C6        1.0  0.3482159019012836  0.5846360057111752  0.6686235977735893  1.0000
  C   C7        1.0  0.3963775083722539  0.0853634756542618  0.16764392710905446  1.0000
  C   C8        1.0  0.6517839876185576  0.4153652670764457  0.33137836915930313  1.0000
  C   C9        1.0  0.49327845945779764  0.962177637278991  0.7606564627953462  1.0000
  C   C10       1.0  0.21428974048268382  0.5373939042163158  0.7411077166808158  1.0000
  C   C11       1.0  0.5067239708070871  0.03782002655528769  0.2393450757919808  1.0000
  C   C12       1.0  0.7857139177984253  0.46260556409463044  0.258893079560643  1.0000
  C   C13       1.0  0.6352184203350291  0.0176315415559785  0.6935016187266001  1.0000
  C   C14       1.0  0.34567569727436565  0.4824674388164211  0.8075515326221919  1.0000
  C   C15       1.0  0.3647812136682588  0.9823661222783002  0.3064980905120366  1.0000
  C   C16       1.0  0.6543272550910332  0.5175302250178504  0.19244948386462113  1.0000
  C   C17       1.0  0.7136382941534973  0.1154666577244257  0.7094596314923366  1.0000
  C   C18       1.0  0.5385743767432413  0.3847017949998203  0.7910792035470069  1.0000
  C   C19       1.0  0.28635969534126093  0.8845337128248615  0.29054013795522593  1.0000
  C   C20       1.0  0.46142506693923474  0.6152985755494598  0.20892065358292913  1.0000
  C   C21       1.0  0.8465198245289685  0.06109145994763309  0.7750087850175762  1.0000
  C   C22       1.0  0.6819235368516274  0.43928270311715056  0.7247512271433935  1.0000
  C   C23       1.0  0.1534801054033395  0.9389080083633132  0.22498957209230497  1.0000
  C   C24       1.0  0.3180788510569599  0.5607185696704704  0.2752497832708586  1.0000
  C   C25       1.0  0.8491349925996725  0.943925355748064  0.9075388511024587  1.0000
  C   C26       1.0  0.6989720763257167  0.5560973049150917  0.5925913754577793  1.0000
  C   C27       1.0  0.1508765349836665  0.05607321032454849  0.0924592295469182  1.0000
  C   C28       1.0  0.3010246786472095  0.4439057723492041  0.4074095860821174  1.0000
  C   C29       1.0  0.4445792703337828  0.8805503305728024  0.8983095439049082  1.0000
  C   C30       1.0  0.221801006696303  0.6183905463258554  0.6029263560795854  1.0000
  C   C31       1.0  0.5554280087440732  0.1194464310231353  0.10169075770949831  1.0000
  C   C32       1.0  0.7781997008530794  0.3816125309384333  0.39707373662404427  1.0000
  C   C33       1.0  0.8220859296907146  0.9287921121435971  0.6654218852499626  1.0000
  C   C34       1.0  0.4160964738209146  0.5712711492446586  0.8350510672485926  1.0000
  C   C35       1.0  0.17791097780851556  0.0712091606440168  0.3345738124829866  1.0000
  C   C36       1.0  0.5839011838941417  0.42872651458961997  0.16494907640817763  1.0000
  C   C37       1.0  0.8226534407085064  0.1898453816417103  0.6419384981935325  1.0000
  C   C38       1.0  0.6557626841338757  0.3107453186236384  0.857978193573196  1.0000
  C   C39       1.0  0.1773368972060678  0.810160402337587  0.3580611286247404  1.0000
  C   C40       1.0  0.3442355738886816  0.6892496384956317  0.14202293407568337  1.0000
  O   O1        1.0  0.9229389282358221  0.0096999643469573  0.9347365621319172  1.0000
  O   O2        1.0  0.8657943322053611  0.490652544997765  0.5645837154336278  1.0000
  O   O3        1.0  0.07706361414289374  0.990297699487314  0.06526332247148049  1.0000
  O   O4        1.0  0.13420413052799748  0.5093559456965409  0.43541545348681154  1.0000
  O   O5        1.0  0.9024759966531873  0.8305924916875327  0.9314181165853128  1.0000
  O   O6        1.0  0.6635506123561685  0.6694761831307403  0.56939451127041  1.0000
  O   O7        1.0  0.09753280636991947  0.1694078788617475  0.06858009055446962  1.0000
  O   O8        1.0  0.3364410676322933  0.3305296008485641  0.43060685721415864  1.0000
  O   O9        1.0  0.4038559008691392  0.9324209147297324  0.9489116496448348  1.0000
  O   O10       1.0  0.2855661570232966  0.566985517150151  0.5521118095607493  1.0000
  O   O11       1.0  0.5961557068650123  0.06757314015120389  0.0510920750932513  1.0000
  O   O12       1.0  0.71443793864573  0.4330211690674872  0.4478874082340454  1.0000
  O   O13       1.0  0.34480796217396636  0.7993263244026707  0.9027040198267641  1.0000
  O   O14       1.0  0.0445266487452541  0.6992807243117909  0.5987266410345526  1.0000
  O   O15       1.0  0.6551971144441782  0.2006722416699418  0.09729588617752682  1.0000
  O   O16       1.0  0.9554692523474556  0.3007196462374964  0.40127521681506556  1.0000
  O   O17       1.0  0.9872705640827201  0.9582330512753713  0.632290228457272  1.0000
  O   O18       1.0  0.5783505012599902  0.541658784829103  0.8672953049133911  1.0000
  O   O19       1.0  0.012721048766160073  0.0417682215122497  0.36770459644564824  1.0000
  O   O20       1.0  0.42165245110540883  0.45833887900516856  0.13270571157341496  1.0000
  O   O21       1.0  0.7878818316427855  0.820924105682323  0.6775119515970547  1.0000
  O   O22       1.0  0.28565208661287755  0.679077803499105  0.8237661921643777  1.0000
  O   O23       1.0  0.21211981449940961  0.1790744603902894  0.3224883011429896  1.0000
  O   O24       1.0  0.7143508299018395  0.32091895809683274  0.17623384640288012  1.0000
  O   O25       1.0  0.9883001744471044  0.2203888560196887  0.6466686287666124  1.0000
  O   O26       1.0  0.8571471305443621  0.2810445348511905  0.8524589812434729  1.0000
  O   O27       1.0  0.011682964230260542  0.7796187324362833  0.3533325154788471  1.0000
  O   O28       1.0  0.1428503792061874  0.7189522267447543  0.14754183847767885  1.0000
  O   O29       1.0  0.7408127194463531  0.2273739852145695  0.5800344636297511  1.0000
  O   O30       1.0  0.549539795001607  0.2725707124024268  0.920220432209007  1.0000
  O   O31       1.0  0.2591760163160047  0.7726308965263938  0.4199657515705156  1.0000
  O   O32       1.0  0.4504567826617387  0.727426049193518  0.07977977772924309  1.0000
  O   O33       1.0  0.1834937162610543  0.6151073010222987  0.024150066613294986  1.0000
  O   O34       1.0  0.8228414928860417  0.8844498046596385  0.47678042476726296  1.0000
  O   O35       1.0  0.8165122207429217  0.3848894605736461  0.9758484933348018  1.0000
  O   O36       1.0  0.17715813461163052  0.1155523703663164  0.5232197342178467  1.0000
  O   O37       1.0  0.8024062956529361  0.7942232643760292  0.0826632394948774  1.0000
  O   O38       1.0  0.6808375976148254  0.7058273656755246  0.4187302590901967  1.0000
  O   O39       1.0  0.19759568877458328  0.2057734972199086  0.9173361892894862  1.0000
  O   O40       1.0  0.31915061604701106  0.2941775160654387  0.581270478210584  1.0000
