data_image0
_chemical_formula_structural       Cd2H24C32O10
_chemical_formula_sum              "Cd2 H24 C32 O10"
_cell_length_a       4.977170251422546
_cell_length_b       8.494303326726099
_cell_length_c       15.9429045246876
_cell_angle_alpha    99.78481619379488
_cell_angle_beta     94.11799321972761
_cell_angle_gamma    92.79174596531469

_space_group_name_H-M_alt    "P 1"
_space_group_IT_number       1

loop_
  _space_group_symop_operation_xyz
  'x, y, z'

loop_
  _atom_site_type_symbol
  _atom_site_label
  _atom_site_symmetry_multiplicity
  _atom_site_fract_x
  _atom_site_fract_y
  _atom_site_fract_z
  _atom_site_occupancy
  Cd  Cd1       1.0  0.11856043127526308  0.24201241321340905  0.012832546671084799  1.0000
  Cd  Cd2       1.0  0.8813797687764408  0.7580120291797028  0.9871793420988766  1.0000
  H   H1        1.0  0.6435162675750377  0.35533448086249547  0.9718916650807187  1.0000
  H   H2        1.0  0.5605360517196659  0.16472564096047645  0.9576204495586893  1.0000
  H   H3        1.0  0.3564345734077534  0.6446975855762387  0.0281056413329068  1.0000
  H   H4        1.0  0.4394096182707443  0.8353106167445643  0.0423820587286272  1.0000
  H   H5        1.0  0.4273079536536954  0.9020512896535847  0.1908043630759906  1.0000
  H   H6        1.0  0.5089845160822576  0.5876623414427797  0.8075313944834335  1.0000
  H   H7        1.0  0.5726103192647827  0.09798556693337447  0.8091878091270032  1.0000
  H   H8        1.0  0.49111310005491754  0.4123582425732123  0.1924543112130408  1.0000
  H   H9        1.0  0.32115761829340517  0.885056963842437  0.3368299310274877  1.0000
  H   H10       1.0  0.37799936961233266  0.6132513242423981  0.6589662554901848  1.0000
  H   H11       1.0  0.6787177366813635  0.11497303827282218  0.6631595205084082  1.0000
  H   H12       1.0  0.6221257917057557  0.3867355040738544  0.3410122871630534  1.0000
  H   H13       1.0  0.03466744002081871  0.18876354195947434  0.4353361783702923  1.0000
  H   H14       1.0  0.035870382941944  0.32764330285382914  0.5753543127154187  1.0000
  H   H15       1.0  0.9652668341732706  0.8111973598872024  0.5646703718160708  1.0000
  H   H16       1.0  0.964259451661057  0.6723149568557429  0.4246573729258145  1.0000
  H   H17       1.0  0.13263605392344152  0.2089284686799856  0.2874300374261266  1.0000
  H   H18       1.0  0.1571733348172657  0.2973895677512813  0.7251444924026414  1.0000
  H   H19       1.0  0.867338215521208  0.7910515995140553  0.7125830044569952  1.0000
  H   H20       1.0  0.8429327750499384  0.7026056494694469  0.27487142173220047  1.0000
  H   H21       1.0  0.7703958273484088  0.09118492912086394  0.5343231710916497  1.0000
  H   H22       1.0  0.7495028212256328  0.4126971721185555  0.4704623455571735  1.0000
  H   H23       1.0  0.22949177966933834  0.9087928934809849  0.4656730735932655  1.0000
  H   H24       1.0  0.25061038706235184  0.5872593583017289  0.5295295569046559  1.0000
  C   C1        1.0  0.8612692078906222  0.06335196390352849  0.1402968194136491  1.0000
  C   C2        1.0  0.8983545736300584  0.4148260198547859  0.8652359387297466  1.0000
  C   C3        1.0  0.13864460034719886  0.936659717491068  0.8597021442248476  1.0000
  C   C4        1.0  0.1016849228030452  0.5851894005870546  0.1347696276249266  1.0000
  C   C5        1.0  0.7885385695485212  0.05635467280312408  0.2289993530379846  1.0000
  C   C6        1.0  0.8396112447511257  0.439806500153942  0.7758479785355376  1.0000
  C   C7        1.0  0.21140662663506052  0.9436453760538013  0.7709980737960507  1.0000
  C   C8        1.0  0.16044870405958284  0.560225224481826  0.224153644522751  1.0000
  C   C9        1.0  0.5598265511857007  0.9654742277410118  0.24440771865091185  1.0000
  C   C10       1.0  0.6221044389793847  0.5301060114217789  0.7560891066597648  1.0000
  C   C11       1.0  0.4400947628942759  0.03453474818541478  0.7555880357773717  1.0000
  C   C12       1.0  0.37795206738368137  0.46990416780245425  0.2438937088670201  1.0000
  C   C13       1.0  0.49974292401759607  0.9568596228812465  0.3272502579311052  1.0000
  C   C14       1.0  0.5486351657596059  0.5432164405578772  0.6721942446301057  1.0000
  C   C15       1.0  0.5001470275039709  0.043173184563606484  0.6727583826683556  1.0000
  C   C16       1.0  0.45147060000406475  0.456749745216328  0.3277823574541046  1.0000
  C   C17       1.0  0.6670819856939686  0.0376576739045902  0.3983557138141478  1.0000
  C   C18       1.0  0.6914896217317477  0.4672038768653336  0.6048864025223964  1.0000
  C   C19       1.0  0.332843019918279  0.9623319500024506  0.6016453431101638  1.0000
  C   C20       1.0  0.30867893878032493  0.5327723757686939  0.3951058949388652  1.0000
  C   C21       1.0  0.8975747135975213  0.12756629258815616  0.3819640190516793  1.0000
  C   C22       1.0  0.9170614287328221  0.3829614722116472  0.6261087801636336  1.0000
  C   C23       1.0  0.10235896661795608  0.8724218516721292  0.6180427176712299  1.0000
  C   C24       1.0  0.0830805814118847  0.6169970536260152  0.3739036815943493  1.0000
  C   C25       1.0  0.95542100089326  0.13822697536020453  0.2990299307736919  1.0000
  C   C26       1.0  0.9882817856465562  0.36726426533270723  0.7100269669541744  1.0000
  C   C27       1.0  0.0444962082203659  0.8617616863746985  0.7009735073977693  1.0000
  C   C28       1.0  0.011780232293602902  0.6327038102870687  0.289985132655076  1.0000
  C   C29       1.0  0.6121552089231485  0.033187455614836395  0.48649939066006453  1.0000
  C   C30       1.0  0.6128453285090173  0.46935682181727145  0.515485111840178  1.0000
  C   C31       1.0  0.38774219244363906  0.9667991870924904  0.5134911371460688  1.0000
  C   C32       1.0  0.3872719393154042  0.5305975565224087  0.4845079788533297  1.0000
  O   O1        1.0  0.06798628468411042  0.15479131036946814  0.1333757731335083  1.0000
  O   O2        1.0  0.0597147102129156  0.3091916441852262  0.8796012892063273  1.0000
  O   O3        1.0  0.9319955872025146  0.8452252283754473  0.8666348895221319  1.0000
  O   O4        1.0  0.9402982152925006  0.6908206000019274  0.12041829370389219  1.0000
  O   O5        1.0  0.7206484982708757  0.9798047666194799  0.0765891120895787  1.0000
  O   O6        1.0  0.7684803021294045  0.4949502654081993  0.9238868419583781  1.0000
  O   O7        1.0  0.27932553077424427  0.020220849728815393  0.9234194314811646  1.0000
  O   O8        1.0  0.23151557351110336  0.5050732564361053  0.076104205969834  1.0000
  O   O9        1.0  0.6175081584549671  0.2604784094734142  0.0014345436143372978  1.0000
  O   O10       1.0  0.3824612668808385  0.7395521510090645  0.9985672903957762  1.0000
