data_image0
_chemical_formula_structural       V4Cu2H20C30N6O12
_chemical_formula_sum              "V4 Cu2 H20 C30 N6 O12"
_cell_length_a       7.910996448954124
_cell_length_b       8.417047033129569
_cell_length_c       12.597800075116162
_cell_angle_alpha    83.71312723114852
_cell_angle_beta     77.50284668699423
_cell_angle_gamma    83.0056678767078

_space_group_name_H-M_alt    "P 1"
_space_group_IT_number       1

loop_
  _space_group_symop_operation_xyz
  'x, y, z'

loop_
  _atom_site_type_symbol
  _atom_site_label
  _atom_site_symmetry_multiplicity
  _atom_site_fract_x
  _atom_site_fract_y
  _atom_site_fract_z
  _atom_site_occupancy
  V   V1        1.0  0.08138172818337351  0.1462117875223257  0.6157814647114037  1.0000
  V   V2        1.0  0.9185699945115716  0.8537969885399405  0.38421828861999785  1.0000
  V   V3        1.0  0.810628058167737  0.8532319537406747  0.6604225402051895  1.0000
  V   V4        1.0  0.1893503290502991  0.14679353674074488  0.3395898681378214  1.0000
  Cu  Cu1       1.0  0.4023929541661602  0.08094560381504579  0.7252843885878733  1.0000
  Cu  Cu2       1.0  0.5976332095868103  0.9190449827427613  0.274718502439363  1.0000
  H   H1        1.0  0.19293931405679393  0.7928211875621967  0.8054615017454766  1.0000
  H   H2        1.0  0.807074956077706  0.20719587051275565  0.1945331610487386  1.0000
  H   H3        1.0  0.06781720822466043  0.6614307302366099  0.9900434773090723  1.0000
  H   H4        1.0  0.9321889103521243  0.33858996072174097  0.009947265205724422  1.0000
  H   H5        1.0  0.08468434240803191  0.7920314147338771  0.1573883967185807  1.0000
  H   H6        1.0  0.9153241022883949  0.20796766312948725  0.8425996132964143  1.0000
  H   H7        1.0  0.2269496514530829  0.04735527973180349  0.1332610136473704  1.0000
  H   H8        1.0  0.7730677035089858  0.952632915713643  0.8667448287491055  1.0000
  H   H9        1.0  0.3289333111441693  0.28983362922179595  0.08898915879662177  1.0000
  H   H10       1.0  0.6710747280313284  0.7101570049079197  0.9110114190154944  1.0000
  H   H11       1.0  0.639750760740526  0.5588356878278159  0.815222291222355  1.0000
  H   H12       1.0  0.3602777271763813  0.4411452779123408  0.18478335716029898  1.0000
  H   H13       1.0  0.7807583393658535  0.5285341714422386  0.6411070589706895  1.0000
  H   H14       1.0  0.21923987953562127  0.4714757355446792  0.35888155772955344  1.0000
  H   H15       1.0  0.8562243140631409  0.5167280681002495  0.4377479374066694  1.0000
  H   H16       1.0  0.1437459389003237  0.4832771070068204  0.5622376596591465  1.0000
  H   H17       1.0  0.7153336335772521  0.3252006170583924  0.35452620165810345  1.0000
  H   H18       1.0  0.2846337421421765  0.6747948885996918  0.6454819111942313  1.0000
  H   H19       1.0  0.5060614661426541  0.15107580696346898  0.4752669367406668  1.0000
  H   H20       1.0  0.4939341318611028  0.8489100258186111  0.5247420197818613  1.0000
  C   C1        1.0  0.20168357434768322  0.8417832921009775  0.880513669888444  1.0000
  C   C2        1.0  0.7983375471626601  0.15821812381580705  0.1194859511093753  1.0000
  C   C3        1.0  0.13117109296906895  0.771071774926888  0.9833984046869872  1.0000
  C   C4        1.0  0.8688425174240209  0.22892725477598921  0.0166016103297792  1.0000
  C   C5        1.0  0.14062293332852252  0.8440495094479983  0.0758797046670807  1.0000
  C   C6        1.0  0.8593883453759832  0.1559231279435593  0.9241129947159051  1.0000
  C   C7        1.0  0.22060366793986935  0.9859665265728518  0.06277618736135793  1.0000
  C   C8        1.0  0.7794294983192602  0.0140192740389367  0.9372157801813755  1.0000
  C   C9        1.0  0.2902657721251104  0.04973071323263409  0.9578443456347117  1.0000
  C   C10       1.0  0.7097660778820726  0.9502430345480662  0.04216295337700158  1.0000
  C   C11       1.0  0.3814469353267569  0.19657764708713904  0.9317350420094784  1.0000
  C   C12       1.0  0.6185857076964824  0.8034249368818819  0.0682669048080058  1.0000
  C   C13       1.0  0.3949238954173495  0.30716625040484047  0.0036015521852589927  1.0000
  C   C14       1.0  0.6050996790676778  0.6928363404115672  0.996404796625427  1.0000
  C   C15       1.0  0.49008310410593486  0.4402625322641213  0.963036628696102  1.0000
  C   C16       1.0  0.5099306336525943  0.5597232940825663  0.036961141582573  1.0000
  C   C17       1.0  0.5652782737014589  0.45826262272606744  0.8508961141966012  1.0000
  C   C18       1.0  0.4347460753914518  0.5417447592290827  0.1491137548549517  1.0000
  C   C19       1.0  0.5428764577928646  0.34522182495520326  0.7830281905834511  1.0000
  C   C20       1.0  0.4571345633322821  0.6547892090062816  0.21697528221675816  1.0000
  C   C21       1.0  0.6009104418371932  0.34928142749177477  0.6639169256857613  1.0000
  C   C22       1.0  0.39909630931513373  0.6507212254741787  0.3360813762162067  1.0000
  C   C23       1.0  0.7192630913030057  0.4493364269444982  0.601748297495007  1.0000
  C   C24       1.0  0.2807235991134576  0.5506602955148807  0.3982404443885628  1.0000
  C   C25       1.0  0.7626450543349108  0.4413335913733504  0.4888427295603178  1.0000
  C   C26       1.0  0.2373240308285673  0.5586703798553996  0.5111446995438271  1.0000
  C   C27       1.0  0.684456726209028  0.33537490724884117  0.4420475906019661  1.0000
  C   C28       1.0  0.31552814703916  0.6646266062315648  0.5579466098797993  1.0000
  C   C29       1.0  0.5679724110800919  0.23670833827947743  0.5090852671681461  1.0000
  C   C30       1.0  0.43201517667565525  0.7632919569804101  0.49091262233088884  1.0000
  N   N1        1.0  0.2796617397355804  0.9767787528911069  0.8687336219595281  1.0000
  N   N2        1.0  0.7203503046489885  0.023198651441241194  0.1312705385225357  1.0000
  N   N3        1.0  0.4547542447824569  0.21847010403527625  0.8252295925927343  1.0000
  N   N4        1.0  0.5452648012154881  0.7815025119312577  0.17476443849065504  1.0000
  N   N5        1.0  0.528923954936211  0.24291229918543417  0.6172144410198257  1.0000
  N   N6        1.0  0.47107374285521086  0.7570904017644295  0.38277476341636424  1.0000
  O   O1        1.0  0.5934342227403491  0.8758642746157789  0.6935770197838879  1.0000
  O   O2        1.0  0.40654920884614393  0.1241263971123772  0.3064292670497224  1.0000
  O   O3        1.0  0.25596235945008056  0.016776168679896793  0.636672679012797  1.0000
  O   O4        1.0  0.7440010153540584  0.9832445759914705  0.36333178242405484  1.0000
  O   O5        1.0  0.8867622317626883  0.0469900536471428  0.6600746506774513  1.0000
  O   O6        1.0  0.11321719533738418  0.9530258474151266  0.3399311610839674  1.0000
  O   O7        1.0  0.11237224467112839  0.2174709529673108  0.47412622779712177  1.0000
  O   O8        1.0  0.8875911133402709  0.7825377486110057  0.5258894195867683  1.0000
  O   O9        1.0  0.0641635384132329  0.29821801233408973  0.6895328103579459  1.0000
  O   O10       1.0  0.9358244447025543  0.7018146942755619  0.3104690496551754  1.0000
  O   O11       1.0  0.8815015478188928  0.7238290425270221  0.7533000584002565  1.0000
  O   O12       1.0  0.11847697909341552  0.27619527559227913  0.2467028896867447  1.0000
