data_image0
_chemical_formula_structural       Cu2H24C16N16Cl4
_chemical_formula_sum              "Cu2 H24 C16 N16 Cl4"
_cell_length_a       8.444072066619546
_cell_length_b       8.687011158077615
_cell_length_c       9.602593200309329
_cell_angle_alpha    90.00008646484602
_cell_angle_beta     105.29227478864146
_cell_angle_gamma    90.00044101723186

_space_group_name_H-M_alt    "P 1"
_space_group_IT_number       1

loop_
  _space_group_symop_operation_xyz
  'x, y, z'

loop_
  _atom_site_type_symbol
  _atom_site_label
  _atom_site_symmetry_multiplicity
  _atom_site_fract_x
  _atom_site_fract_y
  _atom_site_fract_z
  _atom_site_occupancy
  Cu  Cu1       1.0  6.040573317999899e-06  0.4999986366678255  0.5000027584045483  1.0000
  Cu  Cu2       1.0  0.9999992148100958  1.1722058773000002e-06  0.9999988263686104  1.0000
  H   H1        1.0  0.12655229408959198  0.7493969980979852  0.7956726386848627  1.0000
  H   H2        1.0  0.8734453624756  0.24939001398250574  0.7043254032649457  1.0000
  H   H3        1.0  0.8734464462356826  0.25060519194890657  0.20432776658864069  1.0000
  H   H4        1.0  0.1265582887500472  0.750611024939964  0.295676154762198  1.0000
  H   H5        1.0  0.6180807549308014  0.6533160393648669  0.4691480792818439  1.0000
  H   H6        1.0  0.38192191673377357  0.15331081078078762  0.03084794173294369  1.0000
  H   H7        1.0  0.3819241402728935  0.3466803949833092  0.5308496051817144  1.0000
  H   H8        1.0  0.6180853932525778  0.846687925873752  0.9691607234740542  1.0000
  H   H9        1.0  0.5099346909878548  0.7913286436462313  0.545578394805112  1.0000
  H   H10       1.0  0.4900682488962005  0.291326109240785  0.9544209417393006  1.0000
  H   H11       1.0  0.4900652811113773  0.20866894182901055  0.4544212582133227  1.0000
  H   H12       1.0  0.5099415002912197  0.7086772320026566  0.045592461597969744  1.0000
  H   H13       1.0  0.4860271040981702  0.8657463327938257  0.288322700814831  1.0000
  H   H14       1.0  0.5139639207130671  0.3657470143006875  0.2116781517191129  1.0000
  H   H15       1.0  0.5139581311910248  0.1342454969042919  0.7116745343632686  1.0000
  H   H16       1.0  0.4860310916796422  0.6342540245973606  0.78833283378367  1.0000
  H   H17       1.0  0.8272742976884898  0.002195269350096399  0.4373634450014521  1.0000
  H   H18       1.0  0.17271605147892902  0.5021860842946706  0.06261178373387108  1.0000
  H   H19       1.0  0.17270611217498552  0.9978080717491761  0.5626107882808569  1.0000
  H   H20       1.0  0.8272814448427398  0.49781495460696584  0.9373924950934834  1.0000
  H   H21       1.0  0.6898652400423159  0.05154183479244518  0.25794057844092316  1.0000
  H   H22       1.0  0.31011446126762376  0.5515432023296752  0.24204158744979046  1.0000
  H   H23       1.0  0.3101089945259048  0.948449994851273  0.7420415778030003  1.0000
  H   H24       1.0  0.6898805714601296  0.44845668542006206  0.7579641958701729  1.0000
  C   C1        1.0  0.00013452985297140007  0.7826254021111719  0.7490661582816855  1.0000
  C   C2        1.0  0.9998707922485718  0.28262060141715034  0.7509326847622829  1.0000
  C   C3        1.0  0.9998654544656843  0.21737563679316443  0.25093037343406616  1.0000
  C   C4        1.0  0.00014880315288219985  0.7173815887160726  0.2490767814671813  1.0000
  C   C5        1.0  0.614970096592657  0.7754604807867622  0.4995691131828933  1.0000
  C   C6        1.0  0.3850324239651641  0.2754540721618568  0.0004291136602176801  1.0000
  C   C7        1.0  0.38503479049542483  0.22454055813881973  0.5004306521607944  1.0000
  C   C8        1.0  0.6149748697592868  0.7245469667840251  0.9995837132953653  1.0000
  C   C9        1.0  0.6013964505657512  0.8792209789595019  0.37233144002649954  1.0000
  C   C10       1.0  0.3986008732057158  0.3792171936776612  0.1276604946598852  1.0000
  C   C11       1.0  0.3985949518570636  0.12077660647636888  0.6276599530526069  1.0000
  C   C12       1.0  0.6014002981436732  0.6207803918086084  0.8723467296006717  1.0000
  C   C13       1.0  0.7120515778393823  0.9821612743952524  0.3556412561632242  1.0000
  C   C14       1.0  0.28793932224578356  0.48215438213096445  0.14434201452120016  1.0000
  C   C15       1.0  0.2879349503157869  0.017842066732775694  0.6443396202444447  1.0000
  C   C16       1.0  0.7120544827607135  0.5178466567578112  0.8556634806118096  1.0000
  N   N1        1.0  0.9037171123158318  0.7267602324113653  0.6271923506502972  1.0000
  N   N2        1.0  0.0962840467228574  0.22675113851190073  0.8728012771141422  1.0000
  N   N3        1.0  0.09628409974452981  0.2732442599295766  0.3728044692601955  1.0000
  N   N4        1.0  0.9037183808393365  0.773248749260908  0.12719895228597977  1.0000
  N   N5        1.0  0.7625548681779223  0.8009117779488973  0.616640453243285  1.0000
  N   N6        1.0  0.2374494007775851  0.3009014630518934  0.8833550421465972  1.0000
  N   N7        1.0  0.23745003520783567  0.19909501669272336  0.3833551503654391  1.0000
  N   N8        1.0  0.7625579254757754  0.6990961224552165  0.11664946131374886  1.0000
  N   N9        1.0  0.7670779070081721  0.8985346456264833  0.7227619243869796  1.0000
  N   N10       1.0  0.23292476941630721  0.3985252652708765  0.7772343652668638  1.0000
  N   N11       1.0  0.23292086181887584  0.10147330013381148  0.2772311978430366  1.0000
  N   N12       1.0  0.7670862400263943  0.6014746225386671  0.22277100276406972  1.0000
  N   N13       1.0  0.9184743702746163  0.8875763993596804  0.8084167327496276  1.0000
  N   N14       1.0  0.0815269770401343  0.38756803375417787  0.6915802720875419  1.0000
  N   N15       1.0  0.0815231667426985  0.11242809296489037  0.19157714172182239  1.0000
  N   N16       1.0  0.9184815728766864  0.6124307029025855  0.30842555999982585  1.0000
  Cl  Cl1       1.0  0.7494238059316913  0.3787767657579479  0.4651825567836951  1.0000
  Cl  Cl2       1.0  0.25057840853717295  0.8787750260906788  0.034814690903914376  1.0000
  Cl  Cl3       1.0  0.2505884352951853  0.6212208197677638  0.5348220589960703  1.0000
  Cl  Cl4       1.0  0.7494191162453704  0.12122255937306645  0.9651823048643777  1.0000
