data_image0
_chemical_formula_structural       Al4H20C60O20F8
_chemical_formula_sum              "Al4 H20 C60 O20 F8"
_cell_length_a       6.678806975520379
_cell_length_b       20.341663195620075
_cell_length_c       22.990669066076794
_cell_angle_alpha    93.34050456506992
_cell_angle_beta     89.51654516361344
_cell_angle_gamma    88.8572863806119

_space_group_name_H-M_alt    "P 1"
_space_group_IT_number       1

loop_
  _space_group_symop_operation_xyz
  'x, y, z'

loop_
  _atom_site_type_symbol
  _atom_site_label
  _atom_site_symmetry_multiplicity
  _atom_site_fract_x
  _atom_site_fract_y
  _atom_site_fract_z
  _atom_site_occupancy
  Al  Al1       1.0  0.21137541400213425  0.249576117484402  0.24960561642821227  1.0000
  Al  Al2       1.0  0.7886157473819324  0.7504241118821184  0.7503925790019892  1.0000
  Al  Al3       1.0  0.711347936621344  0.2511377405120355  0.250989467388436  1.0000
  Al  Al4       1.0  0.28864325656284245  0.7488614472296716  0.7490078573772366  1.0000
  H   H1        1.0  0.30578271329576273  0.45382794971634144  0.0450345299819759  1.0000
  H   H2        1.0  0.6942338864342189  0.546172321158025  0.9549657931339864  1.0000
  H   H3        1.0  0.8095429861075233  0.04449554289254111  0.45731868013876203  1.0000
  H   H4        1.0  0.19045252682482777  0.9555105677221859  0.5426795017942396  1.0000
  H   H5        1.0  0.3369747172542432  0.5337780146351039  0.967057962803814  1.0000
  H   H6        1.0  0.6630538390203214  0.4662227862881777  0.0329436431286254  1.0000
  H   H7        1.0  0.8338463217989442  0.9641890364793752  0.5353523649860107  1.0000
  H   H8        1.0  0.16615963832130376  0.03581810196185131  0.4646471023783861  1.0000
  H   H9        1.0  0.25088502335263024  0.41229920750731  0.35545419567068853  1.0000
  H   H10       1.0  0.7491062010039755  0.5876985344918851  0.6445435659345691  1.0000
  H   H11       1.0  0.19672408811523212  0.0814682229186303  0.13868995392983408  1.0000
  H   H12       1.0  0.8032836736815411  0.9185249144236137  0.8613134427527527  1.0000
  H   H13       1.0  0.45860517935081196  0.5909004919447723  0.48475034493148417  1.0000
  H   H14       1.0  0.5413920147003494  0.4090973713673733  0.5152495832522632  1.0000
  H   H15       1.0  0.0636570136717367  0.8966719307499034  0.0065985112168078985  1.0000
  H   H16       1.0  0.9363417091404073  0.1033244806808611  0.9934018508147774  1.0000
  H   H17       1.0  0.45523808101417973  0.3348034890588992  0.2391241651026306  1.0000
  H   H18       1.0  0.5447500998374081  0.6651954235374973  0.7608762159870466  1.0000
  H   H19       1.0  0.9629726495701975  0.16397719789125628  0.2533782521247048  1.0000
  H   H20       1.0  0.037015495349329804  0.8360227855036229  0.7466234353386058  1.0000
  C   C1        1.0  0.4717233329437605  0.1698742895035323  0.16842983202934647  1.0000
  C   C2        1.0  0.5282783150645044  0.8301254635996218  0.8315692142536406  1.0000
  C   C3        1.0  0.9553856419776635  0.3309941644126226  0.3317166031920634  1.0000
  C   C4        1.0  0.0446025248569839  0.6690064813493208  0.6682802907175186  1.0000
  C   C5        1.0  0.4632366230197746  0.17370827207593456  0.3267694495143161  1.0000
  C   C6        1.0  0.5367575329137181  0.8262915408951627  0.6732300474365119  1.0000
  C   C7        1.0  0.9594723363207934  0.3271821402253964  0.17357661983976408  1.0000
  C   C8        1.0  0.04052325836067891  0.6728201248004951  0.8264228722351703  1.0000
  C   C9        1.0  0.19027682883063327  0.5187033822997407  0.9817387786946482  1.0000
  C   C10       1.0  0.8097471723334023  0.481300328525144  0.0182619625338631  1.0000
  C   C11       1.0  0.6884953073385135  0.9801760383473523  0.5196072997972933  1.0000
  C   C12       1.0  0.31150912689727756  0.019831714566152004  0.48039391301841045  1.0000
  C   C13       1.0  0.017354855677986294  0.5450042251012378  0.9560026976899892  1.0000
  C   C14       1.0  0.9826645884924119  0.4550011832721098  0.0440011013469572  1.0000
  C   C15       1.0  0.5136142811324759  0.9547796512891792  0.5440159814707712  1.0000
  C   C16       1.0  0.48639165006417767  0.045227691367749415  0.4559865358573063  1.0000
  C   C17       1.0  0.8269661316456619  0.5255887631258602  0.9749890385902447  1.0000
  C   C18       1.0  0.17305793186320528  0.4744120562139855  0.025012576317443802  1.0000
  C   C19       1.0  0.32485085355149573  0.9753129970863199  0.5236761450415912  1.0000
  C   C20       1.0  0.6751476332705763  0.024692843001346908  0.4763255169575231  1.0000
  C   C21       1.0  0.03254730738899529  0.5899225261465944  0.9115419169457154  1.0000
  C   C22       1.0  0.9674721644495748  0.41008186977560956  0.0884614471357992  1.0000
  C   C23       1.0  0.5260835443379718  0.9096786455744165  0.5884729740654464  1.0000
  C   C24       1.0  0.473927006197151  0.0903241080490247  0.411527359133366  1.0000
  C   C25       1.0  0.9599772378745612  0.3716224862415202  0.1270685197271462  1.0000
  C   C26       1.0  0.0400317785122368  0.6283809402015309  0.8729344303411679  1.0000
  C   C27       1.0  0.4665090488274756  0.12899285173862296  0.37305670997650253  1.0000
  C   C28       1.0  0.5334835077363281  0.8710113629462269  0.6269423508655123  1.0000
  C   C29       1.0  0.8123830996490966  0.3879926895047134  0.42540837093155653  1.0000
  C   C30       1.0  0.18760353366492674  0.6120090331945602  0.574589832343399  1.0000
  C   C31       1.0  0.6403225191695298  0.11794873143775668  0.0768347565959218  1.0000
  C   C32       1.0  0.3596806858955972  0.8820489614506074  0.9231629810753502  1.0000
  C   C33       1.0  0.9634457770281201  0.379857328628006  0.3828382772013299  1.0000
  C   C34       1.0  0.03654390266744661  0.6201423860649626  0.617159485888358  1.0000
  C   C35       1.0  0.47952177414487096  0.1219118653893361  0.1165449805624377  1.0000
  C   C36       1.0  0.5204814496968452  0.8780844692775245  0.883454501075711  1.0000
  C   C37       1.0  0.13174721059363748  0.41984888279793614  0.38784335824166766  1.0000
  C   C38       1.0  0.8682424961424003  0.5801494153261899  0.6121552773967025  1.0000
  C   C39       1.0  0.32328974328347465  0.0774246284879965  0.1084874033062988  1.0000
  C   C40       1.0  0.6767210337224299  0.9225679465904619  0.891515116351421  1.0000
  C   C41       1.0  0.14681675866356156  0.46840943015157416  0.4330436985635089  1.0000
  C   C42       1.0  0.8531774408381737  0.5315888495559875  0.5669549280996193  1.0000
  C   C43       1.0  0.3304388180505454  0.0282864401528897  0.06334023943553999  1.0000
  C   C44       1.0  0.6695764040208799  0.971707678946217  0.9366635772437419  1.0000
  C   C45       1.0  0.9927570142004212  0.4758096154433319  0.4765731164729488  1.0000
  C   C46       1.0  0.007235671812686896  0.524189191215484  0.5234259485141877  1.0000
  C   C47       1.0  0.4954652883108679  0.02465027360088361  0.0232051763318211  1.0000
  C   C48       1.0  0.5045454657865063  0.9753436888727478  0.9767960350681192  1.0000
  C   C49       1.0  0.8232635348743145  0.4341304096976942  0.47313537645346315  1.0000
  C   C50       1.0  0.17673208684762898  0.5658704387593544  0.5268649881701535  1.0000
  C   C51       1.0  0.6524604924269897  0.0710151403207888  0.029613094131292397  1.0000
  C   C52       1.0  0.3475412420900454  0.9289811421375801  0.9703855190804093  1.0000
  C   C53       1.0  0.31100016459711094  0.5123636449076514  0.4385294026568403  1.0000
  C   C54       1.0  0.6889940148726196  0.48763518478598655  0.561470095047646  1.0000
  C   C55       1.0  0.1795340886836101  0.9798089888707936  0.054886579523504495  1.0000
  C   C56       1.0  0.820481106975045  0.0201869509148693  0.9451150571029672  1.0000
  C   C57       1.0  0.32905599416201886  0.5593155823053165  0.482671930968003  1.0000
  C   C58       1.0  0.6709367271554426  0.4406817494373171  0.5173271351496282  1.0000
  C   C59       1.0  0.18386621795589522  0.931865997543589  0.0110869823374671  1.0000
  C   C60       1.0  0.81613550766955  0.06812993914441283  0.9889138097965501  1.0000
  O   O1        1.0  0.6331233387789722  0.19124264259858853  0.3082494245908051  1.0000
  O   O2        1.0  0.3668664522170103  0.8087534264075628  0.6917452911730138  1.0000
  O   O3        1.0  0.1309574418278672  0.30815881656599936  0.19064721041802812  1.0000
  O   O4        1.0  0.8690352247809443  0.6918409441966062  0.8093514181063527  1.0000
  O   O5        1.0  0.2983541807427414  0.18588935888519129  0.18869767403066356  1.0000
  O   O6        1.0  0.7016490112988548  0.8141080174064755  0.8113026782720211  1.0000
  O   O7        1.0  0.7851241740259949  0.31300014379796437  0.31329876473382257  1.0000
  O   O8        1.0  0.2148640157171826  0.686999114568799  0.6866994374335391  1.0000
  O   O9        1.0  0.29202509152446504  0.19078086941100741  0.30811972852487907  1.0000
  O   O10       1.0  0.7079614975936154  0.8092219824340887  0.6918806525419043  1.0000
  O   O11       1.0  0.7895862462399564  0.31187647563768184  0.19379676874675766  1.0000
  O   O12       1.0  0.2104033552107225  0.6881266513527321  0.8062005559960211  1.0000
  O   O13       1.0  0.1246591850245906  0.3131465324679894  0.3096647724508871  1.0000
  O   O14       1.0  0.8753274412809516  0.6868560568140581  0.6903316872340284  1.0000
  O   O15       1.0  0.638136961827719  0.18860850129808426  0.18909264888813476  1.0000
  O   O16       1.0  0.36186168462265295  0.8113925347832662  0.8109033522841854  1.0000
  O   O17       1.0  0.4582423783365641  0.289905998608404  0.2510116542148282  1.0000
  O   O18       1.0  0.5417532958452043  0.710093662355476  0.7489856611987661  1.0000
  O   O19       1.0  0.962952478968347  0.21096900479155783  0.24883811710294879  1.0000
  O   O20       1.0  0.03703718132292269  0.7890316640052005  0.7511592095239763  1.0000
  F   F1        1.0  0.6492910061455675  0.3493774381677709  0.4227422448236666  1.0000
  F   F2        1.0  0.3506941267033596  0.6506251280794545  0.5772537821438988  1.0000
  F   F3        1.0  0.7910982227199311  0.16146018877834223  0.0819328409192934  1.0000
  F   F4        1.0  0.20890049371143957  0.8385374933529164  0.9180644700181233  1.0000
  F   F5        1.0  0.45691784222917414  0.5054858278998324  0.3966827328083724  1.0000
  F   F6        1.0  0.5430658747803035  0.49451289889741906  0.6033146072928731  1.0000
  F   F7        1.0  0.023363800044528208  0.9830842037266976  0.0935907243648018  1.0000
  F   F8        1.0  0.9766470481977904  0.016905825637088902  0.9064104900497725  1.0000
