data_image0
_chemical_formula_structural       K2Cu12H24C36I2N36O24
_chemical_formula_sum              "K2 Cu12 H24 C36 I2 N36 O24"
_cell_length_a       10.174236120009628
_cell_length_b       13.078174980594893
_cell_length_c       13.12
_cell_angle_alpha    89.9278226343858
_cell_angle_beta     80.90345341206375
_cell_angle_gamma    69.71349165243471

_space_group_name_H-M_alt    "P 1"
_space_group_IT_number       1

loop_
  _space_group_symop_operation_xyz
  'x, y, z'

loop_
  _atom_site_type_symbol
  _atom_site_label
  _atom_site_symmetry_multiplicity
  _atom_site_fract_x
  _atom_site_fract_y
  _atom_site_fract_z
  _atom_site_occupancy
  K   K1        1.0  0.20228031013599682  0.9426307109474126  0.4746772718912736  1.0000
  K   K2        1.0  0.7977205219531385  0.0573694268888048  0.5253220923836677  1.0000
  Cu  Cu1       1.0  0.34180008361862946  0.339049336239917  0.7780508986343122  1.0000
  Cu  Cu2       1.0  0.6581997530770067  0.6609508015963002  0.22195011206762416  1.0000
  Cu  Cu3       1.0  0.3625930330562568  0.5785079212146371  0.8872116299809392  1.0000
  Cu  Cu4       1.0  0.6374061812832037  0.4214914000563042  0.11278869585306947  1.0000
  Cu  Cu5       1.0  0.3592917273499551  0.4641920482521584  0.13240016731916168  1.0000
  Cu  Cu6       1.0  0.640709477776511  0.535807273018783  0.8675999144413281  1.0000
  Cu  Cu7       1.0  0.33494310538166866  0.2268842962253999  0.021741263569658987  1.0000
  Cu  Cu8       1.0  0.6650567313139676  0.7731158416108175  0.978258984937163  1.0000
  Cu  Cu9       1.0  0.007045311539002262  0.67609808754343  0.0586355697368361  1.0000
  Cu  Cu10      1.0  0.9929548981939644  0.32390123372751134  0.9413638718652918  1.0000
  Cu  Cu11      1.0  0.0024730698103567947  0.5580929726451416  0.822563826703316  1.0000
  Cu  Cu12      1.0  0.9975267668852723  0.44190716519107553  0.17743489741326351  1.0000
  H   H1        1.0  0.3488637943184968  0.7088611362796302  0.6889697359738632  1.0000
  H   H2        1.0  0.6511360423771322  0.2911390015565871  0.31103127472808  1.0000
  H   H3        1.0  0.33227911758620365  0.40892609352506787  0.5550023894085354  1.0000
  H   H4        1.0  0.6677207191094253  0.5910740443111564  0.4449970969031582  1.0000
  H   H5        1.0  0.3514252842684442  0.13732259973123462  0.6487087496047649  1.0000
  H   H6        1.0  0.648574179389854  0.8626783546702657  0.3512915436116231  1.0000
  H   H7        1.0  0.3273167295597688  0.0038599040793557008  0.9536003791500034  1.0000
  H   H8        1.0  0.6726834801731982  0.9961394171915856  0.04640058684236689  1.0000
  H   H9        1.0  0.3370389709758967  0.0971002271606878  0.21944987070851596  1.0000
  H   H10       1.0  0.6629602433635707  0.9028990941102536  0.7805504551254927  1.0000
  H   H11       1.0  0.3493873235199985  0.39641631343288714  0.3575928621158511  1.0000
  H   H12       1.0  0.6506125131756378  0.6035838244033371  0.6424081485860922  1.0000
  H   H13       1.0  0.3468993026628765  0.6658142644049861  0.26107714031120816  1.0000
  H   H14       1.0  0.6531005340327596  0.3341858734312382  0.7389223460004928  1.0000
  H   H15       1.0  0.34911415873040846  0.806123043365794  0.9585478526592651  1.0000
  H   H16       1.0  0.6508860510025585  0.1938762779051473  0.041451588942855666  1.0000
  H   H17       1.0  0.005132542318136794  0.4843383468444742  0.5979454776810725  1.0000
  H   H18       1.0  0.9948682897709986  0.5156617909917429  0.4020538865938618  1.0000
  H   H19       1.0  0.9969971271596734  0.1871918745216874  0.7465605358935077  1.0000
  H   H20       1.0  0.0030027095359626767  0.8128082633145299  0.2534389504181859  1.0000
  H   H21       1.0  0.005318929172432296  0.9011402124967703  0.9837498511600271  1.0000
  H   H22       1.0  0.9946809075231969  0.09885992533945402  0.016250397346794884  1.0000
  H   H23       1.0  0.0010823087115667516  0.7522076876120993  0.687272595285833  1.0000
  H   H24       1.0  0.9989185233775613  0.24779245022411805  0.3127267689891013  1.0000
  C   C1        1.0  0.3474848291237294  0.6277574229574441  0.6730119839402988  1.0000
  C   C2        1.0  0.6525163760027368  0.3722418983134901  0.32698809782018395  1.0000
  C   C3        1.0  0.335688992840069  0.5792085342250246  0.5808445924060663  1.0000
  C   C4        1.0  0.6643114662117354  0.42079242017647545  0.41915481657844106  1.0000
  C   C5        1.0  0.3375010971724564  0.4737866902941407  0.6040192873049078  1.0000
  C   C6        1.0  0.6624987395231797  0.5262134475420837  0.3959801990067859  1.0000
  C   C7        1.0  0.3456963464173625  0.12194504237509562  0.7304372957264815  1.0000
  C   C8        1.0  0.6543034902782664  0.8780550954611216  0.2695629527803334  1.0000
  C   C9        1.0  0.33579343970597353  0.029995709001710207  0.7823979670378874  1.0000
  C   C10       1.0  0.6642067700269862  0.970003612269224  0.21760223675936163  1.0000
  C   C11       1.0  0.3325587609999303  0.0532392397017105  0.88756566117204  1.0000
  C   C12       1.0  0.6674410756956988  0.9467608981345067  0.112434587334775  1.0000
  C   C13       1.0  0.3415114361459217  0.17713668966169394  0.23600301826456865  1.0000
  C   C14       1.0  0.6584870321188845  0.8228642647398061  0.7639981591836997  1.0000
  C   C15       1.0  0.3412206523642069  0.22808791344836984  0.3304609689967393  1.0000
  C   C16       1.0  0.6587765711882625  0.7719114078225716  0.6695411253010304  1.0000
  C   C17       1.0  0.3479071814427428  0.3312241911600609  0.3072068023681566  1.0000
  C   C18       1.0  0.652090664465895  0.6687759466761563  0.6927944524073054  1.0000
  C   C19       1.0  0.35202952263931303  0.6820949429609868  0.17957558945919766  1.0000
  C   C20       1.0  0.6479706870936539  0.3179043783099544  0.8204238521429301  1.0000
  C   C21       1.0  0.3434428056643454  0.7790016441502703  0.12963774427070968  1.0000
  C   C22       1.0  0.6565570310312836  0.220998493685947  0.8703617420409839  1.0000
  C   C23       1.0  0.3527011659612711  0.7546630994095693  0.023781693106037897  1.0000
  C   C24       1.0  0.6473000391651949  0.24533622186137197  0.9762176264593235  1.0000
  C   C25       1.0  0.0030297167321364548  0.4206487046871673  0.6505965256307675  1.0000
  C   C26       1.0  0.9969704930008305  0.5793506165837741  0.3494036781664746  1.0000
  C   C27       1.0  0.0031016478903040903  0.31487655425108585  0.6312959839088775  1.0000
  C   C28       1.0  0.9968991841988313  0.6851235835851313  0.36870338036606387  1.0000
  C   C29       1.0  0.9984838154611495  0.26776563697704603  0.727553764670688  1.0000
  C   C30       1.0  0.0015163942718104328  0.7322336842938952  0.27244567693143296  1.0000
  C   C31       1.0  0.004569369107621006  0.8483460008727519  0.9202967624394985  1.0000
  C   C32       1.0  0.9954304675880152  0.15165413696347232  0.07970272387219515  1.0000
  C   C33       1.0  0.002801219147308081  0.8674969063885456  0.8149490958711708  1.0000
  C   C34       1.0  0.9971989905856516  0.1325024148823957  0.18505110792607118  1.0000
  C   C35       1.0  0.002935214482519577  0.7711454695897688  0.7675727128023269  1.0000
  C   C36       1.0  0.9970649952504472  0.2288538516811656  0.2324267287998012  1.0000
  I   I1        1.0  0.20741233858721833  0.4447243154076547  0.9737632456624468  1.0000
  I   I2        1.0  0.792588493501917  0.5552758224285627  0.02623611861248776  1.0000
  N   N1        1.0  0.34968237622072  0.4604897412718714  0.7035821752687069  1.0000
  N   N2        1.0  0.6503184558684083  0.5395103965643457  0.29641718900622743  1.0000
  N   N3        1.0  0.35569112724979857  0.5557143179840125  0.7462358267007473  1.0000
  N   N4        1.0  0.6443100778766605  0.4442850032869288  0.2537634928646141  1.0000
  N   N5        1.0  0.326422956978618  0.6261414402679932  0.4847021759098239  1.0000
  N   N6        1.0  0.6735771290358485  0.3738603306987899  0.51529956436962  1.0000
  N   N7        1.0  0.36380356574274225  0.650240731381608  0.0116621651478042  1.0000
  N   N8        1.0  0.6361962709528939  0.3497594064546092  0.9883373211638895  1.0000
  N   N9        1.0  0.36344115328943627  0.6054431435462817  0.10779638712097038  1.0000
  N   N10       1.0  0.6365583103688621  0.3945578108552183  0.8922039060954174  1.0000
  N   N11       1.0  0.3261763407557438  0.8800850767476192  0.1765514875466536  1.0000
  N   N12       1.0  0.6738234959398852  0.119915061088598  0.8234487609601684  1.0000
  N   N13       1.0  0.35228278665406526  0.3410882997444986  0.20545445387800498  1.0000
  N   N14       1.0  0.6477170500415638  0.6589118380917185  0.7945457946288099  1.0000
  N   N15       1.0  0.34828745982780157  0.2458359598128368  0.16134743355414116  1.0000
  N   N16       1.0  0.6517123768678273  0.7541641780233875  0.8386520527575525  1.0000
  N   N17       1.0  0.3380686905712125  0.1838643710050007  0.42810872923062243  1.0000
  N   N18       1.0  0.6619295283747563  0.8161349502659405  0.5718917186401454  1.0000
  N   N19       1.0  0.3391692425747408  0.1528357069238737  0.8977398972279856  1.0000
  N   N20       1.0  0.6608315895143874  0.8471644309123434  0.10226022924206997  1.0000
  N   N21       1.0  0.3468750717241846  0.195562485208697  0.8005257968891398  1.0000
  N   N22       1.0  0.6531251380087824  0.8044368360622445  0.19947440690810236  1.0000
  N   N23       1.0  0.32963529799148  0.9343850347482745  0.7385302653508888  1.0000
  N   N24       1.0  0.6703645387041562  0.0656151030879499  0.2614699831559264  1.0000
  N   N25       1.0  0.005838249778392336  0.7468542856353154  0.9345384576258836  1.0000
  N   N26       1.0  0.9941615869172366  0.2531458522009018  0.06546102868581019  1.0000
  N   N27       1.0  0.004540874860410205  0.6993293697642217  0.8402442382707419  1.0000
  N   N28       1.0  0.9954589618352256  0.30067076807199566  0.15975524804095187  1.0000
  N   N29       1.0  0.9960080701850204  0.3409241701231878  0.7994818918556702  1.0000
  N   N30       1.0  0.003992139547939568  0.6590751511477536  0.20051754974645766  1.0000
  N   N31       1.0  0.9989827352629846  0.4352774716813884  0.7519545050713388  1.0000
  N   N32       1.0  0.0010171014326516533  0.5647226661548289  0.24804498124035487  1.0000
  N   N33       1.0  0.005390320083520818  0.2661169916763839  0.5358060381263385  1.0000
  N   N34       1.0  0.9946098896494462  0.7338823295945575  0.4641934034757894  1.0000
  N   N35       1.0  0.001969911123218402  0.9628472341538271  0.7661530813062851  1.0000
  N   N36       1.0  0.9980302986097485  0.0371520871171072  0.23384712249096395  1.0000
  O   O1        1.0  0.3166933518520664  0.5712633540489804  0.40963620774395787  1.0000
  O   O2        1.0  0.68330524201307  0.4287416831789201  0.5903641869835281  1.0000
  O   O3        1.0  0.3294979978091987  0.7208066697632207  0.47724669487070054  1.0000
  O   O4        1.0  0.6705050743857652  0.2791951012035625  0.522756965883822  1.0000
  O   O5        1.0  0.3203731494669098  0.9589628331160684  0.12055568784040097  1.0000
  O   O6        1.0  0.6796276826222184  0.041037304720156  0.8794436764345333  1.0000
  O   O7        1.0  0.3182991514974205  0.8873639396550459  0.2726170966720858  1.0000
  O   O8        1.0  0.6817010582355465  0.1126353816158954  0.7273823449300421  1.0000
  O   O9        1.0  0.3386941083377764  0.2406605690671242  0.504867744333218  1.0000
  O   O10       1.0  0.6613054790390223  0.7593379356385344  0.49513253679121744  1.0000
  O   O11       1.0  0.3351687077506682  0.0891754611166533  0.4345069544559833  1.0000
  O   O12       1.0  0.6648301335514617  0.910824676719571  0.5654941782827193  1.0000
  O   O13       1.0  0.31877129043608216  0.8604083031913989  0.7967561701110666  1.0000
  O   O14       1.0  0.6812289192968847  0.1395910180795426  0.2032425092959329  1.0000
  O   O15       1.0  0.3360348363844778  0.9258478447441121  0.6425795632102621  1.0000
  O   O16       1.0  0.6639646272738204  0.07415310965738801  0.35741996781100477  1.0000
  O   O17       1.0  0.00486052909226938  0.17025549404571194  0.5329204820239112  1.0000
  O   O18       1.0  0.9951406760341969  0.8297438272252293  0.4670788375414502  1.0000
  O   O19       1.0  0.00756868382320868  0.32034835819349894  0.4568778803865285  1.0000
  O   O20       1.0  0.9924315259097581  0.6796509630774423  0.5431215612155994  1.0000
  O   O21       1.0  0.9987123352487046  0.0430019607842382  0.8204520421230013  1.0000
  O   O22       1.0  0.0012884968404308036  0.9569981770519789  0.179547322151933  1.0000
  O   O23       1.0  0.004650323809656068  0.9643750277930253  0.6701319913688194  1.0000
  O   O24       1.0  0.99534951288598  0.03562511004319191  0.32986825713799556  1.0000
