data_image0
_chemical_formula_structural       Cu2H24C36N4O12F8
_chemical_formula_sum              "Cu2 H24 C36 N4 O12 F8"
_cell_length_a       7.438801397270924
_cell_length_b       11.070039592633556
_cell_length_c       12.795733922458584
_cell_angle_alpha    90.00086685955377
_cell_angle_beta     90.00043435362409
_cell_angle_gamma    90.00087191450788

_space_group_name_H-M_alt    "P 1"
_space_group_IT_number       1

loop_
  _space_group_symop_operation_xyz
  'x, y, z'

loop_
  _atom_site_type_symbol
  _atom_site_label
  _atom_site_symmetry_multiplicity
  _atom_site_fract_x
  _atom_site_fract_y
  _atom_site_fract_z
  _atom_site_occupancy
  Cu  Cu1       1.0  0.500002864046408  0.688995446587043  0.500002719152711  1.0000
  Cu  Cu2       1.0  4.847780381599999e-06  0.3110052111182284  1.2527392243999995e-06  1.0000
  H   H1        1.0  0.21375164022457221  0.6605516861615683  0.6314543079139128  1.0000
  H   H2        1.0  0.7862521026620254  0.6605469082030808  0.3685491952421103  1.0000
  H   H3        1.0  0.7137535089342606  0.33944998085303985  0.8685487358645716  1.0000
  H   H4        1.0  0.2862524098258418  0.3394548851229757  0.1314638524801452  1.0000
  H   H5        1.0  0.4090829092018354  0.6351485603556455  0.6859578934199249  1.0000
  H   H6        1.0  0.5909202613836014  0.6351471443294727  0.31404449593019024  1.0000
  H   H7        1.0  0.9090806061073236  0.36485421098105775  0.8140405400770021  1.0000
  H   H8        1.0  0.09092050775362989  0.3648589646132974  0.1859653469925533  1.0000
  H   H9        1.0  0.5620489052732793  0.8777751039822019  0.34256255479531456  1.0000
  H   H10       1.0  0.43795032163937  0.877781737748471  0.6574375379940561  1.0000
  H   H11       1.0  0.06205137877683599  0.12222257808767267  0.1574385643045275  1.0000
  H   H12       1.0  0.937953678624538  0.12222133035420062  0.842563367188859  1.0000
  H   H13       1.0  0.5622727022735388  0.1035601071603836  0.33553874575349607  1.0000
  H   H14       1.0  0.43773193472593147  0.10356595821134108  0.6644605971170776  1.0000
  H   H15       1.0  0.0622698573039102  0.8964375771482909  0.1644584667679752  1.0000
  H   H16       1.0  0.937733822852152  0.8964362042589117  0.8355356180320399  1.0000
  H   H17       1.0  0.3607503389880832  0.27534992321452734  0.35133844123668473  1.0000
  H   H18       1.0  0.6392541355789517  0.2753566658809917  0.6486678380056432  1.0000
  H   H19       1.0  0.8607499511515185  0.7246490223380064  0.1486577413462484  1.0000
  H   H20       1.0  0.13925389145735073  0.7246451386982071  0.8513309701088544  1.0000
  H   H21       1.0  0.3571273589968342  0.5008369888250428  0.3611463014826626  1.0000
  H   H22       1.0  0.642879507205464  0.5008454038080288  0.6388605829994561  1.0000
  H   H23       1.0  0.8571298287812041  0.49916101618441633  0.1388522096751927  1.0000
  H   H24       1.0  0.1428783437257835  0.499156438050683  0.861140585611814  1.0000
  C   C1        1.0  0.5337981028449404  0.9320373368861894  0.4114701884489449  1.0000
  C   C2        1.0  0.4662063795015853  0.9320430553213583  0.5885313956989363  1.0000
  C   C3        1.0  0.0337957660656798  0.06796276478421248  0.0885292432107434  1.0000
  C   C4        1.0  0.9662053801941892  0.06795849649948592  0.9114680708911322  1.0000
  C   C5        1.0  0.5334897954474584  0.05739003106211982  0.4085072312223517  1.0000
  C   C6        1.0  0.46651783423419596  0.05739490116433641  0.5914915076651397  1.0000
  C   C7        1.0  0.0334843499477913  0.9426091640705254  0.091490636045755  1.0000
  C   C8        1.0  0.9665163375617138  0.9426084605061934  0.9085048342655354  1.0000
  C   C9        1.0  0.500009928127156  0.12273459920155724  0.4999990153399523  1.0000
  C   C10       1.0  0.9999987430782863  0.8772663966465191  0.9999966925520171  1.0000
  C   C11       1.0  0.5000047061247057  0.2558461375674881  0.5000006675017729  1.0000
  C   C12       1.0  2.8085456804999976e-06  0.7441524290094464  0.9999944012525006  1.0000
  C   C13       1.0  0.42375605768243924  0.3210570737836704  0.4172319340191066  1.0000
  C   C14       1.0  0.5762507909313539  0.32106020917461825  0.5827749431322502  1.0000
  C   C15       1.0  0.9237551245457493  0.6789416160575429  0.08276687058720002  1.0000
  C   C16       1.0  0.0762476882884471  0.6789382377799458  0.9172228059591205  1.0000
  C   C17       1.0  0.42330983938783345  0.4463321740366196  0.4207948771534262  1.0000
  C   C18       1.0  0.5766957987627208  0.4463361549894245  0.5792105127706719  1.0000
  C   C19       1.0  0.9233100702471903  0.5536683179091926  0.07920470701242982  1.0000
  C   C20       1.0  0.0766939531113451  0.5536641032444364  0.9207895828266643  1.0000
  C   C21       1.0  0.8997790886407911  0.6988619825485572  0.6053145440850329  1.0000
  C   C22       1.0  0.1002228287656521  0.6988596439530214  0.39468398967360224  1.0000
  C   C23       1.0  0.39977121298216634  0.3011379831597765  0.8946893189779104  1.0000
  C   C24       1.0  0.6002244323870655  0.30113662381515394  0.10531807905420722  1.0000
  C   C25       1.0  0.9549273450262489  0.8144620775902779  0.548438652845121  1.0000
  C   C26       1.0  0.04507583256447129  0.8144610707190554  0.4515606116607174  1.0000
  C   C27       1.0  0.4549149184137348  0.18553664821499183  0.9515599825148016  1.0000
  C   C28       1.0  0.5450714009453747  0.18554005019890238  0.0484388696713012  1.0000
  C   C29       1.0  0.9138443169822421  0.9251944838703778  0.5944772867915731  1.0000
  C   C30       1.0  0.08614925662738668  0.9251894802668232  0.4055203001936362  1.0000
  C   C31       1.0  0.41383551637188265  0.07480833636666519  0.9055203861514727  1.0000
  C   C32       1.0  0.586144275281171  0.0748057394103228  0.09447467293465188  1.0000
  C   C33       1.0  0.9577671459185807  0.0353347981915704  0.548524218156885  1.0000
  C   C34       1.0  0.042226543770006196  0.035333760585032806  0.4514750136517165  1.0000
  C   C35       1.0  0.4577601731226011  0.964662150097908  0.9514681776269569  1.0000
  C   C36       1.0  0.5422235353338037  0.9646664277007488  0.0485228921073428  1.0000
  N   N1        1.0  0.5000035603451848  0.870142043506242  0.5000007779654325  1.0000
  N   N2        1.0  1.1853818189999996e-07  0.1298568074795199  8.493744018999999e-07  1.0000
  N   N3        1.0  0.5000035117551106  0.5078226528398063  0.500004660171605  1.0000
  N   N4        1.0  2.6586992944999996e-06  0.4921786238228379  0.9999990052125796  1.0000
  O   O1        1.0  0.022958437553206992  0.6265228433554598  0.6336997262666485  1.0000
  O   O2        1.0  0.9770431943041868  0.6265172770910965  0.3662962981301233  1.0000
  O   O3        1.0  0.5229529778445681  0.37347866926203455  0.8663079477612001  1.0000
  O   O4        1.0  0.4770496745969622  0.3734738305142997  0.1337097747286222  1.0000
  O   O5        1.0  0.7340319125957534  0.6854512053021439  0.6217789538989038  1.0000
  O   O6        1.0  0.26596835840388877  0.685452088928109  0.3782201859518323  1.0000
  O   O7        1.0  0.23402546858432766  0.3145524768075134  0.8782249607049337  1.0000
  O   O8        1.0  0.7659731675298147  0.3145476890972034  0.12177479769110279  1.0000
  O   O9        1.0  0.348301888338831  0.688235251227397  0.6366838718248856  1.0000
  O   O10       1.0  0.6517024782639494  0.6882271921625929  0.3633262455429858  1.0000
  O   O11       1.0  0.8483003764771837  0.3117668953836913  0.8633158569939782  1.0000
  O   O12       1.0  0.15169819704863127  0.311775928176516  0.1366862095835728  1.0000
  F   F1        1.0  0.827629478958592  0.9298732544542858  0.6882341568188082  1.0000
  F   F2        1.0  0.1723615114655814  0.9298693031118006  0.31176270986341587  1.0000
  F   F3        1.0  0.32760993932726007  0.0701241628578515  0.8117623548404609  1.0000
  F   F4        1.0  0.6723616810752729  0.0701286094380791  0.18823576903863432  1.0000
  F   F5        1.0  0.9196482610551581  0.140807096326121  0.5968956329708419  1.0000
  F   F6        1.0  0.0803437720074598  0.14080470078604887  0.4031049785825828  1.0000
  F   F7        1.0  0.4196490352395584  0.8591903635816892  0.9031020655204288  1.0000
  F   F8        1.0  0.5803363298734041  0.8591949759224351  0.0968923135318533  1.0000
