data_image0
_chemical_formula_structural       Zn16H16C96S16N16O84
_chemical_formula_sum              "Zn16 H16 C96 S16 N16 O84"
_cell_length_a       19.613634693694483
_cell_length_b       19.573597014432874
_cell_length_c       33.29383224577539
_cell_angle_alpha    79.12308148640905
_cell_angle_beta     79.00289276970753
_cell_angle_gamma    63.85915270869033

_space_group_name_H-M_alt    "P 1"
_space_group_IT_number       1

loop_
  _space_group_symop_operation_xyz
  'x, y, z'

loop_
  _atom_site_type_symbol
  _atom_site_label
  _atom_site_symmetry_multiplicity
  _atom_site_fract_x
  _atom_site_fract_y
  _atom_site_fract_z
  _atom_site_occupancy
  Zn  Zn1       1.0  0.055514712087863  0.4001345548103714  0.47750381407403353  1.0000
  Zn  Zn2       1.0  0.987144825217257  0.48265401992171797  0.5597099670599733  1.0000
  Zn  Zn3       1.0  0.058041246935346194  0.5637105054471049  0.4825846111123654  1.0000
  Zn  Zn4       1.0  0.9021283599900443  0.5530774878319706  0.4772194200157003  1.0000
  Zn  Zn5       1.0  0.6950554209419763  0.3488870754267312  0.2718007233375701  1.0000
  Zn  Zn6       1.0  0.6907952152364344  0.1890447874582223  0.2644013243565624  1.0000
  Zn  Zn7       1.0  0.7701493203619235  0.2642733867991681  0.18872538493048555  1.0000
  Zn  Zn8       1.0  0.8497879779664074  0.19708698684926423  0.2710499205686787  1.0000
  Zn  Zn9       1.0  0.2681780363493686  0.763431261339747  0.6886459387897049  1.0000
  Zn  Zn10      1.0  0.3506954058174685  0.6965816863403802  0.7699481677614204  1.0000
  Zn  Zn11      1.0  0.19535230462544464  0.8487083101787788  0.7717400427981218  1.0000
  Zn  Zn12      1.0  0.1905109418842201  0.6888469023804406  0.7644698765728535  1.0000
  Zn  Zn13      1.0  0.5583167318331804  0.06358283739206878  0.9826467911600076  1.0000
  Zn  Zn14      1.0  0.4029834705402209  0.0537794438235579  0.9759944143352969  1.0000
  Zn  Zn15      1.0  0.555500458764307  0.9002324412186835  0.9777708732451345  1.0000
  Zn  Zn16      1.0  0.48474372626589707  0.9858844873345802  0.0597120851496413  1.0000
  H   H1        1.0  0.7964320649473109  0.5013685071389491  0.3998709953476053  1.0000
  H   H2        1.0  0.9512447880512269  0.24386302279632596  0.3525396995261049  1.0000
  H   H3        1.0  0.7474487287655975  0.4551120893194281  0.3511389342701392  1.0000
  H   H4        1.0  0.0019460367211152994  0.29181145345710036  0.3995768285407664  1.0000
  H   H5        1.0  0.1541561368748674  0.6535224902435105  0.5475079738422934  1.0000
  H   H6        1.0  0.09647952686709968  0.5984745589899774  0.6992664994671715  1.0000
  H   H7        1.0  0.20070584975621844  0.7028326100415541  0.5959816707770359  1.0000
  H   H8        1.0  0.045943836013606194  0.5532579073494759  0.650816450016343  1.0000
  H   H9        1.0  0.7025035856758207  0.2033061857706713  0.09511145386453994  1.0000
  H   H10       1.0  0.5493505447825698  0.052411725537467625  0.1506696989356584  1.0000
  H   H11       1.0  0.655162959506981  0.15416185012269792  0.04692602536545113  1.0000
  H   H12       1.0  0.6002752248725756  0.09784480828232488  0.19878885408704156  1.0000
  H   H13       1.0  0.24731635580661052  0.9528731966180143  0.8520674557643632  1.0000
  H   H14       1.0  0.5031040092588909  0.7918471879696728  0.8993089891473433  1.0000
  H   H15       1.0  0.2951345830185943  0.9990226498555048  0.901377519908671  1.0000
  H   H16       1.0  0.4536018607476747  0.7440256933761303  0.8516222136883941  1.0000
  C   C1        1.0  0.0651912956106671  0.3162089967172649  0.5602487510002945  1.0000
  C   C2        1.0  0.0684978281708482  0.5724193508849496  0.5677763037415602  1.0000
  C   C3        1.0  0.18086075996003362  0.4412837228811028  0.43814482472257055  1.0000
  C   C4        1.0  0.936473026746533  0.6839293220586388  0.4382243264989399  1.0000
  C   C5        1.0  0.9312154927585041  0.4276568209294993  0.4308938036036097  1.0000
  C   C6        1.0  0.8212845095072012  0.5572008999878548  0.5600364605182052  1.0000
  C   C7        1.0  0.5669832481996977  0.3102049214967337  0.3094810399862099  1.0000
  C   C8        1.0  0.6836561510416885  0.18067113192078224  0.17845705213741783  1.0000
  C   C9        1.0  0.691721492481733  0.4313265243600954  0.18905165476263622  1.0000
  C   C10       1.0  0.9353780771619142  0.18998495651734962  0.18871616568251431  1.0000
  C   C11       1.0  0.8174402669302269  0.31898655397728265  0.3203460652532968  1.0000
  C   C12       1.0  0.8116637728659059  0.06882611936745055  0.3085736855187093  1.0000
  C   C13       1.0  0.43460041816627637  0.6870803973338722  0.6877972143569481  1.0000
  C   C14       1.0  0.31920376493015823  0.8182650342053677  0.8197122104779454  1.0000
  C   C15       1.0  0.1933257874892433  0.9301019038224824  0.688778730123346  1.0000
  C   C16       1.0  0.0668862393993024  0.810598512211989  0.8093601283656113  1.0000
  C   C17       1.0  0.18073389650138688  0.68075952916044  0.6791500351476217  1.0000
  C   C18       1.0  0.31089511237531303  0.5694624520998628  0.8092362851640262  1.0000
  C   C19       1.0  0.4382190399748467  0.18343617130287276  0.9374711168696878  1.0000
  C   C20       1.0  0.4311547928972955  0.9268337765643866  0.9314340865351981  1.0000
  C   C21       1.0  0.6809745561481435  0.9410067337542216  0.9382709738038671  1.0000
  C   C22       1.0  0.5625390351308467  0.818270741605339  0.06123770994145876  1.0000
  C   C23       1.0  0.5696694405675728  0.0728108154777871  0.06763667546356798  1.0000
  C   C24       1.0  0.3201966838974712  0.062246055180231984  0.059178817767950406  1.0000
  C   C25       1.0  0.9019782130361946  0.3992681498015216  0.40240180594887687  1.0000
  C   C26       1.0  0.8466064054582673  0.3469035844538695  0.34909585167554985  1.0000
  C   C27       1.0  0.830013160085926  0.44541191161208354  0.38905321863042264  1.0000
  C   C28       1.0  0.9181913867840593  0.3003647347414428  0.36281146695240823  1.0000
  C   C29       1.0  0.8027598445080812  0.4196393721957606  0.36217756903656817  1.0000
  C   C30       1.0  0.9461166999266482  0.3268182512313871  0.3890286034293311  1.0000
  C   C31       1.0  0.09739418247844608  0.6007159776034642  0.5964563989509556  1.0000
  C   C32       1.0  0.1515051004766903  0.6530963502954775  0.6503371960654293  1.0000
  C   C33       1.0  0.14128661895860972  0.6424753407339592  0.5807499272437511  1.0000
  C   C34       1.0  0.10823240039498931  0.6106966363184938  0.6660268356953979  1.0000
  C   C35       1.0  0.16748347192713445  0.6693987783233412  0.607610684261438  1.0000
  C   C36       1.0  0.08052398324615238  0.5853223099533909  0.6391838185835398  1.0000
  C   C37       1.0  0.3064604821878589  0.45391753766725174  0.4018878340219416  1.0000
  C   C38       1.0  0.4465910902702389  0.2934103922237271  0.3507733755131497  1.0000
  C   C39       1.0  0.25886764631609077  0.4161588989626707  0.41514016948810456  1.0000
  C   C40       1.0  0.4932900422729176  0.3319027705227953  0.3367584234902381  1.0000
  C   C41       1.0  0.3767286241284041  0.33914421552793783  0.37285461025128797  1.0000
  C   C42       1.0  0.37326088014519604  0.41074558360589475  0.3767711671009976  1.0000
  C   C43       1.0  0.728708657777382  0.5769113910099721  0.6291586635130529  1.0000
  C   C44       1.0  0.5275647759712071  0.6756154323355975  0.6192510519242092  1.0000
  C   C45       1.0  0.7468170440834142  0.5851662071452495  0.5865035644076003  1.0000
  C   C46       1.0  0.5095331628125236  0.6661578475596811  0.661831843904487  1.0000
  C   C47       1.0  0.6073413739778957  0.6399348649199582  0.6070761868650223  1.0000
  C   C48       1.0  0.6487228929560587  0.6066391979188239  0.6410393665068809  1.0000
  C   C49       1.0  0.0756616331494442  0.22372084718355015  0.6288601284341412  1.0000
  C   C50       1.0  0.17409169646115424  0.021924482941344123  0.6194246674147621  1.0000
  C   C51       1.0  0.0855717948251566  0.24130782003695123  0.5862621012425678  1.0000
  C   C52       1.0  0.1655981541814882  0.004385840254606408  0.6621075029716579  1.0000
  C   C53       1.0  0.1446778802985591  0.10195461627935745  0.6073229031031103  1.0000
  C   C54       1.0  0.1112328284792241  0.14392748127975344  0.6411637941333624  1.0000
  C   C55       1.0  0.8396277884803284  0.8053799873080367  0.3979462373091921  1.0000
  C   C56       1.0  0.9045531514971971  0.9519909730831417  0.3535264140022747  1.0000
  C   C57       1.0  0.9079690415448168  0.7613829489529493  0.4147100264120881  1.0000
  C   C58       1.0  0.8367519633464511  0.9954321154131023  0.3360788300308144  1.0000
  C   C59       1.0  0.9071650786600215  0.8810371893870655  0.3744398882666858  1.0000
  C   C60       1.0  0.83957308415129  0.873266175507979  0.37393611525107673  1.0000
  C   C61       1.0  0.6542602169204558  0.15310543900567808  0.14964888800520978  1.0000
  C   C62       1.0  0.5993429973926537  0.1007977263119885  0.09609487747469103  1.0000
  C   C63       1.0  0.6695400425788306  0.1696542178812736  0.10689715840702971  1.0000
  C   C64       1.0  0.583392393062816  0.08495851722999971  0.1388597013753383  1.0000
  C   C65       1.0  0.6428995682025161  0.1428316342402879  0.08019736394821561  1.0000
  C   C66       1.0  0.6114059593158102  0.11034361800596335  0.16552554550885654  1.0000
  C   C67       1.0  0.6717947031356388  0.5238142240963768  0.11996787240443754  1.0000
  C   C68       1.0  0.5729871111902014  0.7254002989667968  0.12987438016850922  1.0000
  C   C69       1.0  0.6632069792977617  0.5058557462267926  0.16261434211487116  1.0000
  C   C70       1.0  0.5829956432998955  0.7433502430973817  0.08731392627596081  1.0000
  C   C71       1.0  0.6085678517650165  0.6455240658286246  0.142015089890414  1.0000
  C   C72       1.0  0.6422267423292425  0.6038991881403322  0.10805661186179799  1.0000
  C   C73       1.0  0.08463877364521008  0.12064309773703032  0.176558281827738  1.0000
  C   C74       1.0  0.17033325992350257  0.12290977624135731  0.07094245451288832  1.0000
  C   C75       1.0  0.0118126782694645  0.16033967204678126  0.1642853866386886  1.0000
  C   C76       1.0  0.24332777431347807  0.08450144919230246  0.0832253643550445  1.0000
  C   C77       1.0  0.11251325025990869  0.1393626251944298  0.1050134755453556  1.0000
  C   C78       1.0  0.1427537144194986  0.1101070983438035  0.1427107730081758  1.0000
  C   C79       1.0  0.34780860670733915  0.8459202537625786  0.8489406862297458  1.0000
  C   C80       1.0  0.4020156636769698  0.898222323346424  0.9029798714490341  1.0000
  C   C81       1.0  0.3029638850254273  0.9178788414999205  0.8628080833121177  1.0000
  C   C82       1.0  0.4470190773638548  0.8263947006828687  0.8889878167353801  1.0000
  C   C83       1.0  0.329600174524991  0.9436458148704145  0.8900145523619899  1.0000
  C   C84       1.0  0.4197383328472313  0.8000078006605806  0.8623950852878153  1.0000
  C   C85       1.0  0.4039922079114788  0.4530219931033486  0.8541907085536309  1.0000
  C   C86       1.0  0.34050972448218886  0.305202591263857  0.8980130635369219  1.0000
  C   C87       1.0  0.3358773068355275  0.496393878485634  0.8370206910078721  1.0000
  C   C88       1.0  0.4091959599856309  0.2612000339039753  0.9144036640734755  1.0000
  C   C89       1.0  0.33976050044798  0.373646263750267  0.8744237994173361  1.0000
  C   C90       1.0  0.40723455887745524  0.38170593211297194  0.8748334413994456  1.0000
  C   C91       1.0  0.9466049602869401  0.7935477612093468  0.8507822768743128  1.0000
  C   C92       1.0  0.8063988386171986  0.953847629645452  0.9020082731713259  1.0000
  C   C93       1.0  0.993214297029162  0.8321518839014531  0.8367103224403396  1.0000
  C   C94       1.0  0.7589389732111653  0.9159298013334548  0.915271467659011  1.0000
  C   C95       1.0  0.8731535658958265  0.9108784611156936  0.8767967967637348  1.0000
  C   C96       1.0  0.8767408368573725  0.839239565904791  0.87287546084238  1.0000
  S   S1        1.0  0.29708724738814846  0.3269131426288895  0.3977662838601645  1.0000
  S   S2        1.0  0.45250554950235516  0.4234037268354811  0.3516384225093319  1.0000
  S   S3        1.0  0.6658543503625153  0.6313084604263179  0.5611107201474682  1.0000
  S   S4        1.0  0.5904435397112736  0.6153145817426305  0.6870502907342556  1.0000
  S   S5        1.0  0.1364932272453956  0.1598614220629386  0.5612248048765522  1.0000
  S   S6        1.0  0.11962159687884372  0.0859847130000375  0.6872477036717797  1.0000
  S   S7        1.0  0.9714719772127934  0.8041699645922764  0.4019566884576093  1.0000
  S   S8        1.0  0.7754355335383636  0.9502289342764814  0.34633608473365746  1.0000
  S   S9        1.0  0.6169689010203854  0.5871321137854724  0.18797098905423584  1.0000
  S   S10       1.0  0.6342659648812228  0.6621526152792827  0.062094985030476786  1.0000
  S   S11       1.0  0.014407255508892498  0.1829247941964027  0.1111803632036725  1.0000
  S   S12       1.0  0.2408968247098144  0.06662114552948853  0.13643574554696872  1.0000
  S   S13       1.0  0.27497639236302956  0.4507896431774867  0.8472700698350267  1.0000
  S   S14       1.0  0.47216980332982667  0.30458027752959543  0.9018573046052508  1.0000
  S   S15       1.0  0.9523406379751547  0.9236411939730477  0.8516055301673333  1.0000
  S   S16       1.0  0.7972732599587075  0.826749492833663  0.8978070674810115  1.0000
  N   N1        1.0  0.2972314524988349  0.5262335279981373  0.4130425048284607  1.0000
  N   N2        1.0  0.4641013998238179  0.21405535035670198  0.34736091538090363  1.0000
  N   N3        1.0  0.7803173761891528  0.5484239779580734  0.6606860839387211  1.0000
  N   N4        1.0  0.47572599863890724  0.7206469657953253  0.5885125975817118  1.0000
  N   N5        1.0  0.030248458751586296  0.2757508248124553  0.6596325643017168  1.0000
  N   N6        1.0  0.20264418968021394  0.9697148747588571  0.588033151591361  1.0000
  N   N7        1.0  0.7711263140552873  0.7911782194818712  0.40463851680333124  1.0000
  N   N8        1.0  0.9662148585608746  0.9735636030741476  0.3550602847313798  1.0000
  N   N9        1.0  0.7013694334465937  0.4717694924716298  0.08851611888155737  1.0000
  N   N10       1.0  0.5280373963547689  0.7772854323445199  0.16074737120483468  1.0000
  N   N11       1.0  0.10483115083570031  0.0865656826027248  0.2179086379948529  1.0000
  N   N12       1.0  0.14888834995162628  0.14102592823097385  0.029356279175253512  1.0000
  N   N13       1.0  0.4655793400519102  0.4748108684437185  0.8552989668603743  1.0000
  N   N14       1.0  0.2721966563404195  0.2905967266041429  0.9048229256944327  1.0000
  N   N15       1.0  0.9640520293201219  0.7141213206269584  0.8476049373311272  1.0000
  N   N16       1.0  0.7971103498520479  0.026083362042975053  0.9132955209727954  1.0000
  O   O1        1.0  0.0011822638004800995  0.49958924569713065  0.4990336699480765  1.0000
  O   O2        1.0  0.0668926095512674  0.3140044843538591  0.5218865513884198  1.0000
  O   O3        1.0  0.020520580721210997  0.5440535875353163  0.5837743625407797  1.0000
  O   O4        1.0  0.14157349481664736  0.5124767899758994  0.43983332341816356  1.0000
  O   O5        1.0  0.0503821238929802  0.37427397034385024  0.5776974412316774  1.0000
  O   O6        1.0  0.1603319407189687  0.3870070799884503  0.45309001867101273  1.0000
  O   O7        1.0  0.09390727637375558  0.5786850368827602  0.5295492552142846  1.0000
  O   O8        1.0  0.995222956790151  0.6664009724505747  0.4561203804814086  1.0000
  O   O9        1.0  0.8835123271500009  0.48811882512070776  0.44692558398254095  1.0000
  O   O10       1.0  0.902571194845983  0.6419855278237775  0.4376672467717028  1.0000
  O   O11       1.0  0.0013467364073135996  0.38949828602926573  0.4370226463722986  1.0000
  O   O12       1.0  0.8783697631845299  0.5036528665376641  0.5757405779282293  1.0000
  O   O13       1.0  0.8193431902645828  0.589419915651355  0.5227683081191544  1.0000
  O   O14       1.0  0.7503349559240249  0.2505813224336535  0.24919932675454964  1.0000
  O   O15       1.0  0.6021088158939064  0.352153816578337  0.3089400353891989  1.0000
  O   O16       1.0  0.6776425144361156  0.15414668017800895  0.21648472877513572  1.0000
  O   O17       1.0  0.7454173785878523  0.3744932993965264  0.17310146322611794  1.0000
  O   O18       1.0  0.5871478089943735  0.2548778706421118  0.2887467777038282  1.0000
  O   O19       1.0  0.6599170572937679  0.43307346520597917  0.2264190501952825  1.0000
  O   O20       1.0  0.712543012625673  0.22842826496922453  0.16292066805598893  1.0000
  O   O21       1.0  0.8792478731272553  0.20864107503228968  0.16843700112356438  1.0000
  O   O22       1.0  0.8551860794190914  0.24884393657132628  0.3139704578153797  1.0000
  O   O23       1.0  0.9319426768230628  0.19629387258846973  0.22634603384301505  1.0000
  O   O24       1.0  0.7572641020579169  0.3672684912352225  0.30433334945673357  1.0000
  O   O25       1.0  0.7398354875327582  0.1016105231925693  0.30551205357772915  1.0000
  O   O26       1.0  0.8624025005163104  0.09104115740355925  0.2899510167797957  1.0000
  O   O27       1.0  0.25038921571162115  0.7501681121738529  0.7493822192366864  1.0000
  O   O28       1.0  0.3767495452495879  0.7006708578627254  0.6706438601711683  1.0000
  O   O29       1.0  0.35859081684211697  0.7490088278269413  0.8119789383592604  1.0000
  O   O30       1.0  0.16141293024710274  0.9326104746569615  0.7261570208202457  1.0000
  O   O31       1.0  0.4365568833465119  0.6870561587375266  0.7260005094604338  1.0000
  O   O32       1.0  0.24642824545280462  0.872640631609848  0.6730501178128705  1.0000
  O   O33       1.0  0.25777173270184045  0.8659967240216349  0.8046962467931068  1.0000
  O   O34       1.0  0.1020380161362837  0.8525076558052761  0.808845204008108  1.0000
  O   O35       1.0  0.17624961093208205  0.6532605780392942  0.7171085920600079  1.0000
  O   O36       1.0  0.08688918967078507  0.7554290562236403  0.7885528298401924  1.0000
  O   O37       1.0  0.2080976275007131  0.7297403848814953  0.6636508424741195  1.0000
  O   O38       1.0  0.3619109862477004  0.5909683850004724  0.7902499963551436  1.0000
  O   O39       1.0  0.2390830653159668  0.602383662845945  0.8062280183630222  1.0000
  O   O40       1.0  0.5011092440752875  0.9996993675416308  0.9992139101703827  1.0000
  O   O41       1.0  0.4958906614236298  0.16640787431207127  0.956186404188266  1.0000
  O   O42       1.0  0.3835956612523006  0.9876401391842224  0.9472190336770938  1.0000
  O   O43       1.0  0.6603374561051751  0.886795065161081  0.9532311573471193  1.0000
  O   O44       1.0  0.40577711989040927  0.14071385973533523  0.9357631521383356  1.0000
  O   O45       1.0  0.6417170625881923  0.01221729624633385  0.9399551550486792  1.0000
  O   O46       1.0  0.5012293453859088  0.8885778235433721  0.9377253522130361  1.0000
  O   O47       1.0  0.5664869011484299  0.8151956547901451  0.022770235778665403  1.0000
  O   O48       1.0  0.5213946417821801  0.04492665957534579  0.08386037131985091  1.0000
  O   O49       1.0  0.5454776139674209  0.8768822528895582  0.07871602508399181  1.0000
  O   O50       1.0  0.5946766432370508  0.07891672086754668  0.0293603706813457  1.0000
  O   O51       1.0  0.3249189146414651  0.09472501750587271  0.02266990042807041  1.0000
  O   O52       1.0  0.3753479194106859  0.013054760610387564  0.078851418588016  1.0000
  O   O53       1.0  0.3327856572885608  0.5590890259470739  0.3882020855927308  1.0000
  O   O54       1.0  0.2592391580452826  0.5482830275144581  0.4458806328757845  1.0000
  O   O55       1.0  0.4073563257025937  0.2011370971216451  0.34710969663455427  1.0000
  O   O56       1.0  0.5309853663758018  0.16568521123346622  0.3468674176548134  1.0000
  O   O57       1.0  0.7536256901105389  0.5263740601210074  0.6951197909354789  1.0000
  O   O58       1.0  0.84314067775621  0.5511317475944041  0.6524909363635701  1.0000
  O   O59       1.0  0.4981070987512837  0.6993704834256177  0.5534569294920858  1.0000
  O   O60       1.0  0.4168889408172233  0.776939238897107  0.5981534445776759  1.0000
  O   O61       1.0  0.05139372653127339  0.25361729137664213  0.6946700705364677  1.0000
  O   O62       1.0  0.9737514942012025  0.334286763696774  0.6500996674944802  1.0000
  O   O63       1.0  0.22527387213166608  0.9958009575854593  0.5535844507745581  1.0000
  O   O64       1.0  0.19938289468384338  0.9070571900694305  0.5963677372443144  1.0000
  O   O65       1.0  0.7306033512735794  0.8187930033803497  0.37590826195583565  1.0000
  O   O66       1.0  0.7561223251525675  0.7570100726792646  0.4377576929014141  1.0000
  O   O67       1.0  0.028898915707486608  0.9185466138566339  0.3610731383221762  1.0000
  O   O68       1.0  0.9525781145376584  0.041929214436301314  0.35250074072522614  1.0000
  O   O69       1.0  0.7249833486037857  0.4978465439993799  0.05433573804423023  1.0000
  O   O70       1.0  0.6983644809303867  0.40893532196380294  0.09649734025680351  1.0000
  O   O71       1.0  0.550110736164889  0.7554526915955861  0.19556676063560732  1.0000
  O   O72       1.0  0.4710621556979504  0.8355609788993592  0.15149292738078662  1.0000
  O   O73       1.0  0.16838774617939123  0.07958561363998481  0.22420208834161312  1.0000
  O   O74       1.0  0.061204813560046  0.06438069150993901  0.2425798474500027  1.0000
  O   O75       1.0  0.08400043122554018  0.193758746814865  0.0254026240446521  1.0000
  O   O76       1.0  0.19255829594349896  0.10239583041179404  0.0021133714270007062  1.0000
  O   O77       1.0  0.5286751097858371  0.4200027220076165  0.8608020386252093  1.0000
  O   O78       1.0  0.4518063496999004  0.5432650119883038  0.8527279464236699  1.0000
  O   O79       1.0  0.2306181401593577  0.3196344450685941  0.8765755936619969  1.0000
  O   O80       1.0  0.25843750285581274  0.2547985817044065  0.9375952334701199  1.0000
  O   O81       1.0  0.9071018566619884  0.700961418184697  0.8482881087174052  1.0000
  O   O82       1.0  0.031039157854792197  0.6658909261031026  0.8464581692182804  1.0000
  O   O83       1.0  0.832117999494919  0.05940307019646704  0.888393846203151  1.0000
  O   O84       1.0  0.7596111987906441  0.04761307368657693  0.9463332217339797  1.0000
