data_image0
_chemical_formula_structural       Cu4H64C52N8O16
_chemical_formula_sum              "Cu4 H64 C52 N8 O16"
_cell_length_a       8.665067639930879
_cell_length_b       12.936440821274827
_cell_length_c       13.565372583165548
_cell_angle_alpha    89.99962326125666
_cell_angle_beta     90.00043554783828
_cell_angle_gamma    92.19135643280147

_space_group_name_H-M_alt    "P 1"
_space_group_IT_number       1

loop_
  _space_group_symop_operation_xyz
  'x, y, z'

loop_
  _atom_site_type_symbol
  _atom_site_label
  _atom_site_symmetry_multiplicity
  _atom_site_fract_x
  _atom_site_fract_y
  _atom_site_fract_z
  _atom_site_occupancy
  Cu  Cu1       1.0  0.048854493191655  0.5859256672414759  0.04086998991613909  1.0000
  Cu  Cu2       1.0  0.45115064315616127  0.4140809076330925  0.5408688272895147  1.0000
  Cu  Cu3       1.0  0.951143681323323  0.4140811140897043  0.9591320463457504  1.0000
  Cu  Cu4       1.0  0.5488544352836157  0.5859251813975206  0.4591287859649212  1.0000
  H   H1        1.0  0.22687337674172878  0.6113569133760492  0.22680699546032196  1.0000
  H   H2        1.0  0.2731093274554652  0.38863732435201825  0.7268007084216492  1.0000
  H   H3        1.0  0.7731128675785327  0.3886373573953178  0.7731950408120055  1.0000
  H   H4        1.0  0.7268757141901644  0.6113553860167328  0.2731902702868679  1.0000
  H   H5        1.0  0.2795475303475996  0.7389089320553237  0.3605568267300754  1.0000
  H   H6        1.0  0.2204390786370851  0.26108599862313037  0.8605532975900939  1.0000
  H   H7        1.0  0.7204445591588636  0.2610877267198788  0.6394415236936126  1.0000
  H   H8        1.0  0.7795645094479156  0.7389092484815762  0.1394428413526825  1.0000
  H   H9        1.0  0.07870365479419658  0.970044991370031  0.17571808225515886  1.0000
  H   H10       1.0  0.421307516556638  0.029956108594127798  0.6757236110083367  1.0000
  H   H11       1.0  0.92130702905213  0.029955751087975095  0.8242758451743624  1.0000
  H   H12       1.0  0.5786995115358949  0.9700384056120512  0.3242762138003314  1.0000
  H   H13       1.0  0.03227160757651859  0.8307635148352047  0.0490613627977439  1.0000
  H   H14       1.0  0.4677426689957754  0.16923692659217687  0.5490662413137528  1.0000
  H   H15       1.0  0.9677366950392493  0.16923488019508426  0.9509347761465461  1.0000
  H   H16       1.0  0.5322562045456679  0.8307551725942374  0.45092768611434747  1.0000
  H   H17       1.0  0.30121780788008573  0.9134652330208013  0.41076210271427976  1.0000
  H   H18       1.0  0.19878694164057006  0.0865373043608031  0.9107676740655888  1.0000
  H   H19       1.0  0.6987872705298342  0.08654085602681501  0.5892303503427809  1.0000
  H   H20       1.0  0.8012248489514561  0.9134619046789679  0.0892343622530163  1.0000
  H   H21       1.0  0.2786298367934562  0.014151754751217998  0.32283732067539  1.0000
  H   H22       1.0  0.22135874107662087  0.985846545213633  0.8228484101149574  1.0000
  H   H23       1.0  0.7213554925877688  0.9858502371092538  0.6771536580046698  1.0000
  H   H24       1.0  0.778650692279875  0.0141510898463508  0.17715878640026253  1.0000
  H   H25       1.0  0.1902404639665747  0.1276398321049044  0.4401774272858957  1.0000
  H   H26       1.0  0.3097609461324566  0.8723555098269029  0.9401837597861658  1.0000
  H   H27       1.0  0.8097596361976115  0.8723546009587719  0.5598223975062666  1.0000
  H   H28       1.0  0.6902438925873682  0.12764284459329642  0.059824173886738684  1.0000
  H   H29       1.0  0.2180083677186957  0.0310942033230148  0.5319003060021004  1.0000
  H   H30       1.0  0.28200316121791497  0.9688985895140334  0.03190682538255629  1.0000
  H   H31       1.0  0.7819950765113075  0.9688964030285516  0.4680980444680641  1.0000
  H   H32       1.0  0.7180097840586939  0.031100633032494305  0.968100371136174  1.0000
  H   H33       1.0  0.08338018310006132  0.8608765821995874  0.51319534477215  1.0000
  H   H34       1.0  0.4166243932612587  0.13912244039396882  0.013192983893468097  1.0000
  H   H35       1.0  0.916625834235397  0.13912255921171376  0.4868096402169115  1.0000
  H   H36       1.0  0.5833839333665977  0.860876728074544  0.9868090524168875  1.0000
  H   H37       1.0  0.9603180955973017  0.8394322478833233  0.4089121556230494  1.0000
  H   H38       1.0  0.5396859602620127  0.1605613107616009  0.9089091206838374  1.0000
  H   H39       1.0  0.03968881263526209  0.16055839901765262  0.5910928293948459  1.0000
  H   H40       1.0  0.4603257344266892  0.8394348044427387  0.0910943899863597  1.0000
  H   H41       1.0  0.5954696140508773  0.7089275447833784  0.9568582989448442  1.0000
  H   H42       1.0  0.9045261669639258  0.2910787386192126  0.4568593481566552  1.0000
  H   H43       1.0  0.4045192273058901  0.29107603453206815  0.043142262962426486  1.0000
  H   H44       1.0  0.0954696982415939  0.708928015664469  0.543142688099735  1.0000
  H   H45       1.0  0.4971564964203876  0.6005396233613709  0.0102791667213538  1.0000
  H   H46       1.0  0.0028537955207354995  0.39945871258792204  0.5102810876101884  1.0000
  H   H47       1.0  0.5028506755612623  0.39945953157853614  0.9897243439283583  1.0000
  H   H48       1.0  0.9971592216428601  0.6005428303582435  0.48971800001983457  1.0000
  H   H49       1.0  0.4027075896150549  0.6261794297450578  0.8424476707431267  1.0000
  H   H50       1.0  0.0972918947423409  0.3738281442731548  0.34245261141379035  1.0000
  H   H51       1.0  0.5972776679047697  0.3738202417012105  0.15755583985195185  1.0000
  H   H52       1.0  0.9027050291761893  0.6261755297206973  0.6575442646574601  1.0000
  H   H53       1.0  0.49579074277033897  0.5070669260441676  0.8494801446343913  1.0000
  H   H54       1.0  0.0042065375983852986  0.49294134807529827  0.3494809381920873  1.0000
  H   H55       1.0  0.5041980027172102  0.4929335594164357  0.1505277889928962  1.0000
  H   H56       1.0  0.9957927675805535  0.5070646733292747  0.6505188865617625  1.0000
  H   H57       1.0  0.6393234378075405  0.7086601482926794  0.7626646980179288  1.0000
  H   H58       1.0  0.8606758696297802  0.2913474818727266  0.262665533426123  1.0000
  H   H59       1.0  0.36066302233573566  0.2913410835853441  0.2373410240883231  1.0000
  H   H60       1.0  0.13932338761028257  0.7086569926068477  0.7373372400166786  1.0000
  H   H61       1.0  0.7399768184560855  0.5940371871277038  0.7831431761370524  1.0000
  H   H62       1.0  0.7600261179479444  0.40596802834688356  0.2831435418924215  1.0000
  H   H63       1.0  0.2600084630331665  0.4059632577810602  0.21685886011355385  1.0000
  H   H64       1.0  0.23996722215069607  0.5940317377680769  0.7168592315508562  1.0000
  C   C1        1.0  0.19568873943865128  0.6916471807492216  0.21820683036870747  1.0000
  C   C2        1.0  0.30430204374351894  0.30835030212723064  0.7181997241570242  1.0000
  C   C3        1.0  0.8043068380270169  0.3083502920451622  0.7817944687450832  1.0000
  C   C4        1.0  0.695691080480934  0.6916425029102058  0.28179051739968486  1.0000
  C   C5        1.0  0.22528881069145965  0.7637049935301902  0.29254005602101063  1.0000
  C   C6        1.0  0.2747016299372405  0.23629043927218155  0.7925347335816824  1.0000
  C   C7        1.0  0.7747091000530942  0.23629327977420186  0.7074597687537931  1.0000
  C   C8        1.0  0.7252995529264438  0.7637016869544482  0.20746140536507335  1.0000
  C   C9        1.0  0.18394555065064816  0.8661430145485199  0.2790376092966582  1.0000
  C   C10       1.0  0.31604932842407146  0.1338517878138035  0.779037553308221  1.0000
  C   C11       1.0  0.8160546454125992  0.13385451235301818  0.7209600039728625  1.0000
  C   C12       1.0  0.683957747632931  0.8661442733028154  0.22096374583781395  1.0000
  C   C13       1.0  0.11300247968916471  0.8912076392444706  0.1900298516393022  1.0000
  C   C14       1.0  0.38699952408049393  0.10879016444010149  0.690031770598807  1.0000
  C   C15       1.0  0.8870035136128818  0.10879072874075037  0.8099655501284388  1.0000
  C   C16       1.0  0.6130063493530571  0.8912043362447621  0.3099673170360546  1.0000
  C   C17       1.0  0.087193176095127  0.8142427883236465  0.11950045320295287  1.0000
  C   C18       1.0  0.41280919028620394  0.1857562669073403  0.6195049622606064  1.0000
  C   C19       1.0  0.9128105078974683  0.18575555261406862  0.8804949485592882  1.0000
  C   C20       1.0  0.5871885526040685  0.8142365921983983  0.3804933881886966  1.0000
  C   C21       1.0  0.21916862281976524  0.9464144104292556  0.35717093953483914  1.0000
  C   C22       1.0  0.28082730415214024  0.0535845180102754  0.8571734288650317  1.0000
  C   C23       1.0  0.7808293598416255  0.05358618325777089  0.6428259365486468  1.0000
  C   C24       1.0  0.7191822011041396  0.9464154374420627  0.14282787027464386  1.0000
  C   C25       1.0  0.13265353484602832  0.0625564990134748  0.4796684829202319  1.0000
  C   C26       1.0  0.3673483801215127  0.9374401297109003  0.9796739480068265  1.0000
  C   C27       1.0  0.8673419466907146  0.9374378799600509  0.5203298675188249  1.0000
  C   C28       1.0  0.6326587918772049  0.06255902521929359  0.020332511327097798  1.0000
  C   C29       1.0  0.0025613235100791997  0.8983647931252533  0.4617397548555927  1.0000
  C   C30       1.0  0.4974427172980994  0.10163275420480741  0.9617437273405613  1.0000
  C   C31       1.0  0.9974411099415191  0.1016304404435715  0.538260069939703  1.0000
  C   C32       1.0  0.50256789469109  0.8983656678365718  0.0382634691750354  1.0000
  C   C33       1.0  0.7341399539316242  0.5777708981323285  0.974906467972545  1.0000
  C   C34       1.0  0.7658675584809842  0.4222346281629754  0.4749089713142353  1.0000
  C   C35       1.0  0.26586050588498716  0.42223513680571045  0.025090408099835294  1.0000
  C   C36       1.0  0.23414449587293257  0.5777730889084436  0.5250938021493354  1.0000
  C   C37       1.0  0.5798937553661287  0.6245407639750766  0.9521693812236973  1.0000
  C   C38       1.0  0.9201042567644108  0.3754648038826858  0.4521766102805386  1.0000
  C   C39       1.0  0.4200974192652679  0.37546361585280147  0.047828969173536996  1.0000
  C   C40       1.0  0.0798961791253987  0.6245404575685781  0.547829111846859  1.0000
  C   C41       1.0  0.5154426051185864  0.5913553244396467  0.8516966008087646  1.0000
  C   C42       1.0  0.9845541725419336  0.4086485848830607  0.35169508713391195  1.0000
  C   C43       1.0  0.4845461163739414  0.4086443875730196  0.14830838413667638  1.0000
  C   C44       1.0  0.015440418089177404  0.5913542886056433  0.648301788934205  1.0000
  C   C45       1.0  0.6248850141698056  0.6241018668288376  0.7679327530078621  1.0000
  C   C46       1.0  0.8751107464277225  0.3759010472962883  0.2679404988515515  1.0000
  C   C47       1.0  0.3751048859212958  0.3758986321846507  0.23206633456953085  1.0000
  C   C48       1.0  0.12488033233445608  0.6241002386767461  0.7320652232657067  1.0000
  C   C49       1.0  0.5796295799699748  0.5815963885064334  0.6670450209864283  1.0000
  C   C50       1.0  0.9203743704341958  0.4184111656588456  0.1670468213922547  1.0000
  C   C51       1.0  0.4203662372582854  0.4184088188740986  0.3329533294194319  1.0000
  C   C52       1.0  0.07962255351418428  0.5815925083180103  0.8329552148763637  1.0000
  N   N1        1.0  0.12736888224211637  0.715917538062378  0.1327102272787428  1.0000
  N   N2        1.0  0.3726267809578515  0.2840836694017312  0.6327102385268474  1.0000
  N   N3        1.0  0.87262907644984  0.2840822821621529  0.8672881231492154  1.0000
  N   N4        1.0  0.627364153859773  0.7159129758691378  0.36728221452566606  1.0000
  N   N5        1.0  0.08289969207237388  0.982858503341056  0.40856163833500136  1.0000
  N   N6        1.0  0.41709776835173773  0.017133138995028198  0.9085642785870219  1.0000
  N   N7        1.0  0.9170980268399233  0.017133582307039298  0.5914367121166675  1.0000
  N   N8        1.0  0.582909211814723  0.982859828278876  0.09144070642376079  1.0000
  O   O1        1.0  0.8366518005407143  0.6362076436215888  0.016485381731051497  1.0000
  O   O2        1.0  0.6633574077766224  0.36380330375983755  0.5164956747123526  1.0000
  O   O3        1.0  0.16335229102185878  0.3638038461276238  0.9835004367671798  1.0000
  O   O4        1.0  0.3366548384308672  0.6362106009557352  0.48351225892962896  1.0000
  O   O5        1.0  0.7497342039226779  0.48400491637377735  0.9493195928954066  1.0000
  O   O6        1.0  0.7502601913075395  0.5159967624379576  0.44931406011766467  1.0000
  O   O7        1.0  0.2502603388079477  0.5159964101680784  0.05068686640115059  1.0000
  O   O8        1.0  0.24974373248177523  0.4840093130664798  0.5506842903050779  1.0000
  O   O9        1.0  0.6057440839659378  0.6407327493346242  0.5932518644423793  1.0000
  O   O10       1.0  0.8942727246303902  0.35927081244077647  0.0932539100153207  1.0000
  O   O11       1.0  0.3942678744590538  0.3592718739159367  0.4067479603464576  1.0000
  O   O12       1.0  0.10574486320471269  0.6407292376802474  0.9067466519725541  1.0000
  O   O13       1.0  0.5229352434053353  0.48935344537092373  0.664391357768693  1.0000
  O   O14       1.0  0.9770606896268246  0.5106571254367935  0.1643935901659859  1.0000
  O   O15       1.0  0.47705484850096264  0.51065324130856  0.3356062554476225  1.0000
  O   O16       1.0  0.022917927691700903  0.4893517463635391  0.8356084460420304  1.0000
