data_image0
_chemical_formula_structural       Zn2H16C12I4N4
_chemical_formula_sum              "Zn2 H16 C12 I4 N4"
_cell_length_a       6.690893224416848
_cell_length_b       8.940580431201184
_cell_length_c       9.977959105404976
_cell_angle_alpha    112.17763532410619
_cell_angle_beta     90.02929938815676
_cell_angle_gamma    111.93838833365207

_space_group_name_H-M_alt    "P 1"
_space_group_IT_number       1

loop_
  _space_group_symop_operation_xyz
  'x, y, z'

loop_
  _atom_site_type_symbol
  _atom_site_label
  _atom_site_symmetry_multiplicity
  _atom_site_fract_x
  _atom_site_fract_y
  _atom_site_fract_z
  _atom_site_occupancy
  Zn  Zn1       1.0  0.1305846782642774  0.9996415590479729  0.74977600208549  1.0000
  Zn  Zn2       1.0  0.8694228956955283  0.0003558157995656001  0.2502366761885  1.0000
  H   H1        1.0  0.16676878413297652  0.7479225051729373  0.4693716247174748  1.0000
  H   H2        1.0  0.4179989093851687  0.2517178870879846  0.030166480280449496  1.0000
  H   H3        1.0  0.8332143231115693  0.252082755059739  0.5306206591306691  1.0000
  H   H4        1.0  0.5819779078248857  0.7482927055145226  0.9698556632284439  1.0000
  H   H5        1.0  0.4406428981794974  0.36376373103932746  0.7341698339495437  1.0000
  H   H6        1.0  0.07791735915794355  0.6355653747217929  0.7659686474767258  1.0000
  H   H7        1.0  0.559357361123581  0.6362309813370429  0.2658289164960976  1.0000
  H   H8        1.0  0.9220492200434193  0.36441877063789724  0.23402052064659537  1.0000
  H   H9        1.0  0.7274511253395987  0.4322742840706084  0.7347604309337258  1.0000
  H   H10       1.0  0.29692579093531896  0.5677208315436391  0.7650218973239833  1.0000
  H   H11       1.0  0.27254350483379847  0.5677151462962796  0.2652355348416505  1.0000
  H   H12       1.0  0.7031091821589682  0.43226858246050176  0.2349690575159116  1.0000
  H   H13       1.0  0.6006723937416395  0.3236771264160438  0.847520279457804  1.0000
  H   H14       1.0  0.2772901510613933  0.6761763849092688  0.6524073098791306  1.0000
  H   H15       1.0  0.39932650192152863  0.6763268230734598  0.15247857993774974  1.0000
  H   H16       1.0  0.7227412291435654  0.323832782770893  0.34756124348269424  1.0000
  C   C1        1.0  0.5378614795813448  0.15577437773379896  0.6177504923088577  1.0000
  C   C2        1.0  0.3825992120766059  0.8441690095371115  0.8822213651393939  1.0000
  C   C3        1.0  0.46212995736503615  0.8442295909694054  0.3822583946253247  1.0000
  C   C4        1.0  0.6174468949758918  0.15587854804977747  0.11781826775129642  1.0000
  C   C5        1.0  0.31795193659924337  0.8606139976750313  0.4829477676680725  1.0000
  C   C6        1.0  0.456963593073162  0.13920537471044267  0.016775477656444982  1.0000
  C   C7        1.0  0.6820313897927832  0.13937674439127085  0.5170426257186023  1.0000
  C   C8        1.0  0.5429922527768695  0.8607602846367896  0.9832054490324965  1.0000
  C   C9        1.0  0.5797483931951247  0.32827352579861463  0.7402879042766486  1.0000
  C   C10       1.0  0.25250877801881433  0.6715740186382322  0.7597004426190708  1.0000
  C   C11       1.0  0.42025245629692165  0.6717462867448063  0.2597273304665961  1.0000
  C   C12       1.0  0.7475680014588163  0.32848408154792  0.2403347329988534  1.0000
  I   I1        1.0  0.7802955037032288  0.7257175249081057  0.6094545522373097  1.0000
  I   I2        1.0  0.053134912256240355  0.2731012268516083  0.890158874614578  1.0000
  I   I3        1.0  0.21970045399524446  0.274274556548491  0.39054832122186417  1.0000
  I   I4        1.0  0.9468539084426055  0.7268855550363186  0.10983118594169375  1.0000
  N   N1        1.0  0.3547990411920096  0.011898891394125104  0.5988166166049353  1.0000
  N   N2        1.0  0.3429705460318219  0.9878436191590583  0.9008599537094213  1.0000
  N   N3        1.0  0.6451924170865126  0.9880931694877901  0.4011742227668761  1.0000
  N   N4        1.0  0.6570017666121046  0.012110138251102904  0.09910794074797022  1.0000
