data_image0
_chemical_formula_structural       H16Pb2C24N4Cl4
_chemical_formula_sum              "H16 Pb2 C24 N4 Cl4"
_cell_length_a       8.184085235047183
_cell_length_b       9.250180552603114
_cell_length_c       9.250191213865554
_cell_angle_alpha    67.57654695393849
_cell_angle_beta     77.36821681389358
_cell_angle_gamma    77.36835898833803

_space_group_name_H-M_alt    "P 1"
_space_group_IT_number       1

loop_
  _space_group_symop_operation_xyz
  'x, y, z'

loop_
  _atom_site_type_symbol
  _atom_site_label
  _atom_site_symmetry_multiplicity
  _atom_site_fract_x
  _atom_site_fract_y
  _atom_site_fract_z
  _atom_site_occupancy
  H   H1        1.0  0.9212719143576891  0.33194594643126163  0.003020181659856226  1.0000
  H   H2        1.0  0.5787259336970366  0.9969735212933841  0.6680448419620003  1.0000
  H   H3        1.0  0.07872641802079981  0.6680480573396609  0.9969743890683769  1.0000
  H   H4        1.0  0.42127237425815883  0.0030203936981294996  0.33194544401173676  1.0000
  H   H5        1.0  0.792323405673649  0.6158615679629736  0.8770261186625344  1.0000
  H   H6        1.0  0.7076739986249833  0.12297596268805222  0.3841304903698698  1.0000
  H   H7        1.0  0.20767475023148305  0.3841336850360976  0.12297123194990425  1.0000
  H   H8        1.0  0.2923222970548096  0.8770227450050924  0.6158615266966617  1.0000
  H   H9        1.0  0.9202557399086114  0.7706371287133891  0.6035592432624451  1.0000
  H   H10       1.0  0.5797461800020187  0.3964467646253312  0.22936292878009093  1.0000
  H   H11       1.0  0.07974957162743827  0.22936064948594043  0.39644215359715657  1.0000
  H   H12       1.0  0.42025459197613907  0.6035557085815741  0.7706364189249084  1.0000
  H   H13       1.0  0.12786298162896506  0.7744905242235945  0.3624120969083574  1.0000
  H   H14       1.0  0.3721348687164364  0.6375888494299391  0.22550684457171133  1.0000
  H   H15       1.0  0.8721376893470137  0.225504782079831  0.6375868915742441  1.0000
  H   H16       1.0  0.6278656013629059  0.36240761732223353  0.774490639040614  1.0000
  Pb  Pb1       1.0  0.2500002068504017  0.05166720987117661  0.9483307833658752  1.0000
  Pb  Pb2       1.0  0.7500013259735496  0.9483304661767705  0.05166708549987917  1.0000
  C   C1        1.0  0.9735690586806455  0.4043750721715541  0.8845400131731364  1.0000
  C   C2        1.0  0.5264301588675481  0.11545784135875443  0.5956180266106653  1.0000
  C   C3        1.0  0.026429091118664875  0.59562015863267  0.1154562662506818  1.0000
  C   C4        1.0  0.4735667211846959  0.8845373184035881  0.40437529150083384  1.0000
  C   C5        1.0  0.9018661817879021  0.5623591478827876  0.8135346168375716  1.0000
  C   C6        1.0  0.5981323135043297  0.1864670327277267  0.43763281004179766  1.0000
  C   C7        1.0  0.09813362123428954  0.4376337664812625  0.1864644200732569  1.0000
  C   C8        1.0  0.4018652397108938  0.8135317016175921  0.5623600259598116  1.0000
  C   C9        1.0  0.9715749004827785  0.6473114439248423  0.6623130701919417  1.0000
  C   C10       1.0  0.5284269017695208  0.33769010547460004  0.35268463200454636  1.0000
  C   C11       1.0  0.028425399229035996  0.3526862942503399  0.3376882644932165  1.0000
  C   C12       1.0  0.4715742475786228  0.6623099580554026  0.6473134406865168  1.0000
  C   C13       1.0  0.11070968758849624  0.5735007094997542  0.58170731164612  1.0000
  C   C14       1.0  0.3892926305898142  0.4182955109829083  0.42649639502284464  1.0000
  C   C15       1.0  0.8892904173324963  0.4264982113190286  0.41829358935738964  1.0000
  C   C16       1.0  0.6107122791529562  0.5817045881139222  0.5735019920962113  1.0000
  C   C17       1.0  0.1776124513975077  0.41404000551548853  0.6638772831154182  1.0000
  C   C18       1.0  0.3223885052960469  0.33612312397067967  0.5859576617857127  1.0000
  C   C19       1.0  0.8223880308934851  0.5859565056263919  0.3361223428741551  1.0000
  C   C20       1.0  0.6776128327370898  0.6638757347208755  0.41403977339837866  1.0000
  C   C21       1.0  0.18363853940142147  0.6528913795705905  0.4225055549951688  1.0000
  C   C22       1.0  0.3163602516558655  0.5774974821108219  0.3471082755482866  1.0000
  C   C23       1.0  0.8163605088807911  0.3471063541472646  0.577496031943539  1.0000
  C   C24       1.0  0.6836383948330678  0.4225025725045271  0.6528903016498615  1.0000
  N   N1        1.0  0.10809638099222946  0.33336449737377916  0.8132698656423895  1.0000
  N   N2        1.0  0.3919058315428785  0.1867275671902533  0.6666318752739141  1.0000
  N   N3        1.0  0.8919042838779347  0.6666307867347997  0.1867280516515845  1.0000
  N   N4        1.0  0.6080960786510589  0.8132676991807983  0.33336471857789696  1.0000
  Cl  Cl1       1.0  0.45725619849993376  0.21047383929897026  0.03938938563936738  1.0000
  Cl  Cl2       1.0  0.04274251382107507  0.9606072650740745  0.7895292617932127  1.0000
  Cl  Cl3       1.0  0.5427431150461572  0.7895297677045081  0.9606076382602776  1.0000
  Cl  Cl4       1.0  0.9572565344611378  0.0393904686437807  0.2104723251454955  1.0000
