data_image0
_chemical_formula_structural       Mn4H16C12N16O12
_chemical_formula_sum              "Mn4 H16 C12 N16 O12"
_cell_length_a       8.053068558169183
_cell_length_b       9.49267569966984
_cell_length_c       9.784695413970644
_cell_angle_alpha    90.00367031604861
_cell_angle_beta     89.99517775925631
_cell_angle_gamma    114.87140124311854

_space_group_name_H-M_alt    "P 1"
_space_group_IT_number       1

loop_
  _space_group_symop_operation_xyz
  'x, y, z'

loop_
  _atom_site_type_symbol
  _atom_site_label
  _atom_site_symmetry_multiplicity
  _atom_site_fract_x
  _atom_site_fract_y
  _atom_site_fract_z
  _atom_site_occupancy
  Mn  Mn1       1.0  0.7746329312690603  0.8206444497717411  0.5802416212683923  1.0000
  Mn  Mn2       1.0  0.2253500158727775  0.679343555395654  0.08021301643786671  1.0000
  Mn  Mn3       1.0  0.22536313223233148  0.17935296595168634  0.41975638444818497  1.0000
  Mn  Mn4       1.0  0.7746527226017577  0.3206574047746997  0.9197757911204719  1.0000
  H   H1        1.0  0.3359427876450951  0.9816188516121612  0.8655337663966521  1.0000
  H   H2        1.0  0.6640314724535372  0.5183807467242972  0.3655395544585432  1.0000
  H   H3        1.0  0.6640539661512433  0.018377418384169196  0.1344601512437578  1.0000
  H   H4        1.0  0.3359677794648022  0.4816155542130147  0.6344645831389357  1.0000
  H   H5        1.0  0.2196153377895057  0.024903338831023792  0.7383381073395299  1.0000
  H   H6        1.0  0.7803778559442022  0.47508850568372196  0.23836008603666406  1.0000
  H   H7        1.0  0.7803797738351006  0.975099835844844  0.2616558105713907  1.0000
  H   H8        1.0  0.21961860010357973  0.5249019901282777  0.7616460954857658  1.0000
  H   H9        1.0  0.5014385980881927  0.7547723254777098  0.37338512223848147  1.0000
  H   H10       1.0  0.49856648975613627  0.7452233255953471  0.8733708521967359  1.0000
  H   H11       1.0  0.4985604274599993  0.24523897649841317  0.6266128838062031  1.0000
  H   H12       1.0  0.5014277303592249  0.2547625257933602  0.1266189771913417  1.0000
  H   H13       1.0  0.4541860474380712  0.8301787874930042  0.5047830595856908  1.0000
  H   H14       1.0  0.5458245219277345  0.6698402391746612  0.0047726549606111005  1.0000
  H   H15       1.0  0.5458141918291942  0.16982214219520836  0.49522107812114785  1.0000
  H   H16       1.0  0.45417584869478833  0.33015838366227956  0.9952222846322556  1.0000
  C   C1        1.0  0.07888142770282505  0.8147617994545084  0.8229944873860192  1.0000
  C   C2        1.0  0.9211092717166735  0.6852525868510496  0.3229949379887884  1.0000
  C   C3        1.0  0.9211146710102581  0.18524600408237996  0.1770055626596019  1.0000
  C   C4        1.0  0.07889287160803352  0.3147368248038021  0.6770102212998169  1.0000
  C   C5        1.0  0.8338403870686264  0.6149458837763148  0.7804090866900354  1.0000
  C   C6        1.0  0.16615264573888297  0.8850565697040904  0.280403440478679  1.0000
  C   C7        1.0  0.1661594595220208  0.3850619658783927  0.21958994122361733  1.0000
  C   C8        1.0  0.8338521627088724  0.11494095367039849  0.7195945649398255  1.0000
  C   C9        1.0  0.6614893118424587  0.5106715906916576  0.7152457414321916  1.0000
  C   C10       1.0  0.33850862727052083  0.9893065855657637  0.215232630572892  1.0000
  C   C11       1.0  0.33850635854820144  0.48933274518180525  0.2847573745334273  1.0000
  C   C12       1.0  0.6614833909520285  0.010685009708680597  0.784770485123893  1.0000
  N   N1        1.0  0.916341732319175  0.5709006864188665  0.877944961458546  1.0000
  N   N2        1.0  0.0836546861529115  0.9291088765088985  0.37794364342159537  1.0000
  N   N3        1.0  0.08365979165488817  0.42911064636976437  0.12205611051364681  1.0000
  N   N4        1.0  0.9163445658956559  0.07088742437335328  0.6220574281632096  1.0000
  N   N5        1.0  0.07633931661626299  0.6985934837168699  0.906481566875364  1.0000
  N   N6        1.0  0.9236513576918312  0.8014205258772832  0.40648699606425254  1.0000
  N   N7        1.0  0.9236627663843177  0.3014190101592291  0.09352257112619361  1.0000
  N   N8        1.0  0.07635121395529862  0.19857235344099416  0.5935150973043548  1.0000
  N   N9        1.0  0.9277823699037454  0.7651322737995514  0.7422386440282552  1.0000
  N   N10       1.0  0.07219559516995835  0.734872045479747  0.2422189263936758  1.0000
  N   N11       1.0  0.07221609622723685  0.2348778672542905  0.25776549402507243  1.0000
  N   N12       1.0  0.9278119734157356  0.2651208954268397  0.7577872548215014  1.0000
  N   N13       1.0  0.21100464528000618  0.9620615118086061  0.8242025059568832  1.0000
  N   N14       1.0  0.7889821321741762  0.5379320965813361  0.3242243989754812  1.0000
  N   N15       1.0  0.7889983902485085  0.037945222839745385  0.17579038978699665  1.0000
  N   N16       1.0  0.21101918976079048  0.46206076754175734  0.6757879144779366  1.0000
  O   O1        1.0  0.5976630507689646  0.5700753911867337  0.624436530595851  1.0000
  O   O2        1.0  0.4023549645600752  0.9299019839078896  0.12442351466122402  1.0000
  O   O3        1.0  0.40234708718690365  0.42993835593904345  0.3755645411542475  1.0000
  O   O4        1.0  0.5976367566953088  0.07008383685185039  0.87557346884158  1.0000
  O   O5        1.0  0.5900043758403511  0.36815974113910943  0.7532143130107087  1.0000
  O   O6        1.0  0.41001543287298853  0.1318260552340647  0.2531955859615564  1.0000
  O   O7        1.0  0.4100057265999553  0.631843618301687  0.24679186843989953  1.0000
  O   O8        1.0  0.5899818803405594  0.8681713756845465  0.7467921996702104  1.0000
  O   O9        1.0  0.5556239115709186  0.8343822260885926  0.44816168180781096  1.0000
  O   O10       1.0  0.4443882688835714  0.6656105054547011  0.9481431478860927  1.0000
  O   O11       1.0  0.44437705333322697  0.1656279456309235  0.5518373461392443  1.0000
  O   O12       1.0  0.5556118044679152  0.3343823429960082  0.05185281354234662  1.0000
