data_image0
_chemical_formula_structural       Zn2H32C39N2O12
_chemical_formula_sum              "Zn2 H32 C39 N2 O12"
_cell_length_a       9.667470125677951
_cell_length_b       11.033994397237883
_cell_length_c       17.47354330625368
_cell_angle_alpha    91.41274285147249
_cell_angle_beta     89.3921380862396
_cell_angle_gamma    91.82264343607685

_space_group_name_H-M_alt    "P 1"
_space_group_IT_number       1

loop_
  _space_group_symop_operation_xyz
  'x, y, z'

loop_
  _atom_site_type_symbol
  _atom_site_label
  _atom_site_symmetry_multiplicity
  _atom_site_fract_x
  _atom_site_fract_y
  _atom_site_fract_z
  _atom_site_occupancy
  Zn  Zn1       1.0  0.3697066752114964  0.47737021264553187  0.4990915919418483  1.0000
  Zn  Zn2       1.0  0.6525716334989156  0.4876654856492805  0.49833730495524975  1.0000
  H   H1        1.0  0.7248674564663347  0.10806190106951159  0.47695453906668217  1.0000
  H   H2        1.0  0.2247803019193597  0.0656849610816934  0.6071954133439021  1.0000
  H   H3        1.0  0.17185601943752  0.0878819946771969  0.5103742650929135  1.0000
  H   H4        1.0  0.18020826762828082  0.8612099858625297  0.4866468248327109  1.0000
  H   H5        1.0  0.8876690636483956  0.575103565382399  0.3953882116314135  1.0000
  H   H6        1.0  0.1486987216727869  0.570080401368429  0.3946076349449115  1.0000
  H   H7        1.0  0.12936266008714634  0.27363447923497114  0.6205125985798645  1.0000
  H   H8        1.0  0.13688250077561287  0.4141586569279453  0.6733698545708364  1.0000
  H   H9        1.0  0.8666057946265869  0.27768178000502525  0.6209659205615807  1.0000
  H   H10       1.0  0.873248046806765  0.4182241212103648  0.6739428629604094  1.0000
  H   H11       1.0  0.6922940593328876  0.6127373275567009  0.2710339459374396  1.0000
  H   H12       1.0  0.6756035376339897  0.6856467837699113  0.1369405380097035  1.0000
  H   H13       1.0  0.2662006654395129  0.6178926424337587  0.8743718865812866  1.0000
  H   H14       1.0  0.27813872165656767  0.5730514295363348  0.7333632381139525  1.0000
  H   H15       1.0  0.7209559608195024  0.5858185134120999  0.7407422799461756  1.0000
  H   H16       1.0  0.7121859551402849  0.6353496441544947  0.881334488785406  1.0000
  H   H17       1.0  0.7311081476749237  0.8828299435627541  0.4660209145497661  1.0000
  H   H18       1.0  0.10733482737368398  0.5383865248853965  0.0332862602300352  1.0000
  H   H19       1.0  0.23242833353475587  0.6559280687352567  0.054086190640497  1.0000
  H   H20       1.0  0.0067137999441513  0.5619866906922866  0.1648874277103118  1.0000
  H   H21       1.0  0.1348847118206677  0.6736118765043455  0.18849949710811845  1.0000
  H   H22       1.0  0.0453732578750206  0.8094927111389224  0.08616154001555291  1.0000
  H   H23       1.0  0.9142803177235521  0.7722294091960932  0.15398704392924864  1.0000
  H   H24       1.0  0.9152075539355738  0.6977682851890064  0.0627476825193796  1.0000
  H   H25       1.0  0.08108321595205578  0.7154760984303862  0.6553259547821285  1.0000
  H   H26       1.0  0.05054855067457709  0.725090527559864  0.5550951086999092  1.0000
  H   H27       1.0  0.008441300612908289  0.934552742414233  0.6707949948251084  1.0000
  H   H28       1.0  0.9621831605329022  0.9316483873665077  0.573032561260746  1.0000
  H   H29       1.0  0.792333355906152  0.7538284928946406  0.5982737546062111  1.0000
  H   H30       1.0  0.7516498912887642  0.885494297561607  0.6524249754687403  1.0000
  H   H31       1.0  0.8357899819276683  0.7657446027559371  0.6968294808373798  1.0000
  H   H32       1.0  0.09091260259420153  0.3625774131463401  0.2804007516817322  1.0000
  C   C1        1.0  0.5199582725484505  0.7181720961685512  0.4870943677080533  1.0000
  C   C2        1.0  0.4766526406080374  0.5981309749221848  0.11661444621207552  1.0000
  C   C3        1.0  0.47689395221768666  0.6251178071527475  0.03801325136162601  1.0000
  C   C4        1.0  0.48265166663465225  0.6343406077958419  0.9685025543150161  1.0000
  C   C5        1.0  0.36571974141514124  0.6113031460824059  0.8448905133368998  1.0000
  C   C6        1.0  0.3721364566889704  0.5852436928508737  0.7668689217884579  1.0000
  C   C7        1.0  0.5001133487020725  0.5718295351426973  0.7294971052599308  1.0000
  C   C8        1.0  0.6222620485449185  0.5931174707360254  0.7708897168828416  1.0000
  C   C9        1.0  0.6172500306560879  0.6209476015818893  0.8488061159798194  1.0000
  C   C10       1.0  0.48858122610975846  0.6259229617241714  0.887640988092123  1.0000
  C   C11       1.0  0.39638059206986054  0.9132271005104117  0.5150843645571967  1.0000
  C   C12       1.0  0.5050087050240037  0.532613046397188  0.6469200071648373  1.0000
  C   C13       1.0  0.5158953265180202  0.8528093886367853  0.49425103414434807  1.0000
  C   C14       1.0  0.6350452470749987  0.9267652733691916  0.48161208013890894  1.0000
  C   C15       1.0  0.631641838653053  0.052888800904916884  0.48813501994908404  1.0000
  C   C16       1.0  0.5095309264687843  0.11325735073641134  0.5082350986105766  1.0000
  C   C17       1.0  0.39298737602211287  0.03925579858712779  0.5225985205828181  1.0000
  C   C18       1.0  0.24202444708755175  0.03898086273893139  0.5469263250022963  1.0000
  C   C19       1.0  0.2440241400937992  0.8952374736733333  0.5352624457203703  1.0000
  C   C20       1.0  0.9358067776091377  0.4342178412223274  0.552703474503403  1.0000
  C   C21       1.0  0.943285655653348  0.5339414583353629  0.44145800933914364  1.0000
  C   C22       1.0  0.08745058124338811  0.5314734305102035  0.4411379476431492  1.0000
  C   C23       1.0  0.507444357335288  0.24821105194764925  0.5113803695372995  1.0000
  C   C24       1.0  0.07974558818271052  0.43173774706964696  0.5524339971943492  1.0000
  C   C25       1.0  0.08514766475183683  0.3638213695448583  0.626313614297054  1.0000
  C   C26       1.0  0.9205040160889838  0.36646856945408496  0.6266152393044069  1.0000
  C   C27       1.0  0.5091786024137123  0.4763603546954584  0.3486138031408786  1.0000
  C   C28       1.0  0.3670831399035351  0.5267062299191351  0.14942777821884334  1.0000
  C   C29       1.0  0.38090918836566356  0.48132036036337666  0.2231346514911792  1.0000
  C   C30       1.0  0.49902493508178486  0.5122115566562754  0.2666902693531696  1.0000
  C   C31       1.0  0.6032635061958375  0.5877907916265883  0.23571379654065083  1.0000
  C   C32       1.0  0.5927906132399697  0.6296384041129385  0.1618879756837401  1.0000
  C   C33       1.0  0.16700348074981974  0.5837729157815514  0.07953141773256081  1.0000
  C   C34       1.0  0.0716054791263758  0.6357896435971994  0.1410641401714372  1.0000
  C   C35       1.0  0.9818515544121383  0.7340711038820159  0.1091611886099244  1.0000
  C   C36       1.0  0.07895988446308169  0.7785809369519822  0.6075094983246814  1.0000
  C   C37       1.0  0.9711943403381941  0.874574138079339  0.6235345210005576  1.0000
  C   C38       1.0  0.8302425539474144  0.8166876212540685  0.6436936569087026  1.0000
  C   C39       1.0  0.2759755496447199  0.38741939853955637  0.2493691423985211  1.0000
  N   N1        1.0  0.8643360502717173  0.48452378711007776  0.4981195005948181  1.0000
  N   N2        1.0  0.15854256392450594  0.4792260272275328  0.49754366468656747  1.0000
  O   O1        1.0  0.40459944055253066  0.6603216364988851  0.47990664567671365  1.0000
  O   O2        1.0  0.6387707857562858  0.6713238171244241  0.4895976150192283  1.0000
  O   O3        1.0  0.3888749975369947  0.5173928125045819  0.613552557352577  1.0000
  O   O4        1.0  0.6234420588772451  0.5161140152152867  0.6162700151485156  1.0000
  O   O5        1.0  0.38964685544642214  0.2961776862090915  0.51799140582105  1.0000
  O   O6        1.0  0.6237699000093644  0.30570258063485056  0.5060400250838342  1.0000
  O   O7        1.0  0.3954661480609333  0.4491218557290964  0.3826618794271681  1.0000
  O   O8        1.0  0.628256509111047  0.4812444307488377  0.37903456379151385  1.0000
  O   O9        1.0  0.2528082925596636  0.4897275920689879  0.10838488437266143  1.0000
  O   O10       1.0  0.21819350886819677  0.8244117639777998  0.6004383223898344  1.0000
  O   O11       1.0  0.29786497133910933  0.2794048795184381  0.249520687741331  1.0000
  O   O12       1.0  0.15064071548179922  0.4334267216409982  0.2687040685274128  1.0000
