data_image0
_chemical_formula_structural       Zn6H20C32O22
_chemical_formula_sum              "Zn6 H20 C32 O22"
_cell_length_a       8.222175120992416
_cell_length_b       10.510705535435006
_cell_length_c       11.89985042154354
_cell_angle_alpha    71.93085169067292
_cell_angle_beta     70.74764660517504
_cell_angle_gamma    78.16315064731779

_space_group_name_H-M_alt    "P 1"
_space_group_IT_number       1

loop_
  _space_group_symop_operation_xyz
  'x, y, z'

loop_
  _atom_site_type_symbol
  _atom_site_label
  _atom_site_symmetry_multiplicity
  _atom_site_fract_x
  _atom_site_fract_y
  _atom_site_fract_z
  _atom_site_occupancy
  Zn  Zn1       1.0  0.3426188138098212  0.3746786143358348  0.7684279633178192  1.0000
  Zn  Zn2       1.0  0.657377252257305  0.6253232531066929  0.2315747051557651  1.0000
  Zn  Zn3       1.0  0.9566517328834151  0.34593062145331277  0.5586736759192517  1.0000
  Zn  Zn4       1.0  0.04335148250375198  0.6540744486038291  0.44132145193998434  1.0000
  Zn  Zn5       1.0  0.40829318920548724  0.42547955328962667  0.4446173801137475  1.0000
  Zn  Zn6       1.0  0.591704334043591  0.5745213252210347  0.55538521344733  1.0000
  H   H1        1.0  0.8281580022368971  0.43552281753602534  0.9654164699767942  1.0000
  H   H2        1.0  0.17183836804699829  0.5644770953259552  0.03458244319028134  1.0000
  H   H3        1.0  0.4457139062872955  0.17047093650667483  0.19931259867320247  1.0000
  H   H4        1.0  0.554281490746355  0.8295269915891055  0.8006837025892607  1.0000
  H   H5        1.0  0.5628976687804652  0.0178984463137866  0.061777174850625616  1.0000
  H   H6        1.0  0.43709833418597543  0.9821035167339006  0.9382187595826675  1.0000
  H   H7        1.0  0.7770579271794844  0.009832514673412599  0.5864327588183754  1.0000
  H   H8        1.0  0.22293564166746907  0.9901612646302878  0.4135709449603977  1.0000
  H   H9        1.0  0.05400642859276421  0.7423579466627216  0.8346738957062311  1.0000
  H   H10       1.0  0.9459978256460885  0.2576410684424745  0.1653234343140823  1.0000
  H   H11       1.0  0.9662416139889342  0.9042517379439445  0.9643270600947599  1.0000
  H   H12       1.0  0.0337718842350441  0.09575347799331982  0.03566565458967118  1.0000
  H   H13       1.0  0.2751720017816269  0.22493125552100676  0.6159710695718841  1.0000
  H   H14       1.0  0.7248232470874357  0.77506764388972  0.3840275302213456  1.0000
  H   H15       1.0  0.8273778456415284  0.5501208294074473  0.6463393362165916  1.0000
  H   H16       1.0  0.1726191069123999  0.44988315425838  0.3536566848562117  1.0000
  H   H17       1.0  0.25968718005355373  0.5653677704024672  0.6105651137995094  1.0000
  H   H18       1.0  0.740315640666104  0.434632197782662  0.3894348163984204  1.0000
  H   H19       1.0  0.33391664483762895  0.1885802973894215  0.49121868181506284  1.0000
  H   H20       1.0  0.6660821006653632  0.8114206949614201  0.5087768760588672  1.0000
  C   C1        1.0  0.007854908814138594  0.2870314770690712  0.8140736564568127  1.0000
  C   C2        1.0  0.9921396527455216  0.7129714510091955  0.18592403639906518  1.0000
  C   C3        1.0  0.8345729018458172  0.26021307081900596  0.9057205432887085  1.0000
  C   C4        1.0  0.16542575859326542  0.7397887972416158  0.09428404715627883  1.0000
  C   C5        1.0  0.7655599748768862  0.3465378273137887  0.9836335520832689  1.0000
  C   C6        1.0  0.23444011908139112  0.6534630876668999  0.01636843818409521  1.0000
  C   C7        1.0  0.6242565925540688  0.316784931527387  0.08777990539790882  1.0000
  C   C8        1.0  0.37574673576006024  0.6832120271077358  0.9122198632480047  1.0000
  C   C9        1.0  0.5521739755325683  0.19703360252955088  0.11578930831259973  1.0000
  C   C10       1.0  0.4478266102450092  0.8029643268024172  0.884210836892677  1.0000
  C   C11       1.0  0.6174364441479553  0.11210659916766016  0.037869242521153985  1.0000
  C   C12       1.0  0.3825636261475721  0.8878943516649614  0.9621302224811071  1.0000
  C   C13       1.0  0.7568088012445101  0.14260139350015066  0.930738651633227  1.0000
  C   C14       1.0  0.2431954766571067  0.8573975857531052  0.06926120365219643  1.0000
  C   C15       1.0  0.566916268883304  0.40541527792343146  0.17416005995320918  1.0000
  C   C16       1.0  0.43308032844104366  0.5945835441171565  0.8258449722334615  1.0000
  C   C17       1.0  0.6426353018610271  0.19954856587745703  0.7154900964313523  1.0000
  C   C18       1.0  0.3573774343779874  0.800453598373494  0.28450444185799023  1.0000
  C   C19       1.0  0.7627973075162159  0.07470253726872761  0.74502153066922  1.0000
  C   C20       1.0  0.23720216473410713  0.9252943666613477  0.25497914291724993  1.0000
  C   C21       1.0  0.8169832360647006  0.9864532663098728  0.6699523952403508  1.0000
  C   C22       1.0  0.18301282211483988  0.0135486130833016  0.3300494314781942  1.0000
  C   C23       1.0  0.9219434712615706  0.8661655424181517  0.7023827511613091  1.0000
  C   C24       1.0  0.07805143026549638  0.1338281834166892  0.29762570150083417  1.0000
  C   C25       1.0  0.9741833953057506  0.8368260170985449  0.8092517897749117  1.0000
  C   C26       1.0  0.0258218085205897  0.16317501862479128  0.19074562688490454  1.0000
  C   C27       1.0  0.9239347429596233  0.9273291688292178  0.8820095753643143  1.0000
  C   C28       1.0  0.0760730394635019  0.0726718914134992  0.11798807975684156  1.0000
  C   C29       1.0  0.8178211963737213  0.04722003542031669  0.8512321346533508  1.0000
  C   C30       1.0  0.18218822294629422  0.9527790167730005  0.14876651404466645  1.0000
  C   C31       1.0  0.9774303143877106  0.7699199655120167  0.6238429702923792  1.0000
  C   C32       1.0  0.0225654894013303  0.2300758526448305  0.37616051847904686  1.0000
  O   O1        1.0  0.10614295073388999  0.3285308824570166  0.8549958712498121  1.0000
  O   O2        1.0  0.8938573660645515  0.6714761415625716  0.1450010899445218  1.0000
  O   O3        1.0  0.054482608886282  0.2647142207758364  0.7072964063329721  1.0000
  O   O4        1.0  0.9455101008239237  0.7352845943622839  0.2927061637741133  1.0000
  O   O5        1.0  0.6251978402974457  0.5200984495490742  0.1321093370598732  1.0000
  O   O6        1.0  0.3747963581450477  0.479899328854593  0.8678965251548404  1.0000
  O   O7        1.0  0.470342573686345  0.36003031434474037  0.2825476329997087  1.0000
  O   O8        1.0  0.5296532695406241  0.6399654440588805  0.7174600645469054  1.0000
  O   O9        1.0  0.6982876603059793  0.3000680286600499  0.6279934379317279  1.0000
  O   O10       1.0  0.3017156285702142  0.6999289897282992  0.37200212193899757  1.0000
  O   O11       1.0  0.48596043141009887  0.19915500549167575  0.7841491711477456  1.0000
  O   O12       1.0  0.5140489459712329  0.8008520505678618  0.21585241255893095  1.0000
  O   O13       1.0  0.928657326914134  0.8040262794677131  0.5247091409466262  1.0000
  O   O14       1.0  0.07134027771155618  0.1959665354235014  0.4752947263809728  1.0000
  O   O15       1.0  0.0676581076190317  0.6591840253022808  0.6554784927698802  1.0000
  O   O16       1.0  0.9323408060240155  0.34080877197201426  0.3445275981759791  1.0000
  O   O17       1.0  0.36312192831961454  0.49653354574278535  0.6012178659403061  1.0000
  O   O18       1.0  0.6368794352180913  0.5034674113742098  0.3987821391701442  1.0000
  O   O19       1.0  0.8393641621636191  0.5338208002372937  0.5674409892411417  1.0000
  O   O20       1.0  0.1606300557413363  0.4661841421747397  0.43255625014605653  1.0000
  O   O21       1.0  0.37781838529149775  0.22166838302477018  0.5430617314209769  1.0000
  O   O22       1.0  0.6221790827444803  0.7783325791404111  0.45693496985484205  1.0000
