data_image0
_chemical_formula_structural       K2H6C6N20O4
_chemical_formula_sum              "K2 H6 C6 N20 O4"
_cell_length_a       5.462344974926499
_cell_length_b       7.7958889433177445
_cell_length_c       11.511385389688222
_cell_angle_alpha    96.20929713335087
_cell_angle_beta     103.18682582085626
_cell_angle_gamma    108.94560025384537

_space_group_name_H-M_alt    "P 1"
_space_group_IT_number       1

loop_
  _space_group_symop_operation_xyz
  'x, y, z'

loop_
  _atom_site_type_symbol
  _atom_site_label
  _atom_site_symmetry_multiplicity
  _atom_site_fract_x
  _atom_site_fract_y
  _atom_site_fract_z
  _atom_site_occupancy
  K   K1        1.0  0.8454036598218979  0.6589783154898753  0.0785103259585327  1.0000
  K   K2        1.0  0.15459036297334444  0.34101646026624616  0.9214883173763015  1.0000
  H   H1        1.0  0.5606672318121397  0.9917357662523754  0.3936254839573792  1.0000
  H   H2        1.0  0.4393334603163909  0.008264544294952693  0.6063743220085274  1.0000
  H   H3        1.0  0.4452972722839093  0.6944868773061614  0.1953885806995146  1.0000
  H   H4        1.0  0.5546996449563721  0.30551340388736753  0.8046125523249688  1.0000
  H   H5        1.0  0.32426480603638197  0.48935095380883087  0.21529445106549616  1.0000
  H   H6        1.0  0.675735152100515  0.5106479590130917  0.7847060327778976  1.0000
  C   C1        1.0  0.2836831701942941  0.27576698427288443  0.417844515703358  1.0000
  C   C2        1.0  0.7163182628461158  0.7242347382438792  0.5821537455184612  1.0000
  C   C3        1.0  0.479487237585488  0.19552378958034922  0.2952017047738239  1.0000
  C   C4        1.0  0.5205153281466721  0.8044765071558047  0.7047991713959831  1.0000
  C   C5        1.0  0.6039681001524501  0.17351895319828256  0.20025304746215514  1.0000
  C   C6        1.0  0.39603591972247926  0.8264841105006158  0.7997482066858767  1.0000
  N   N1        1.0  0.47830160936616295  0.09287610291563907  0.38273623893125125  1.0000
  N   N2        1.0  0.5216990689218761  0.907124179143615  0.6172653007678478  1.0000
  N   N3        1.0  0.35503453203875784  0.1424211831028614  0.4629955402213498  1.0000
  N   N4        1.0  0.6449631191931573  0.8575804958160729  0.5370049149256461  1.0000
  N   N5        1.0  0.3553748811577719  0.3147339206059668  0.31527133745603214  1.0000
  N   N6        1.0  0.6446276914946338  0.685266390374224  0.6847286718471752  1.0000
  N   N7        1.0  0.1441178731742667  0.3706622289446884  0.4677764777398181  1.0000
  N   N8        1.0  0.8558802044387546  0.6293366834443713  0.5322238027662607  1.0000
  N   N9        1.0  0.08530926416780457  0.3318779355899791  0.5618940833979948  1.0000
  N   N10       1.0  0.9146902675879859  0.6681237437618179  0.4381065750863087  1.0000
  N   N11       1.0  0.014751369859986511  0.31409018032283587  0.6474399502335615  1.0000
  N   N12       1.0  0.9852500839411606  0.685911584926032  0.35255571038846517  1.0000
  N   N13       1.0  0.7081119400626507  0.03748632360058931  0.1881316590302262  1.0000
  N   N14       1.0  0.2918913458206516  0.9625153423729029  0.811870272995293  1.0000
  N   N15       1.0  0.8157540307066  0.05260092918584999  0.0938594848088101  1.0000
  N   N16       1.0  0.18424519343867024  0.9473965859106669  0.9061416769120643  1.0000
  N   N17       1.0  0.7770445529752976  0.1945829770294836  0.050502618620377894  1.0000
  N   N18       1.0  0.22295873982825035  0.8054187031880387  0.9494984465385417  1.0000
  N   N19       1.0  0.6477953022776363  0.27248616970814504  0.1135511276318368  1.0000
  N   N20       1.0  0.35220539677114726  0.727514155083213  0.8864478114674699  1.0000
  O   O1        1.0  0.7111244311206163  0.9113727388269338  0.25342079095158004  1.0000
  O   O2        1.0  0.2888781415317895  0.08862757215325699  0.7465792183516271  1.0000
  O   O3        1.0  0.312615510098233  0.569449576886022  0.15457985366643356  1.0000
  O   O4        1.0  0.6873825675147887  0.43054933550303087  0.8454204268396452  1.0000
