data_image0
_chemical_formula_structural       Sr2H28C12O16
_chemical_formula_sum              "Sr2 H28 C12 O16"
_cell_length_a       6.833652124197674
_cell_length_b       7.089602977189914
_cell_length_c       12.350667026750582
_cell_angle_alpha    88.2247629225822
_cell_angle_beta     83.80790538447263
_cell_angle_gamma    73.26839306516288

_space_group_name_H-M_alt    "P 1"
_space_group_IT_number       1

loop_
  _space_group_symop_operation_xyz
  'x, y, z'

loop_
  _atom_site_type_symbol
  _atom_site_label
  _atom_site_symmetry_multiplicity
  _atom_site_fract_x
  _atom_site_fract_y
  _atom_site_fract_z
  _atom_site_occupancy
  Sr  Sr1       1.0  0.9378693406084367  0.2735397899639196  0.9200520034594748  1.0000
  Sr  Sr2       1.0  0.06213062347118374  0.7264600270769962  0.07994806255132401  1.0000
  H   H1        1.0  0.3794900242042871  0.5741816273622719  0.5911321119608814  1.0000
  H   H2        1.0  0.6205114083571032  0.4258182010460844  0.40886786280464804  1.0000
  H   H3        1.0  0.3644074632386847  0.7474508584255375  0.6963179374873149  1.0000
  H   H4        1.0  0.6355935180534686  0.25255044281043126  0.3036820373753102  1.0000
  H   H5        1.0  0.266943029100034  0.5431489456728257  0.7267859852844724  1.0000
  H   H6        1.0  0.7330593001858362  0.45684793586087846  0.2732131799900657  1.0000
  H   H7        1.0  0.29651888484152533  0.13834264169996402  0.2629076523393223  1.0000
  H   H8        1.0  0.7034796107563253  0.8616571639735041  0.7370925049167313  1.0000
  H   H9        1.0  0.0650130277782566  0.0886449615600853  0.31044631329454125  1.0000
  H   H10       1.0  0.9349875080586543  0.9113578137229297  0.6895544709619797  1.0000
  H   H11       1.0  0.08073300370462991  0.33808102833305037  0.3103172273165598  1.0000
  H   H12       1.0  0.919267658434329  0.66192617923911  0.6896850845795797  1.0000
  H   H13       1.0  0.05600797848365601  0.15388278259043628  0.5119865893375818  1.0000
  H   H14       1.0  0.9439905171141945  0.8461170230830317  0.4880135679184719  1.0000
  H   H15       1.0  0.3275420140083015  0.0373579361398768  0.4872040825374243  1.0000
  H   H16       1.0  0.6724564757755547  0.962641868314165  0.5127952654218433  1.0000
  H   H17       1.0  0.23065633756315412  0.2976425422495694  0.49364515494084327  1.0000
  H   H18       1.0  0.7693436207024648  0.7023572735719198  0.5063541017731552  1.0000
  H   H19       1.0  0.875330388174419  0.3168077410278798  0.6664929701014514  1.0000
  H   H20       1.0  0.12467048425767754  0.6831891315772298  0.3335079050119347  1.0000
  H   H21       1.0  0.3801492879073506  0.12522583271550763  0.8154276968925914  1.0000
  H   H22       1.0  0.6198511274415072  0.8747725114977951  0.18457236902109742  1.0000
  H   H23       1.0  0.4312619382382082  0.1878880393206686  0.9340644745540703  1.0000
  H   H24       1.0  0.5687370086288797  0.8121102935251869  0.06593568260488777  1.0000
  H   H25       1.0  0.6152514510734405  0.11440181413108519  0.06467802393251532  1.0000
  H   H26       1.0  0.38474896427541694  0.8855965300822106  0.9353220419811735  1.0000
  H   H27       1.0  0.52120220817622  0.34626555542580206  0.08978564211033563  1.0000
  H   H28       1.0  0.4788006928669332  0.6537342843500014  0.910214241409932  1.0000
  C   C1        1.0  0.5912251952898018  0.47501547086098134  0.7128575504549275  1.0000
  C   C2        1.0  0.40877872296588447  0.5249858531098895  0.2871422419171736  1.0000
  C   C3        1.0  0.38795554146756234  0.591082102861165  0.6781353404144285  1.0000
  C   C4        1.0  0.6120435084455806  0.4089206573961235  0.3218631071969754  1.0000
  C   C5        1.0  0.06454338975408551  0.22198644717209248  0.1528233585958745  1.0000
  C   C6        1.0  0.9354561346842943  0.7780148451352887  0.847178326105599  1.0000
  C   C7        1.0  0.1286349039341275  0.1979359452376315  0.2664622732281785  1.0000
  C   C8        1.0  0.8713627007532385  0.802066808529922  0.7335395028156598  1.0000
  C   C9        1.0  0.22600869306250365  0.16058911070752657  0.6491212843226252  1.0000
  C   C10       1.0  0.7739917164723522  0.8394092322863502  0.3508779722942776  1.0000
  C   C11       1.0  0.20873870954763157  0.1593604861609066  0.5284156979542871  1.0000
  C   C12       1.0  0.7912612487179873  0.8406393296605758  0.4715835587597113  1.0000
  O   O1        1.0  0.7305793718526206  0.3895121933919015  0.6344374032455491  1.0000
  O   O2        1.0  0.26942340288848504  0.6104832140947636  0.3655609526351  1.0000
  O   O3        1.0  0.6243797838009401  0.4642697733423519  0.8112165989433109  1.0000
  O   O4        1.0  0.3756236657435039  0.5357330197978527  0.18878076563551363  1.0000
  O   O5        1.0  0.015388280760028272  0.39229165293876633  0.10846681412353829  1.0000
  O   O6        1.0  0.9846087521700541  0.6077081425866808  0.8915342436745775  1.0000
  O   O7        1.0  0.06062015060763312  0.07006496516835628  0.10210800868854622  1.0000
  O   O8        1.0  0.9393808423125162  0.9299363385064652  0.8978935847676655  1.0000
  O   O9        1.0  0.05841584055828972  0.23353956890007774  0.712527041995081  1.0000
  O   O10       1.0  0.9415831063088052  0.7664587639457778  0.287473115163877  1.0000
  O   O11       1.0  0.39919007880504864  0.09616099440162168  0.6843296614441741  1.0000
  O   O12       1.0  0.6008098794605704  0.9038388214198675  0.3156695952698243  1.0000
  O   O13       1.0  0.5906777434212103  0.24933116127041902  0.03161490152003671  1.0000
  O   O14       1.0  0.409322677741649  0.7506671841623034  0.9683859736904524  1.0000
  O   O15       1.0  0.34232083925177653  0.12742953245226127  0.8971686765568381  1.0000
  O   O16       1.0  0.6576795702830796  0.8725688105416154  0.10283058006006482  1.0000
