data_image0
_chemical_formula_structural       Cu8H60C96I8N12O24
_chemical_formula_sum              "Cu8 H60 C96 I8 N12 O24"
_cell_length_a       7.813733834024665
_cell_length_b       17.80390565513288
_cell_length_c       29.44340280045579
_cell_angle_alpha    95.19543011214233
_cell_angle_beta     89.99983410040761
_cell_angle_gamma    90.0002518656379

_space_group_name_H-M_alt    "P 1"
_space_group_IT_number       1

loop_
  _space_group_symop_operation_xyz
  'x, y, z'

loop_
  _atom_site_type_symbol
  _atom_site_label
  _atom_site_symmetry_multiplicity
  _atom_site_fract_x
  _atom_site_fract_y
  _atom_site_fract_z
  _atom_site_occupancy
  Cu  Cu1       1.0  0.19029661391271452  0.2331911560120616  0.5148101030818708  1.0000
  Cu  Cu2       1.0  0.1902905092361848  0.7668075183724807  0.48519023413736306  1.0000
  Cu  Cu3       1.0  0.3021632396294009  0.34777974251372257  0.47933823378210144  1.0000
  Cu  Cu4       1.0  0.3021658277874195  0.6522191350648466  0.5206620292041464  1.0000
  Cu  Cu5       1.0  0.767251393969566  0.7298073216694118  0.01358788322163919  1.0000
  Cu  Cu6       1.0  0.7672552498064037  0.27019183667378843  0.9864120415300023  1.0000
  Cu  Cu7       1.0  0.8750658057816594  0.8445915611126437  0.9781765604102189  1.0000
  Cu  Cu8       1.0  0.8750688636955246  0.1554089314998777  0.021825050776904196  1.0000
  H   H1        1.0  0.1947483968917041  0.16535228085426465  0.8008695747086776  1.0000
  H   H2        1.0  0.1947525185287589  0.8346514670462495  0.19912932740565029  1.0000
  H   H3        1.0  0.3217004331891502  0.28971782449836064  0.9285208917815025  1.0000
  H   H4        1.0  0.32170470290696324  0.7102793966044839  0.07147926937767579  1.0000
  H   H5        1.0  0.4330376274672929  0.3848178505253299  0.8014578757281825  1.0000
  H   H6        1.0  0.4330395418869485  0.6151857892270909  0.19854457586369278  1.0000
  H   H7        1.0  0.1456350148357544  0.3202824808248294  0.6843995359493036  1.0000
  H   H8        1.0  0.14563373448188335  0.679724559697483  0.3155992367343571  1.0000
  H   H9        1.0  0.08709497937535102  0.3249237595282678  0.6014339535122488  1.0000
  H   H10       1.0  0.0870889012276379  0.6750803568171191  0.3985650496606609  1.0000
  H   H11       1.0  0.38503115353565687  0.13472965088558195  0.567436186206102  1.0000
  H   H12       1.0  0.3850304596191235  0.8652710754493708  0.4325651298968153  1.0000
  H   H13       1.0  0.4441009735745212  0.11846060989755355  0.6491461040426287  1.0000
  H   H14       1.0  0.44410646072697085  0.881541919883588  0.3508559412182919  1.0000
  H   H15       1.0  0.3937911048490078  0.9731343194919545  0.9194617991741935  1.0000
  H   H16       1.0  0.3937845422771887  0.026861346859163894  0.08053924453061259  1.0000
  H   H17       1.0  0.225976912046427  0.8719536552410857  0.9532152473104246  1.0000
  H   H18       1.0  0.2259730207050694  0.12804453462082677  0.046787414839997196  1.0000
  H   H19       1.0  0.775664819182616  0.9955382188436417  0.950232583852653  1.0000
  H   H20       1.0  0.7756596485373422  0.004460392878883099  0.04976764544533549  1.0000
  H   H21       1.0  0.9241720808953957  0.10106439340636088  0.9161280808282015  1.0000
  H   H22       1.0  0.9241678789486939  0.8989322174475587  0.0838695532141784  1.0000
  H   H23       1.0  0.2450123532163104  0.5779764395541134  0.9659004640894506  1.0000
  H   H24       1.0  0.2450166856781024  0.422022346783798  0.03410187530096209  1.0000
  H   H25       1.0  0.4146208576904229  0.686825369781445  0.0009716629606088954  1.0000
  H   H26       1.0  0.4146211690568932  0.3131737099608997  0.9990281856571882  1.0000
  H   H27       1.0  0.8732831369544057  0.5869658141022852  0.9583161608936165  1.0000
  H   H28       1.0  0.8732911347866549  0.4130290416808505  0.04168617450753229  1.0000
  H   H29       1.0  0.7222192832145921  0.4749119916298452  0.9193970028876918  1.0000
  H   H30       1.0  0.7222203048559237  0.5250797844834167  0.08060766288018328  1.0000
  H   H31       1.0  0.9041070354243743  0.8826910754431763  0.3040570834732605  1.0000
  H   H32       1.0  0.9041035820874085  0.11730775491763268  0.695940682366462  1.0000
  H   H33       1.0  0.668071550863523  0.6623298163401896  0.29865153808461997  1.0000
  H   H34       1.0  0.6680817790175552  0.33767027518533865  0.7013461334894798  1.0000
  H   H35       1.0  0.7530910051260947  0.7882437832309604  0.4285395311298927  1.0000
  H   H36       1.0  0.7530962711534386  0.21175477703104656  0.5714590144088872  1.0000
  H   H37       1.0  0.6742299200042438  0.07801007214209929  0.464434390327817  1.0000
  H   H38       1.0  0.6742235473358349  0.9219945340807738  0.5355621551440137  1.0000
  H   H39       1.0  0.8376271987533813  0.18858823434948135  0.4996626435002226  1.0000
  H   H40       1.0  0.837620097743482  0.8114116220779761  0.5003382834182658  1.0000
  H   H41       1.0  0.3028915239517432  0.09035725916014306  0.4615378784237264  1.0000
  H   H42       1.0  0.30288499486346143  0.9096410578389533  0.538462694208441  1.0000
  H   H43       1.0  0.15864378546871188  0.9762470351591612  0.42298132092219004  1.0000
  H   H44       1.0  0.15864069515744458  0.023756068513314698  0.5770151973025364  1.0000
  H   H45       1.0  0.6724882858461997  0.817916064145386  0.18076534523694218  1.0000
  H   H46       1.0  0.6724879706113354  0.1820846161302966  0.8192350710063891  1.0000
  H   H47       1.0  0.6456654860973571  0.8225462441261369  0.09690897928646788  1.0000
  H   H48       1.0  0.6456731613869309  0.17745382135644402  0.9030910853849505  1.0000
  H   H49       1.0  0.9568475351560011  0.6343083350894148  0.0707440852251153  1.0000
  H   H50       1.0  0.9568542620452118  0.365688901205111  0.9292538964993254  1.0000
  H   H51       1.0  0.9872242834996497  0.6187295454173733  0.1536725425532381  1.0000
  H   H52       1.0  0.9872256797035702  0.3812700082783848  0.8463265567403367  1.0000
  H   H53       1.0  0.8271014404549247  0.4712142280496037  0.42071719528704676  1.0000
  H   H54       1.0  0.8271059788893422  0.5287844708261813  0.5792819806356135  1.0000
  H   H55       1.0  0.65460959464221  0.37307478973920627  0.45576204181774216  1.0000
  H   H56       1.0  0.6546180676195305  0.626924721720627  0.5442369680567651  1.0000
  H   H57       1.0  0.2076101409639008  0.4977330073480815  0.4480136395063424  1.0000
  H   H58       1.0  0.2076134320281611  0.5022668285611329  0.5519870852098093  1.0000
  H   H59       1.0  0.3613248175967668  0.6005018713161261  0.4126090833270339  1.0000
  H   H60       1.0  0.3613305224743187  0.3994993696727746  0.5873912588842458  1.0000
  C   C1        1.0  0.3142936132107081  0.2744682481611277  0.7961751767369804  1.0000
  C   C2        1.0  0.3142991422530698  0.7255379895742632  0.2038264825105216  1.0000
  C   C3        1.0  0.2484527093196931  0.21567454243538717  0.8190403592420592  1.0000
  C   C4        1.0  0.2484565230183833  0.784325908614427  0.180956630776727  1.0000
  C   C5        1.0  0.25301240693193716  0.223251636694897  0.8664495034645652  1.0000
  C   C6        1.0  0.2530230640695663  0.7767471474296738  0.13355011263956126  1.0000
  C   C7        1.0  0.32118742004659845  0.28616226200928435  0.8914346308140466  1.0000
  C   C8        1.0  0.32118747873936115  0.7138327084882545  0.10856643144457218  1.0000
  C   C9        1.0  0.3857843605789668  0.3433891052215401  0.8670980413500615  1.0000
  C   C10       1.0  0.38579253324536467  0.6566099451824596  0.13290556361639713  1.0000
  C   C11       1.0  0.3831047022318828  0.33902743589579387  0.819695764698146  1.0000
  C   C12       1.0  0.38310599910192167  0.6609744191047894  0.18030629141797758  1.0000
  C   C13       1.0  0.3421510546153783  0.20924701579347968  0.7215675857368211  1.0000
  C   C14       1.0  0.3421551419878384  0.7907587001761553  0.27843266641745856  1.0000
  C   C15       1.0  0.27015710639599894  0.10147579174069679  0.8916767126910017  1.0000
  C   C16       1.0  0.2701436730494819  0.898523602146113  0.10832529989413327  1.0000
  C   C17       1.0  0.3659503448582981  0.45559435856344505  0.9169832654749754  1.0000
  C   C18       1.0  0.3659553742634144  0.5444040897312517  0.08301998328579428  1.0000
  C   C19       1.0  0.3006398424749647  0.21852751014622368  0.6733103141743086  1.0000
  C   C20       1.0  0.3006369070245539  0.7814764363623251  0.32668953691803176  1.0000
  C   C21       1.0  0.2004870736832771  0.2778108847889911  0.6596648857338607  1.0000
  C   C22       1.0  0.20048594994374008  0.7221951357620852  0.34033515029838657  1.0000
  C   C23       1.0  0.16776035111897158  0.28077129340200446  0.6134466838174788  1.0000
  C   C24       1.0  0.16775485031277526  0.7192335313524151  0.38655195570287043  1.0000
  C   C25       1.0  0.3301649850903203  0.17334516867538946  0.5944232101954228  1.0000
  C   C26       1.0  0.3301654780004171  0.8266571436878322  0.40557721193559354  1.0000
  C   C27       1.0  0.36445303748656943  0.16485407152792664  0.6398567661826886  1.0000
  C   C28       1.0  0.36445539503433366  0.8351483031152253  0.3601436331955695  1.0000
  C   C29       1.0  0.17111185616308688  0.044358578008093695  0.9143208880172935  1.0000
  C   C30       1.0  0.1711030871350516  0.9556377909213508  0.08567696522106158  1.0000
  C   C31       1.0  0.2568463320752556  0.9795670264688208  0.9254699386050473  1.0000
  C   C32       1.0  0.25684105045126426  0.020432334873809993  0.0745307238220292  1.0000
  C   C33       1.0  0.1644419798596886  0.9236488515530888  0.9443337530503582  1.0000
  C   C34       1.0  0.16443874930453722  0.07635035870487168  0.05566968866744299  1.0000
  C   C35       1.0  0.9121386528679308  0.9923047188479752  0.9423318902994778  1.0000
  C   C36       1.0  0.9121334280317583  0.007695275011918997  0.057669326922607  1.0000
  C   C37       1.0  0.9956651374145976  0.051220576659396486  0.9236103657393713  1.0000
  C   C38       1.0  0.9956551214448908  0.9487778643819025  0.07638866871536719  1.0000
  C   C39       1.0  0.4701516774357231  0.5177105434874604  0.9395780650594218  1.0000
  C   C40       1.0  0.47015632854031236  0.48228527831923856  0.06042564594761048  1.0000
  C   C41       1.0  0.38405216572639483  0.5776866955405069  0.9636011350755211  1.0000
  C   C42       1.0  0.3840551960422829  0.4223100852931195  0.03640065382401049  1.0000
  C   C43       1.0  0.47804711380909026  0.6377626630643717  0.9836671738833687  1.0000
  C   C44       1.0  0.47805231825444133  0.36223709796654896  0.0163330020135248  1.0000
  C   C45       1.0  0.734088450702913  0.5821894143075993  0.9592771804963505  1.0000
  C   C46       1.0  0.7340901083068302  0.41780912818610705  0.0407240956286188  1.0000
  C   C47       1.0  0.6494181094034912  0.5202667750829233  0.9376204268572506  1.0000
  C   C48       1.0  0.6494188738100347  0.47972882090095914  0.062385174058185576  1.0000
  C   C49       1.0  0.8362554298576724  0.8417072274898556  0.36861136862877686  1.0000
  C   C50       1.0  0.8362543789974026  0.15829429957115335  0.6313865903377476  1.0000
  C   C51       1.0  0.84852636786961  0.8369491943826616  0.3212969529916876  1.0000
  C   C52       1.0  0.8485286845290148  0.16304952874967424  0.6786998304862876  1.0000
  C   C53       1.0  0.787908549459466  0.7719408763970178  0.2965304199068513  1.0000
  C   C54       1.0  0.7879150890955913  0.22805774919983426  0.7034684422749748  1.0000
  C   C55       1.0  0.7153909470149741  0.7129635054645431  0.3179547284857591  1.0000
  C   C56       1.0  0.7153957573438349  0.28703724227234767  0.6820439605526258  1.0000
  C   C57       1.0  0.7046455438191046  0.7209119396694559  0.3653324358576882  1.0000
  C   C58       1.0  0.7046482349163482  0.2790859727972474  0.6346667917014699  1.0000
  C   C59       1.0  0.7644852291470271  0.7843523390677304  0.3915667249132966  1.0000
  C   C60       1.0  0.7644952474043691  0.21564905555160144  0.6084309419263503  1.0000
  C   C61       1.0  0.8040611326919986  0.9545481457229383  0.41789961649830326  1.0000
  C   C62       1.0  0.8040620448035369  0.04545501064023939  0.5820977731989031  1.0000
  C   C63       1.0  0.8541599283481601  0.7083458024175541  0.22322140404166646  1.0000
  C   C64       1.0  0.8541573453990379  0.29165519945590285  0.7767775326647451  1.0000
  C   C65       1.0  0.7099098789096487  0.5982902648165049  0.38990116264888997  1.0000
  C   C66       1.0  0.7099089576073397  0.4017093449843541  0.6100974707867834  1.0000
  C   C67       1.0  0.9035836060893132  0.018071902035032398  0.44069821621437905  1.0000
  C   C68       1.0  0.9035775771855655  0.9819314350869844  0.5592991074461082  1.0000
  C   C69       1.0  0.8135205695404507  0.07830190343815248  0.4632802943614322  1.0000
  C   C70       1.0  0.8135180206218068  0.9216995781401564  0.5367170001975836  1.0000
  C   C71       1.0  0.9040472705460657  0.13945615369706837  0.48339345639878667  1.0000
  C   C72       1.0  0.9040430459655583  0.8605443768925337  0.5166057573311278  1.0000
  C   C73       1.0  0.16372755339613576  0.08472461996673528  0.4616133264840556  1.0000
  C   C74       1.0  0.16372364155302674  0.915275136230903  0.5383874273531645  1.0000
  C   C75       1.0  0.08288892070491019  0.02169825243246489  0.4400803090253831  1.0000
  C   C76       1.0  0.08288284843963109  0.978304143372973  0.559915210606448  1.0000
  C   C77       1.0  0.8323729644044278  0.7172075818441568  0.17398605580781623  1.0000
  C   C78       1.0  0.8323723106972949  0.2827933846462968  0.8260135748488082  1.0000
  C   C79       1.0  0.7371320710180882  0.7758467412091786  0.15772147429294137  1.0000
  C   C80       1.0  0.7371383259223306  0.22415348621770184  0.8422778501915571  1.0000
  C   C81       1.0  0.7219718574742301  0.7788346153007024  0.11092562712623528  1.0000
  C   C82       1.0  0.7219724488831288  0.2211633223531351  0.889072569695706  1.0000
  C   C83       1.0  0.8921486864770642  0.6725906136833614  0.0961723384257951  1.0000
  C   C84       1.0  0.8921501874158508  0.3274070816423417  0.9038277543344504  1.0000
  C   C85       1.0  0.9101129145856532  0.6644071731730886  0.14231084266102556  1.0000
  C   C86       1.0  0.9101188444042662  0.3355922509361022  0.8576900065337795  1.0000
  C   C87       1.0  0.6068627069695863  0.542922018401981  0.41301045686860494  1.0000
  C   C88       1.0  0.6068677172365895  0.45707741261201557  0.5869896039308031  1.0000
  C   C89       1.0  0.6899659870303053  0.47858739906656916  0.4259079746419658  1.0000
  C   C90       1.0  0.6899692283420648  0.5214133024889093  0.5740907312679011  1.0000
  C   C91       1.0  0.5948599855814436  0.42431007636596957  0.44553316653828284  1.0000
  C   C92       1.0  0.5948639899858108  0.5756887604836647  0.5544655136173232  1.0000
  C   C93       1.0  0.34458052687846663  0.4935591734009749  0.44095137023914077  1.0000
  C   C94       1.0  0.34458634202213284  0.5064369675666994  0.5590497357364937  1.0000
  C   C95       1.0  0.4310005552927123  0.5509413355721404  0.4214131700997896  1.0000
  C   C96       1.0  0.4310081365798126  0.4490566522334092  0.578587627645959  1.0000
  I   I1        1.0  0.9960337237618333  0.35735312968114374  0.5049399418639524  1.0000
  I   I2        1.0  0.9960364966474201  0.6426447543346967  0.49506008196203055  1.0000
  I   I3        1.0  0.5003752115957383  0.2335072491788849  0.4771299367963805  1.0000
  I   I4        1.0  0.5003712493428552  0.7664942380807529  0.5228692939091033  1.0000
  I   I5        1.0  0.5678007034529243  0.8544860377391357  0.0024505466901842956  1.0000
  I   I6        1.0  0.5678057389300903  0.14551332441931908  0.997549879776116  1.0000
  I   I7        1.0  0.0752683591713463  0.73138751981579  0.9760308710494741  1.0000
  I   I8        1.0  0.0752738151523786  0.2686115075445484  0.023969232367789993  1.0000
  N   N1        1.0  0.23224800866138648  0.22999982691570148  0.5810102638557665  1.0000
  N   N2        1.0  0.2322452231571432  0.7700051338152389  0.4189913905949608  1.0000
  N   N3        1.0  0.9942411526205887  0.9290967280169937  0.952325586175391  1.0000
  N   N4        1.0  0.9942379549483745  0.07090340659466679  0.047674217578332886  1.0000
  N   N5        1.0  0.6506995531336557  0.640921862706058  0.9817527539208937  1.0000
  N   N6        1.0  0.6507059844573106  0.3590759685303836  0.018249227409043597  1.0000
  N   N7        1.0  0.07674371118208262  0.14355678872902894  0.48279672528931866  1.0000
  N   N8        1.0  0.0767419982686022  0.8564433734673995  0.5172041158868836  1.0000
  N   N9        1.0  0.7979226565699662  0.728411896166193  0.08027702788965028  1.0000
  N   N10       1.0  0.7979259794060312  0.27158449794693235  0.9197227284059153  1.0000
  N   N11       1.0  0.42424756410292014  0.430753333597984  0.45261784285433737  1.0000
  N   N12       1.0  0.42424902175215357  0.5692446356552024  0.5473819401335618  1.0000
  O   O1        1.0  0.304198826269797  0.27439520795837063  0.7490100303478684  1.0000
  O   O2        1.0  0.30420511763629315  0.7256115691488458  0.25099064597780085  1.0000
  O   O3        1.0  0.1781259007036056  0.16718237997539373  0.8901625250919664  1.0000
  O   O4        1.0  0.17812970513851673  0.8328140058926933  0.10983600298190768  1.0000
  O   O5        1.0  0.4661584170767341  0.40602651644955756  0.8900146902226354  1.0000
  O   O6        1.0  0.4661662097409618  0.5939732439272088  0.10998889103184688  1.0000
  O   O7        1.0  0.40339798052524867  0.15288074971982005  0.7355815662592133  1.0000
  O   O8        1.0  0.4033976712278218  0.8471256435715799  0.26441901462334977  1.0000
  O   O9        1.0  0.4132577466490446  0.09218084493462436  0.8758192314631543  1.0000
  O   O10       1.0  0.4132493520291547  0.9078193644868408  0.1241813567975782  1.0000
  O   O11       1.0  0.2112483246347523  0.4491979134173079  0.9206533992436903  1.0000
  O   O12       1.0  0.21125217906970306  0.5507985682052164  0.07935088254981079  1.0000
  O   O13       1.0  0.9097505687832096  0.9048792617979515  0.3927404128929409  1.0000
  O   O14       1.0  0.9097517054411882  0.09512296693125678  0.6072582064192389  1.0000
  O   O15       1.0  0.7933313097023812  0.7713117319583842  0.24924028322620018  1.0000
  O   O16       1.0  0.7933334967061824  0.2286880293657133  0.7507582948534122  1.0000
  O   O17       1.0  0.6227649501807803  0.6651885933091249  0.38790546530066183  1.0000
  O   O18       1.0  0.6227697311493686  0.33480803827483635  0.6120930778548512  1.0000
  O   O19       1.0  0.6491364317593734  0.9472245198589987  0.4199682341776594  1.0000
  O   O20       1.0  0.6491387202757437  0.052780044981254486  0.5800290074362238  1.0000
  O   O21       1.0  0.918433577139467  0.6541853452028333  0.2390976466308317  1.0000
  O   O22       1.0  0.9184278755321884  0.34581747165393734  0.7609023555305825  1.0000
  O   O23       1.0  0.8528185370872591  0.5868608871376322  0.37434016381867247  1.0000
  O   O24       1.0  0.8528175600908695  0.41314012276949785  0.6256604725120951  1.0000
