data_image0
_chemical_formula_structural       Al2H17C22NO10
_chemical_formula_sum              "Al2 H17 C22 N1 O10"
_cell_length_a       6.665437148079149
_cell_length_b       11.155629450671576
_cell_length_c       11.092268178855011
_cell_angle_alpha    82.21208684998408
_cell_angle_beta     73.46882617251116
_cell_angle_gamma    71.95722943063514

_space_group_name_H-M_alt    "P 1"
_space_group_IT_number       1

loop_
  _space_group_symop_operation_xyz
  'x, y, z'

loop_
  _atom_site_type_symbol
  _atom_site_label
  _atom_site_symmetry_multiplicity
  _atom_site_fract_x
  _atom_site_fract_y
  _atom_site_fract_z
  _atom_site_occupancy
  Al  Al1       1.0  0.4885323125118859  0.5039652318668573  0.5090276969367267  1.0000
  Al  Al2       1.0  0.9895000586618747  0.5042389522810709  0.502961708984131  1.0000
  H   H1        1.0  0.2892473405107978  0.3507527779420556  0.5638056332887658  1.0000
  H   H2        1.0  0.6932715208796977  0.6557344304149311  0.4386710763689479  1.0000
  H   H3        1.0  0.09563158536781208  0.5696350996959296  0.11230794411968506  1.0000
  H   H4        1.0  0.7606510546733745  0.4589644583462232  0.13697221626962633  1.0000
  H   H5        1.0  0.23064660587554187  0.5705555939997852  0.8757104616608943  1.0000
  H   H6        1.0  0.26016487581343734  0.23410037771426323  0.31761113929585605  1.0000
  H   H7        1.0  0.4592313148918735  0.7672352245608065  0.32731983638323203  1.0000
  H   H8        1.0  0.7352019012640484  0.8896449555147541  0.599304694339331  1.0000
  H   H9        1.0  0.6287337131572528  0.12537695261973877  0.589302584358137  1.0000
  H   H10       1.0  0.0017266316479336288  0.4563463477166961  0.7986630462862792  1.0000
  H   H11       1.0  0.04757609158424717  0.4296240119828028  0.9495912894428714  1.0000
  H   H12       1.0  0.8133190316487102  0.1086179891073158  0.19500780895297962  1.0000
  H   H13       1.0  0.5877850593689331  0.236896701181827  0.17137949472929395  1.0000
  H   H14       1.0  0.7018079012439812  0.1104621274368824  0.06797444474198501  1.0000
  H   H15       1.0  0.7929528490923445  0.8828154230266353  0.07215239906231122  1.0000
  H   H16       1.0  0.7923236337563679  0.7544374271375388  0.18634058466458478  1.0000
  H   H17       1.0  0.9151582768434988  0.8720580269277535  0.19650848721168782  1.0000
  C   C1        1.0  0.8670420136176202  0.2769732052400827  0.4849661597907798  1.0000
  C   C2        1.0  0.6310681826562285  0.5053330355659966  0.735053335499032  1.0000
  C   C3        1.0  0.119621652206277  0.7316972145672196  0.5047957136585595  1.0000
  C   C4        1.0  0.35086777817843995  0.5086448908503128  0.27708711914653616  1.0000
  C   C5        1.0  0.5682597002462302  0.5106109686130224  0.873361136629768  1.0000
  C   C6        1.0  0.4236901578359563  0.5112198674612004  0.13668520964156272  1.0000
  C   C7        1.0  0.7254462156416468  0.48006983000011155  0.9457683368611074  1.0000
  C   C8        1.0  0.2691046703027951  0.5438389723710629  0.06486261944910149  1.0000
  C   C9        1.0  0.6457433942653807  0.48203831945572523  0.07838077457839188  1.0000
  C   C10       1.0  0.3441769785807481  0.5440135017302127  0.9350614770340399  1.0000
  C   C11       1.0  0.9397773491258474  0.13744699672628974  0.47331289719263486  1.0000
  C   C12       1.0  0.15239771813194378  0.07061547510356549  0.4020469959887549  1.0000
  C   C13       1.0  0.7912101525116312  0.0722761093862943  0.5386623933455468  1.0000
  C   C14       1.0  0.3040271551474802  0.13148171157553892  0.3222746494237967  1.0000
  C   C15       1.0  0.5044059384126243  0.06541600250330501  0.2497297273706209  1.0000
  C   C16       1.0  0.05949032757256136  0.8716649828333515  0.48381343773312574  1.0000
  C   C17       1.0  0.850478890662977  0.9400901339590816  0.5442949879887066  1.0000
  C   C18       1.0  0.2120918658592288  0.9348265250260824  0.40647592031839963  1.0000
  C   C19       1.0  0.4166275781208455  0.8695113677028063  0.32899479784355634  1.0000
  C   C20       1.0  0.5619460475871635  0.9306659829355726  0.25262195892391764  1.0000
  C   C21       1.0  0.6588272950486596  0.13437189319314063  0.16699065936890636  1.0000
  C   C22       1.0  0.776161533856545  0.8559291887546723  0.17297775435083915  1.0000
  N   N1        1.0  0.9444505218360676  0.4465649820102726  0.8936784605719909  1.0000
  O   O1        1.0  0.6638745841123848  0.331983391270917  0.4987351178705097  1.0000
  O   O2        1.0  0.8309210269411055  0.49687653197690207  0.6769017300776029  1.0000
  O   O3        1.0  0.9730420780054486  0.6775296492130991  0.5133942986479241  1.0000
  O   O4        1.0  0.4932877799526736  0.505122023139364  0.33443239573924194  1.0000
  O   O5        1.0  0.312114427034821  0.6753527214318282  0.5150529750278281  1.0000
  O   O6        1.0  0.15256963237048637  0.5107663128075757  0.3285933938934988  1.0000
  O   O7        1.0  0.008390990332216637  0.3320542663582772  0.4851687320786411  1.0000
  O   O8        1.0  0.48363774324740655  0.5071242687507579  0.6816387870480867  1.0000
  O   O9        1.0  0.24422987151386633  0.44246499638786213  0.5591843375010725  1.0000
  O   O10       1.0  0.7322728736330716  0.5646043055552922  0.4529396592212579  1.0000
