data_image0
_chemical_formula_structural       Gd2H20C32N10O16
_chemical_formula_sum              "Gd2 H20 C32 N10 O16"
_cell_length_a       9.54964134662524
_cell_length_b       10.189874617679616
_cell_length_c       11.631107561625608
_cell_angle_alpha    66.37817834776283
_cell_angle_beta     65.76764173297693
_cell_angle_gamma    62.060072917190624

_space_group_name_H-M_alt    "P 1"
_space_group_IT_number       1

loop_
  _space_group_symop_operation_xyz
  'x, y, z'

loop_
  _atom_site_type_symbol
  _atom_site_label
  _atom_site_symmetry_multiplicity
  _atom_site_fract_x
  _atom_site_fract_y
  _atom_site_fract_z
  _atom_site_occupancy
  Gd  Gd1       1.0  0.3426793424092836  0.250008509173995  0.7499947873308414  1.0000
  Gd  Gd2       1.0  0.6573203951702594  0.7499918243163323  0.2500056597045982  1.0000
  H   H1        1.0  0.550793749612794  0.8911926098387539  0.8637319186678027  1.0000
  H   H2        1.0  0.30574605518090453  0.6087977799729603  0.6362571973805584  1.0000
  H   H3        1.0  0.4492063984606958  0.10880887403818212  0.13626741637642678  1.0000
  H   H4        1.0  0.6942529208667023  0.3912025536826891  0.3637428626654184  1.0000
  H   H5        1.0  0.5502927030126514  0.624546059378119  0.9446842015237917  1.0000
  H   H6        1.0  0.1195439993077585  0.8754719629809531  0.5552971929832821  1.0000
  H   H7        1.0  0.4497070345668917  0.3754542741122081  0.0553162455116549  1.0000
  H   H8        1.0  0.8804561871900276  0.12452722052108811  0.44470350618203003  1.0000
  H   H9        1.0  0.29802357987183137  0.5882063851879382  0.9557715511155747  1.0000
  H   H10       1.0  0.8420172655325613  0.9118069960891764  0.5442177429740979  1.0000
  H   H11       1.0  0.7019770171198944  0.41179394870071934  0.04422803605852724  1.0000
  H   H12       1.0  0.15798215943328847  0.08819218757819411  0.4557825692017444  1.0000
  H   H13       1.0  0.06442723216619596  0.8152962928655259  0.8931659429787898  1.0000
  H   H14       1.0  0.7728640190210853  0.6847294998588398  0.6068443698003704  1.0000
  H   H15       1.0  0.935572192799647  0.18470289080184443  0.10683436919705243  1.0000
  H   H16       1.0  0.2271357185584578  0.3152708336314874  0.3931560772350691  1.0000
  H   H17       1.0  0.8776883467614028  0.008007105398803602  0.8407810917011033  1.0000
  H   H18       1.0  0.7264815509643585  0.49199002676616743  0.6592082486454913  1.0000
  H   H19       1.0  0.12231279702881169  0.9919920790652204  0.15921750075205662  1.0000
  H   H20       1.0  0.27351904602736693  0.5080103071224898  0.3407913385286107  1.0000
  C   C1        1.0  0.4453250941062236  0.8694229035681859  0.8714830678305885  1.0000
  C   C2        1.0  0.18624987059639175  0.6305854531040539  0.6285025279250432  1.0000
  C   C3        1.0  0.5546750923915553  0.13057627993385526  0.1285176313347236  1.0000
  C   C4        1.0  0.8137491054512154  0.3694148805516023  0.3714975321209266  1.0000
  C   C5        1.0  0.4439793175665513  0.7209990490987438  0.9165404602075354  1.0000
  C   C6        1.0  0.0815425104205617  0.7790149236212685  0.583434146316037  1.0000
  C   C7        1.0  0.5560211815449279  0.27900128422626125  0.08346037381737395  1.0000
  C   C8        1.0  0.9184569145452811  0.22098426004610167  0.4165661658598054  1.0000
  C   C9        1.0  0.3053534683959998  0.7014678817949759  0.9240137134800576  1.0000
  C   C10       1.0  0.9308492660017652  0.7985455154761852  0.5759803910533419  1.0000
  C   C11       1.0  0.6946459565698433  0.2985313018723873  0.07598659869578474  1.0000
  C   C12       1.0  0.06915092049602127  0.20145366802585585  0.4240203081119702  1.0000
  C   C13       1.0  0.17325283777743986  0.830051142219148  0.8868107154446034  1.0000
  C   C14       1.0  0.8900871194207769  0.6699865894097529  0.6132126058760433  1.0000
  C   C15       1.0  0.8267477592142852  0.16994919166950959  0.11318887172949844  1.0000
  C   C16       1.0  0.10991261815876649  0.3300137440805742  0.3867878411594035  1.0000
  C   C17       1.0  0.18348286103430703  0.9755935349310509  0.8416877019994189  1.0000
  C   C18       1.0  0.0007366615274834893  0.5244346719285604  0.6583273901571614  1.0000
  C   C19       1.0  0.8165173254634795  0.02440564857099761  0.1583129971658933  1.0000
  C   C20       1.0  0.9992635249703027  0.4755645115734879  0.3416733090081506  1.0000
  C   C21       1.0  0.05044045873079762  0.11681546431259457  0.7959768012210089  1.0000
  C   C22       1.0  0.9632391513457395  0.3832078472582269  0.7040006566142338  1.0000
  C   C23       1.0  0.9495608997928644  0.8831848694107409  0.20402317294255562  1.0000
  C   C24       1.0  0.036762207177922314  0.6167924864651015  0.2959993175493381  1.0000
  C   C25       1.0  0.9036824967525021  0.11344921143729184  0.7997876763072609  1.0000
  C   C26       1.0  0.8169447285518104  0.38654360217247336  0.7001655765807155  1.0000
  C   C27       1.0  0.09631778762552298  0.8865499726284088  0.2002117760072436  1.0000
  C   C28       1.0  0.18305586843991511  0.6134567317161841  0.2998340105933862  1.0000
  C   C29       1.0  0.787107484479982  0.2500001195863889  0.7499711506277504  1.0000
  C   C30       1.0  0.21289311251175033  0.7500002143022686  0.2500284365463513  1.0000
  C   C31       1.0  0.6300661539603851  0.25002579782944423  0.7499963154393184  1.0000
  C   C32       1.0  0.3699332710054574  0.749973385837926  0.250003996736531  1.0000
  N   N1        1.0  0.18951766223200658  0.3397059389597033  0.9933682438253085  1.0000
  N   N2        1.0  0.5226924598761828  0.1602527477324287  0.5066522122767265  1.0000
  N   N3        1.0  0.8104825242657726  0.6602932445423447  0.00663245533999665  1.0000
  N   N4        1.0  0.4773076881972998  0.8397487361445075  0.49334712276750275  1.0000
  N   N5        1.0  0.07757792606718536  0.2500133412974322  0.749988013877804  1.0000
  N   N6        1.0  0.922421498898665  0.749985842369938  0.2500122982980385  1.0000
  N   N7        1.0  0.31893784651843743  0.9935595241273921  0.8345534281258365  1.0000
  N   N8        1.0  0.14704219389282264  0.5064686658627907  0.6654387729041885  1.0000
  N   N9        1.0  0.681063199391531  0.006439659772979701  0.16544641117813078  1.0000
  N   N10       1.0  0.8529580904852095  0.49353051820290267  0.3345606794103091  1.0000
  O   O1        1.0  0.5790110118642463  0.14236516640465882  0.8320012467106108  1.0000
  O   O2        1.0  0.5533301665630718  0.3577055710361634  0.6679998630519108  1.0000
  O   O3        1.0  0.42098927251378626  0.8576340176610419  0.1679982056038867  1.0000
  O   O4        1.0  0.4466695710164714  0.6422947624541636  0.33200058398353594  1.0000
  O   O5        1.0  0.27675817529546276  0.4091154320079725  0.8927884251778194  1.0000
  O   O6        1.0  0.5787175595340485  0.09085303181237243  0.6072591374566229  1.0000
  O   O7        1.0  0.7232424216962628  0.5908849018806778  0.10721116199628254  1.0000
  O   O8        1.0  0.4212830374576767  0.9091473020762779  0.39274044971747907  1.0000
  O   O9        1.0  0.17442695079552104  0.22821535623938163  0.9788159134462332  1.0000
  O   O10       1.0  0.3815802857953797  0.27177365084017424  0.5211577951359843  1.0000
  O   O11       1.0  0.8255727867840149  0.7717849772509455  0.02118453358921351  1.0000
  O   O12       1.0  0.6184194517841558  0.7282266826501527  0.47884265189945546  1.0000
  O   O13       1.0  0.12554115915769165  0.3764225889107991  0.09731131656226918  1.0000
  O   O14       1.0  0.5993917916482091  0.1235044026372094  0.40272282145004806  1.0000
  O   O15       1.0  0.874459437834034  0.6235777449778583  0.9026882706118327  1.0000
  O   O16       1.0  0.40060987948915244  0.8764970809090827  0.5972772875731209  1.0000
