data_image0
_chemical_formula_structural       Hg4H44Pb4C68N20Cl8
_chemical_formula_sum              "Hg4 H44 Pb4 C68 N20 Cl8"
_cell_length_a       8.935943845219402
_cell_length_b       14.526577206
_cell_length_c       14.54
_cell_angle_alpha    90.0
_cell_angle_beta     95.7323114813692
_cell_angle_gamma    90.0

_space_group_name_H-M_alt    "P 1"
_space_group_IT_number       1

loop_
  _space_group_symop_operation_xyz
  'x, y, z'

loop_
  _atom_site_type_symbol
  _atom_site_label
  _atom_site_symmetry_multiplicity
  _atom_site_fract_x
  _atom_site_fract_y
  _atom_site_fract_z
  _atom_site_occupancy
  Hg  Hg1       1.0  0.6107447929947369  0.37028543776838757  0.514654611423083  1.0000
  Hg  Hg2       1.0  0.8892509148683486  0.8702882875105826  0.9853447812274754  1.0000
  Hg  Hg3       1.0  0.3892654670823035  0.6297161313555506  0.4853460183861743  1.0000
  Hg  Hg4       1.0  0.1107357265057232  0.12970570928585795  0.014653711002623  1.0000
  H   H1        1.0  0.051561877974919  0.5363307467076268  0.23770842661271985  1.0000
  H   H2        1.0  0.4484359415126775  0.03632927375225139  0.2622904079008492  1.0000
  H   H3        1.0  0.9484393845009861  0.4636728875965303  0.7622895876099494  1.0000
  H   H4        1.0  0.5515630715629455  0.9636709185848671  0.7377102192752432  1.0000
  H   H5        1.0  0.9244450316878812  0.6599193921635234  0.13698933453455456  1.0000
  H   H6        1.0  0.5755596737763398  0.1599186076015542  0.3630016695760362  1.0000
  H   H7        1.0  0.0755551060878901  0.3400835537472274  0.8630065473752853  1.0000
  H   H8        1.0  0.4244427133997135  0.8400829615223839  0.6369922871382842  1.0000
  H   H9        1.0  0.7125279063762235  0.6152777680008725  0.020951343347867586  1.0000
  H   H10       1.0  0.7874723002874262  0.1152762950454971  0.4790435111537478  1.0000
  H   H11       1.0  0.2874643584985535  0.38472311272965937  0.9790474940777687  1.0000
  H   H12       1.0  0.2125300868886271  0.8847190785377632  0.5209545721080248  1.0000
  H   H13       1.0  0.628951438881046  0.4507503665278775  0.012399451701824696  1.0000
  H   H14       1.0  0.8710431442818987  0.9507490859096206  0.4876033106991714  1.0000
  H   H15       1.0  0.371041950693872  0.549249825809241  0.9876063323420115  1.0000
  H   H16       1.0  0.1289547440935905  0.04924904124727189  0.512397935195729  1.0000
  H   H17       1.0  0.47514532046673  0.16191632527368674  0.03566791285255991  1.0000
  H   H18       1.0  0.0248558731212967  0.6619191750158819  0.4643352553257858  1.0000
  H   H19       1.0  0.5248638149101694  0.8380873090304775  0.9643415887704097  1.0000
  H   H20       1.0  0.9751431399543335  0.3380810173212367  0.535663308576581  1.0000
  H   H21       1.0  0.5390665282936808  0.3266357885077156  0.0359025480397506  1.0000
  H   H22       1.0  0.9609325536698279  0.8266386382499105  0.46409430069648766  1.0000
  H   H23       1.0  0.4609426070832114  0.6733637154359967  0.9641028270357597  1.0000
  H   H24       1.0  0.0390664594058023  0.1733643076608473  0.5359035754479677  1.0000
  H   H25       1.0  0.6487900246722944  0.051330742915268984  0.12203126277309201  1.0000
  H   H26       1.0  0.8512090572912143  0.5513322158706444  0.3779745268159616  1.0000
  H   H27       1.0  0.3512146119040409  0.9486708262086694  0.8779800259671762  1.0000
  H   H28       1.0  0.1487843322837037  0.4486686648598806  0.622025755164593  1.0000
  H   H29       1.0  0.8181709906424359  0.9664293109736446  0.16759505875365482  1.0000
  H   H30       1.0  0.6818348395219189  0.4664285264116756  0.3324028919751356  1.0000
  H   H31       1.0  0.1818235236326231  0.03357707690415169  0.8324052922660101  1.0000
  H   H32       1.0  0.3181720464546913  0.5335723543188491  0.6675934041693382  1.0000
  H   H33       1.0  0.011640646461785299  0.8688426613522537  0.25226476108573354  1.0000
  H   H34       1.0  0.48836504592680535  0.3688384348232389  0.24773661997531352  1.0000
  H   H35       1.0  0.988361740714268  0.1311602845585043  0.7477333221760462  1.0000
  H   H36       1.0  0.5116362165490997  0.6311576271534276  0.7522620820052667  1.0000
  H   H37       1.0  0.2187406810685246  0.942812598300385  0.3552911017932631  1.0000
  H   H38       1.0  0.28125826311922  0.4428049298043318  0.14471743037013607  1.0000
  H   H39       1.0  0.7812650802079516  0.05719103600377909  0.6447092518595599  1.0000
  H   H40       1.0  0.7187317523552821  0.5571904437789286  0.8552908975880132  1.0000
  H   H41       1.0  0.2233440787465995  0.11677079713584247  0.3662194835353319  1.0000
  H   H42       1.0  0.2766436184397278  0.6167626325835016  0.1337842316895461  1.0000
  H   H43       1.0  0.7766605578297288  0.8832314603815019  0.6337801133204763  1.0000
  H   H44       1.0  0.723341898234203  0.3832313642129391  0.8662196935647162  1.0000
  Pb  Pb1       1.0  0.05803340258758989  0.3096138846900799  0.28384295411358107  1.0000
  Pb  Pb2       1.0  0.4419531698986034  0.8096208647927268  0.21615519000891237  1.0000
  Pb  Pb3       1.0  0.9419296200835204  0.6903649674513728  0.7161644046638997  1.0000
  Pb  Pb4       1.0  0.5580379702760396  0.19037382039712714  0.7838573335357993  1.0000
  C   C1        1.0  0.9578160095784652  0.5204309241462184  0.18620491905289072  1.0000
  C   C2        1.0  0.5421841970851844  0.020430139584249198  0.31379268648036174  1.0000
  C   C3        1.0  0.042192001098293  0.4795706449777127  0.8137935094044197  1.0000
  C   C4        1.0  0.4578125665901566  0.9795686759660496  0.6862050515858797  1.0000
  C   C5        1.0  0.8872691932194954  0.5887353833405127  0.130497549726563  1.0000
  C   C6        1.0  0.6127343875445774  0.08873597556536338  0.36949751189237656  1.0000
  C   C7        1.0  0.1127331939565579  0.4112634322097861  0.8695005335352166  1.0000
  C   C8        1.0  0.3872702490317508  0.9112635283783417  0.6304958951422466  1.0000
  C   C9        1.0  0.7675673571878434  0.5632772182989072  0.0666724135702097  1.0000
  C   C10       1.0  0.7324328494758063  0.0632778105237577  0.43332450420513174  1.0000
  C   C11       1.0  0.2324271570872156  0.4367215972513917  0.9333258741757291  1.0000
  C   C12       1.0  0.267575161200952  0.9367216934199547  0.5666718609784527  1.0000
  C   C13       1.0  0.7217684427366109  0.4716279618277993  0.062148554896538116  1.0000
  C   C14       1.0  0.7782283898266158  0.9716280579963621  0.43785021903521243  1.0000
  C   C15       1.0  0.2782271962385892  0.5283729189027254  0.9378518651622303  1.0000
  C   C16       1.0  0.2217751220495785  0.028372822734162594  0.5621472455077665  1.0000
  C   C17       1.0  0.5790304984121873  0.18561702194281074  0.07371747529214903  1.0000
  C   C18       1.0  0.9209685835513214  0.6856184948981862  0.42628074895991125  1.0000
  C   C19       1.0  0.4209763875644228  0.8143859239679472  0.9262863861893323  1.0000
  C   C20       1.0  0.07903155422445  0.314385139405978  0.5737171962236546  1.0000
  C   C21       1.0  0.61604662946052  0.2784881767144043  0.073204270852294  1.0000
  C   C22       1.0  0.8839547019032779  0.7784910264565992  0.4267906526884247  1.0000
  C   C23       1.0  0.3839613812162384  0.7215120156227142  0.9267941576050165  1.0000
  C   C24       1.0  0.1160510593731985  0.2215119194541515  0.5732062621748497  1.0000
  C   C25       1.0  0.7508768070919202  0.3083100675739486  0.1214979419968216  1.0000
  C   C26       1.0  0.7491211501714474  0.8083094753490982  0.3785002132161281  1.0000
  C   C27       1.0  0.2491323282849791  0.6916915015499894  0.8785019310154214  1.0000
  C   C28       1.0  0.2508767382040347  0.1916886518077945  0.621498281647128  1.0000
  C   C29       1.0  0.7967477023521923  0.4066009436524637  0.12152071711006583  1.0000
  C   C30       1.0  0.7032513796113165  0.9066010398210265  0.3784775071419872  1.0000
  C   C31       1.0  0.2032625577248481  0.5934033790451068  0.8784785371833694  1.0000
  C   C32       1.0  0.2967453840640246  0.0934019060897313  0.6215202309242542  1.0000
  C   C33       1.0  0.6769772596119239  0.1241586351983202  0.12162878359844603  1.0000
  C   C34       1.0  0.8230195729513028  0.6241601081536956  0.37837067809121555  1.0000
  C   C35       1.0  0.3230285016645453  0.8758422455322046  0.8783743210860138  1.0000
  C   C36       1.0  0.1769749413237633  0.3758435261504615  0.6216269218968123  1.0000
  C   C37       1.0  0.8094759338505497  0.157904368487614  0.16965760352404402  1.0000
  C   C38       1.0  0.6905186493123949  0.6579037762627633  0.3303472221506709  1.0000
  C   C39       1.0  0.1905354509266317  0.842094447062685  0.8303437830822278  1.0000
  C   C40       1.0  0.3094713661621  0.3420936625007158  0.6696562915021076  1.0000
  C   C41       1.0  0.918554977048231  0.0949528564395976  0.2214916006647059  1.0000
  C   C42       1.0  0.5814351073141494  0.594952264214747  0.27851569988521874  1.0000
  C   C43       1.0  0.0814530336285273  0.9050480242909342  0.7785075155505157  1.0000
  C   C44       1.0  0.4185537834602044  0.40504723972896517  0.7214932467917308  1.0000
  C   C45       1.0  0.9087430930160919  0.9989737977647051  0.2117173640171686  1.0000
  C   C46       1.0  0.5912537395471347  0.4989737015961423  0.288285536462034  1.0000
  C   C47       1.0  0.0912547953593901  0.001029836539459  0.7882831941198135  1.0000
  C   C48       1.0  0.4087418994280725  0.5010264907409763  0.7117176346283715  1.0000
  C   C49       1.0  0.0169840968327932  0.9434920425947977  0.2597990932562695  1.0000
  C   C50       1.0  0.4830148473549514  0.4434891928526027  0.24020462460176625  1.0000
  C   C51       1.0  0.9830149162428371  0.05651090331595299  0.7402015339198229  1.0000
  C   C52       1.0  0.5169796669201077  0.5565082459108766  0.7597977896916248  1.0000
  C   C53       1.0  0.1324503121325478  0.9846304327004276  0.31702034918072297  1.0000
  C   C54       1.0  0.3675452579547738  0.4846255177780136  0.1829859125916329  1.0000
  C   C55       1.0  0.8675554491439286  0.015371136423503597  0.682979316714196  1.0000
  C   C56       1.0  0.6324425081194391  0.5153691674118406  0.8170215895303912  1.0000
  C   C57       1.0  0.1349696404489151  0.08026116431050667  0.3235257533142999  1.0000
  C   C58       1.0  0.36502255553798335  0.5802550649383846  0.1764782380670127  1.0000
  C   C59       1.0  0.8650361208275612  0.9197410932068378  0.6764704737910778  1.0000
  C   C60       1.0  0.6349640858360885  0.4197396202514624  0.8235285072579971  1.0000
  C   C61       1.0  0.7553070009482425  0.4674728192127161  0.5757423767232694  1.0000
  C   C62       1.0  0.7447010786163943  0.9674694734142333  0.9242488345046456  1.0000
  C   C63       1.0  0.2447145061302081  0.5325294383046283  0.424248627108419  1.0000
  C   C64       1.0  0.2552911862583827  0.032523834988801084  0.0757396865523532  1.0000
  C   C65       1.0  0.4305442116659108  0.3017407292744493  0.4479149673478774  1.0000
  C   C66       1.0  0.0694468596208395  0.8017449558034571  0.05207657535195411  1.0000
  C   C67       1.0  0.5694829189132449  0.6982518907351789  0.5520756939214309  1.0000
  C   C68       1.0  0.9305397817532324  0.19825454814024815  0.9479191658465072  1.0000
  N   N1        1.0  0.030876392977326403  0.1337362526939643  0.277235083014034  1.0000
  N   N2        1.0  0.4691090548087189  0.6337335952888878  0.22277055740635632  1.0000
  N   N3        1.0  0.969131617699432  0.8662604976761086  0.722758531137913  1.0000
  N   N4        1.0  0.5308730877647889  0.3662631550811852  0.7772386627938561  1.0000
  N   N5        1.0  0.8435532234298293  0.24839781242546616  0.16967582933341424  1.0000
  N   N6        1.0  0.6564413597331153  0.7483992853808417  0.3303269330675818  1.0000
  N   N7        1.0  0.1564559119470701  0.751601691518246  0.8303219804050954  1.0000
  N   N8        1.0  0.3435554039422257  0.2516015953496904  0.6696776825777562  1.0000
  N   N9        1.0  0.9141573994959984  0.4320288193840866  0.18157654083714903  1.0000
  N   N10       1.0  0.5858394330672283  0.9320275387658297  0.3184215453366903  1.0000
  N   N11       1.0  0.0858517358808939  0.567973438133258  0.8184198933855384  1.0000
  N   N12       1.0  0.4141550812078377  0.06797265357128877  0.6815794934408858  1.0000
  N   N13       1.0  0.3348018627429923  0.2586596929693812  0.40771394130357663  1.0000
  N   N14       1.0  0.1651892085437581  0.7586632311049895  0.09228104018580303  1.0000
  N   N15       1.0  0.6652128961346051  0.7413418761545498  0.5922855891462859  1.0000
  N   N16       1.0  0.8348120539321471  0.24133902641236193  0.9077080331840508  1.0000
  N   N17       1.0  0.8460309378409718  0.5175410486163796  0.6109097656775262  1.0000
  N   N18       1.0  0.6539658947222549  0.0175423292346366  0.8890945103174988  1.0000
  N   N19       1.0  0.1539647011342353  0.4824674044416496  0.3890940931707903  1.0000
  N   N20       1.0  0.3460094996503997  0.9824523559552104  0.11091360789016143  1.0000
  Cl  Cl1       1.0  0.7983818916574066  0.3070503076359756  0.38242501992854033  1.0000
  Cl  Cl2       1.0  0.7016318114079425  0.8070435198704471  0.11756928752654262  1.0000
  Cl  Cl3       1.0  0.20164074012118496  0.6929636525693184  0.6175674284580739  1.0000
  Cl  Cl4       1.0  0.2983683263678287  0.19295323049963287  0.8824348474782016  1.0000
  Cl  Cl5       1.0  0.7246656703004319  0.229437392768844  0.6303999897326875  1.0000
  Cl  Cl6       1.0  0.7753502821651921  0.7294312933967289  0.8695910170110681  1.0000
  Cl  Cl7       1.0  0.2753322180750502  0.7705696835023588  0.3696019439201167  1.0000
  Cl  Cl8       1.0  0.2246599779118483  0.2705571962524402  0.130386229029277  1.0000
