data_image0
_chemical_formula_structural       Cd2H16C16S4Br4N4
_chemical_formula_sum              "Cd2 H16 C16 S4 Br4 N4"
_cell_length_a       7.1408523835681414
_cell_length_b       9.641084457155392
_cell_length_c       10.312986847460081
_cell_angle_alpha    112.48756363312145
_cell_angle_beta     105.59283194406505
_cell_angle_gamma    94.3070992567802

_space_group_name_H-M_alt    "P 1"
_space_group_IT_number       1

loop_
  _space_group_symop_operation_xyz
  'x, y, z'

loop_
  _atom_site_type_symbol
  _atom_site_label
  _atom_site_symmetry_multiplicity
  _atom_site_fract_x
  _atom_site_fract_y
  _atom_site_fract_z
  _atom_site_occupancy
  Cd  Cd1       1.0  0.25278295720203653  0.5885812423555663  0.4777607083450802  1.0000
  Cd  Cd2       1.0  0.7472097960178203  0.4114181878814591  0.5222413497732958  1.0000
  H   H1        1.0  0.1757446270132945  0.3798388729339663  0.0746873563957635  1.0000
  H   H2        1.0  0.8242505619944467  0.6201583301362207  0.9253162805303603  1.0000
  H   H3        1.0  0.4360960143636632  0.44043661687152286  0.1316923440242093  1.0000
  H   H4        1.0  0.563901139654483  0.559562899305341  0.8683114963508132  1.0000
  H   H5        1.0  0.2832086410888692  0.4377187410950257  0.9609678588664109  1.0000
  H   H6        1.0  0.7167876534123466  0.5622705031553464  0.03903410884012006  1.0000
  H   H7        1.0  0.2440840582546357  0.005710149185461002  0.2372930142734901  1.0000
  H   H8        1.0  0.7559249427946783  0.994290705274388  0.7627085590831016  1.0000
  H   H9        1.0  0.26026823641952024  0.16435484429556624  0.4974745205404076  1.0000
  H   H10       1.0  0.7397387014267096  0.8356436734005186  0.5025219748069459  1.0000
  H   H11       1.0  0.22291022337117275  0.7920082886878389  0.7989400419886793  1.0000
  H   H12       1.0  0.7770872462630152  0.2079992039154632  0.2010637868966541  1.0000
  H   H13       1.0  0.0761945768848733  0.9311522379833195  0.8508780675643949  1.0000
  H   H14       1.0  0.923805100252359  0.06885870837955112  0.14912544448082335  1.0000
  H   H15       1.0  0.3382842988428862  0.9840361543861815  0.9323763292821923  1.0000
  H   H16       1.0  0.6617170418965017  0.015975950236210703  0.0676249817647303  1.0000
  C   C1        1.0  0.29341997252747387  0.4606765891906194  0.07555508606093049  1.0000
  C   C2        1.0  0.7065731925542663  0.5393182865786342  0.9244454226800869  1.0000
  C   C3        1.0  0.2754942859624236  0.6211966596114353  0.15628131873250348  1.0000
  C   C4        1.0  0.7244985384339911  0.3787970518478404  0.8437148357371883  1.0000
  C   C5        1.0  0.2505662388741001  0.8903787303049739  0.2289999957375812  1.0000
  C   C6        1.0  0.7494366192206313  0.10962086102983899  0.7709980967123826  1.0000
  C   C7        1.0  0.2609763234974238  0.8386340039888509  0.3376732941309869  1.0000
  C   C8        1.0  0.7390198870189124  0.16136203818373224  0.6623213830783214  1.0000
  C   C9        1.0  0.2528325384772642  0.928181208014017  0.4854652815507877  1.0000
  C   C10       1.0  0.7471778836815588  0.07181966405246952  0.5145346110965221  1.0000
  C   C11       1.0  0.2512183535953199  0.0824430778301348  0.5456352733085055  1.0000
  C   C12       1.0  0.7487917867937952  0.9175566441206159  0.45436318980367935  1.0000
  C   C13       1.0  0.23122100856379293  0.9538872905943735  0.7063017125013432  1.0000
  C   C14       1.0  0.7687782351261845  0.046115650953545605  0.2936959615611485  1.0000
  C   C15       1.0  0.21703108206305188  0.9132963574287417  0.829093850652079  1.0000
  C   C16       1.0  0.7829700750992996  0.08671462073501604  0.17091090542006526  1.0000
  S   S1        1.0  0.2565062216537157  0.7456089998029753  0.07135445796239995  1.0000
  S   S2        1.0  0.7434910231795229  0.25438480232754307  0.9286444536760001  1.0000
  S   S3        1.0  0.23405569482176247  0.137853661240193  0.718907789022758  1.0000
  S   S4        1.0  0.7659481332435332  0.8621504927061922  0.28108822227115127  1.0000
  Br  Br1       1.0  0.3460054927397706  0.3085218120010752  0.3385769238142943  1.0000
  Br  Br2       1.0  0.6539931020264191  0.6914777265138313  0.6614262107635156  1.0000
  Br  Br3       1.0  0.15510961428899614  0.48705705542958827  0.6770031691673709  1.0000
  Br  Br4       1.0  0.844888397299236  0.5129401781224486  0.3229961314281198  1.0000
  N   N1        1.0  0.27535827843014715  0.6862803408446325  0.2946318700434603  1.0000
  N   N2        1.0  0.7246440357637028  0.3137169549901415  0.7053643382483301  1.0000
  N   N3        1.0  0.24125009258685984  0.8572954133614417  0.5777768484188286  1.0000
  N   N4        1.0  0.7587515868910018  0.14270530101963175  0.42222240445140363  1.0000
