data_image0
_chemical_formula_structural       Ba2H24C16O16
_chemical_formula_sum              "Ba2 H24 C16 O16"
_cell_length_a       6.95061004998335
_cell_length_b       7.576195250669976
_cell_length_c       12.17290441506052
_cell_angle_alpha    106.71200000095725
_cell_angle_beta     105.11317508289847
_cell_angle_gamma    94.57049283868515

_space_group_name_H-M_alt    "P 1"
_space_group_IT_number       1

loop_
  _space_group_symop_operation_xyz
  'x, y, z'

loop_
  _atom_site_type_symbol
  _atom_site_label
  _atom_site_symmetry_multiplicity
  _atom_site_fract_x
  _atom_site_fract_y
  _atom_site_fract_z
  _atom_site_occupancy
  Ba  Ba1       1.0  0.7909377616543907  0.04077850626273969  0.081778573858017  1.0000
  Ba  Ba2       1.0  0.20906288867865186  0.9592124911612744  0.9182217005422544  1.0000
  H   H1        1.0  0.08089481329797372  0.6739351650745891  0.07239080834471424  1.0000
  H   H2        1.0  0.5090422904766781  0.6021619669864791  0.9278454873395674  1.0000
  H   H3        1.0  0.9190994642004852  0.3260614838692532  0.9276078797027764  1.0000
  H   H4        1.0  0.4909505098890392  0.3978346976071093  0.07215051724592307  1.0000
  H   H5        1.0  0.921621485265149  0.6174966139288854  0.9425944313962303  1.0000
  H   H6        1.0  0.4790768866812698  0.6748164484935799  0.05757222741052465  1.0000
  H   H7        1.0  0.07837819984647608  0.38249718783879416  0.05740784396624579  1.0000
  H   H8        1.0  0.5209138843307244  0.3251774279611154  0.9424254370210933  1.0000
  H   H9        1.0  0.9930580305597446  0.47789493943432143  0.24431900615761754  1.0000
  H   H10       1.0  0.2491251789429754  0.23463865461322087  0.7556888241970796  1.0000
  H   H11       1.0  0.006932612225249058  0.5220905292161788  0.7556828818192258  1.0000
  H   H12       1.0  0.7508703179003008  0.7653565836477939  0.24431061545178784  1.0000
  H   H13       1.0  0.7634146681825128  0.4690001030092644  0.23830489763003726  1.0000
  H   H14       1.0  0.025589108299563183  0.23207656897794485  0.7617864939690764  1.0000
  H   H15       1.0  0.23657934053447596  0.530995146784754  0.7616943206656401  1.0000
  H   H16       1.0  0.9744066499961406  0.7679200656883935  0.23821405683748506  1.0000
  H   H17       1.0  0.842864613102378  0.7118080434153883  0.6239113276585115  1.0000
  H   H18       1.0  0.7193131508705689  0.0874949472253235  0.3763299869646701  1.0000
  H   H19       1.0  0.15712996112876  0.2882137960071205  0.3760943866238478  1.0000
  H   H20       1.0  0.2806880173689165  0.9125142622124115  0.6236629515028369  1.0000
  H   H21       1.0  0.7331388625824856  0.5997435725972908  0.40271745943550746  1.0000
  H   H22       1.0  0.8310607022969093  0.1975698833478603  0.5975306039230617  1.0000
  H   H23       1.0  0.2668740494596236  0.4002571244219908  0.5972888597291615  1.0000
  H   H24       1.0  0.16895225738388575  0.8024308315106267  0.4024650461033871  1.0000
  C   C1        1.0  0.6365653837511971  0.8867797206291071  0.7732523261292884  1.0000
  C   C2        1.0  0.3634308594703342  0.113235113700739  0.2267482750709604  1.0000
  C   C3        1.0  0.5689763905862932  0.8193029366030584  0.6382605765141847  1.0000
  C   C4        1.0  0.43105036287303017  0.18071584256021106  0.3617559922522203  1.0000
  C   C5        1.0  0.6957857462499958  0.7321569479672545  0.574782349470496  1.0000
  C   C6        1.0  0.6213929434646205  0.15717404687722342  0.42533419743619305  1.0000
  C   C7        1.0  0.3042316031854496  0.2678591254225893  0.42521999972320407  1.0000
  C   C8        1.0  0.3786085411640271  0.8428449393251042  0.5746720427025735  1.0000
  C   C9        1.0  0.6335974985213182  0.670048367192507  0.4499458349635431  1.0000
  C   C10       1.0  0.6841181921734147  0.2203792046414321  0.5501719508934428  1.0000
  C   C11       1.0  0.36639715399851974  0.3299580804718758  0.5500530235081769  1.0000
  C   C12       1.0  0.3158870507654824  0.7796201659877581  0.4498247640211517  1.0000
  C   C13       1.0  0.44275016941093526  0.6927924820490221  0.38584896057403034  1.0000
  C   C14       1.0  0.5572336385664514  0.307219648989701  0.6141492888912411  1.0000
  C   C15       1.0  0.3755525089993911  0.6253224674002953  0.2517362126684617  1.0000
  C   C16       1.0  0.6244571946538356  0.37467686725764093  0.7482619870086255  1.0000
  O   O1        1.0  0.8107901069247846  0.8640259706395598  0.8282116435824279  1.0000
  O   O2        1.0  0.4825456084219226  0.035619160199154  0.1717191768197495  1.0000
  O   O3        1.0  0.1892153095491906  0.13596640368548663  0.17178137830275378  1.0000
  O   O4        1.0  0.5174562049543212  0.964385826533636  0.8282837807748961  1.0000
  O   O5        1.0  0.5095187330809452  0.5940847523424607  0.19616403934526258  1.0000
  O   O6        1.0  0.8140707366256662  0.3992910041324222  0.8037973001062539  1.0000
  O   O7        1.0  0.49050181877925075  0.4059089003133707  0.8038339486353294  1.0000
  O   O8        1.0  0.1859315460526289  0.6006929744764659  0.19620606824130954  1.0000
  O   O9        1.0  0.0030287120285023457  0.7248306372644746  0.011396169769206169  1.0000
  O   O10       1.0  0.4917687696487859  0.7136873490098451  0.9888462954512178  1.0000
  O   O11       1.0  0.9969644793505662  0.27516041096332333  0.9886071013798414  1.0000
  O   O12       1.0  0.5082166010790629  0.2863093773655052  0.011146140259533885  1.0000
  O   O13       1.0  0.8782459423883822  0.4029982562855566  0.2528028470679047  1.0000
  O   O14       1.0  0.12578152171406026  0.151452778218399  0.7472804844529933  1.0000
  O   O15       1.0  0.12174009546330918  0.5969942556183341  0.747194683552351  1.0000
  O   O16       1.0  0.8742186972959798  0.8485438204766779  0.2527215511160533  1.0000
