data_image0
_chemical_formula_structural       Dy2CoH20C28O24
_chemical_formula_sum              "Dy2 Co1 H20 C28 O24"
_cell_length_a       9.181872201134906
_cell_length_b       10.078866660520765
_cell_length_c       11.588957403170784
_cell_angle_alpha    73.65245905817649
_cell_angle_beta     79.45871136538277
_cell_angle_gamma    83.16918194677157

_space_group_name_H-M_alt    "P 1"
_space_group_IT_number       1

loop_
  _space_group_symop_operation_xyz
  'x, y, z'

loop_
  _atom_site_type_symbol
  _atom_site_label
  _atom_site_symmetry_multiplicity
  _atom_site_fract_x
  _atom_site_fract_y
  _atom_site_fract_z
  _atom_site_occupancy
  Dy  Dy1       1.0  0.9084486014790014  0.9158166355898769  0.3610156536892645  1.0000
  Dy  Dy2       1.0  0.0915498429091244  0.0841842908154007  0.6389849122640995  1.0000
  Co  Co1       1.0  1.4875652699997704e-08  5.394791174002184e-07  0.9999995601033119  1.0000
  H   H1        1.0  0.7898743085535144  0.6572990832512244  0.49035407440337053  1.0000
  H   H2        1.0  0.21012539395535162  0.3426997706526008  0.5096450868360591  1.0000
  H   H3        1.0  0.7332156425852999  0.9950237920483218  0.5750055478325677  1.0000
  H   H4        1.0  0.26678390983892797  0.004977131182570801  0.42499485765098644  1.0000
  H   H5        1.0  0.2593758647319148  0.21606916471782964  0.9801117803695831  1.0000
  H   H6        1.0  0.7406260586876242  0.7839296730419818  0.01989137606975084  1.0000
  H   H7        1.0  0.5641827530281204  0.23338356300140353  0.9284481950408077  1.0000
  H   H8        1.0  0.4358201235044277  0.7666173507063192  0.07155172903332385  1.0000
  H   H9        1.0  0.8403376644046714  0.2935316509416879  0.1505691198546799  1.0000
  H   H10       1.0  0.1596583349135159  0.7064723936391458  0.849430180492888  1.0000
  H   H11       1.0  0.8497854095658893  0.5686014034308116  0.026623058786540862  1.0000
  H   H12       1.0  0.15021288183451986  0.43140159817866686  0.9733761617272447  1.0000
  H   H13       1.0  0.4978742110136379  0.8805611037653021  0.6186306434103771  1.0000
  H   H14       1.0  0.5021254914952279  0.1194377501385233  0.38136851782904546  1.0000
  H   H15       1.0  0.660788622736952  0.7710802200253467  0.6567173580468832  1.0000
  H   H16       1.0  0.339213144791799  0.22892069881581278  0.3432818632691549  1.0000
  H   H17       1.0  0.5260970471352308  0.6721208788831561  0.5351819388665504  1.0000
  H   H18       1.0  0.47390258226670307  0.32787900576609985  0.46481957095075177  1.0000
  H   H19       1.0  0.5350274989688373  0.8308188930455033  0.41698499986136284  1.0000
  H   H20       1.0  0.4649710214292995  0.1691809967371967  0.5830158071978387  1.0000
  C   C1        1.0  0.17504130312032368  0.0208378755105372  0.22327605684868956  1.0000
  C   C2        1.0  0.8249616494222349  0.979162001574615  0.7767241083312868  1.0000
  C   C3        1.0  0.31302405321316223  0.07494531562942089  0.15013625176579376  1.0000
  C   C4        1.0  0.6869757272410979  0.9250524977337379  0.8498648770352729  1.0000
  C   C5        1.0  0.34288686209819724  0.1666736155058999  0.036713139097621195  1.0000
  C   C6        1.0  0.6571149833759478  0.8333262627945855  0.9632880497800612  1.0000
  C   C7        1.0  0.49871997540220286  0.1743162867514911  0.010359828942753809  1.0000
  C   C8        1.0  0.5012828251203346  0.8256856635788167  0.9896398540255403  1.0000
  C   C9        1.0  0.5555289834036614  0.08704243485676239  0.10937235743096348  1.0000
  C   C10       1.0  0.44447160201436015  0.9129595198632713  0.8906285097048536  1.0000
  C   C11       1.0  0.7091522958457546  0.04197910821213209  0.12942023321755156  1.0000
  C   C12       1.0  0.2908495476930071  0.9580207740064564  0.8705792292043313  1.0000
  C   C13       1.0  0.9694860843865385  0.726681093455781  0.17196090710909573  1.0000
  C   C14       1.0  0.0305135450153955  0.273318791193482  0.8280406027081993  1.0000
  C   C15       1.0  0.9560350309794498  0.23967170994071546  0.3864882758853056  1.0000
  C   C16       1.0  0.043962303437183395  0.7603292235570436  0.6135107240820615  1.0000
  C   C17       1.0  0.9297675575030337  0.3618384408140614  0.28613026712615414  1.0000
  C   C18       1.0  0.07023103600203477  0.638160418223201  0.7138681913551749  1.0000
  C   C19       1.0  0.8749581990891923  0.3766156487473964  0.1795910045711295  1.0000
  C   C20       1.0  0.12504245943576103  0.6233852752272071  0.8204075139868151  1.0000
  C   C21       1.0  0.8814551323165173  0.518455476737884  0.1151072825029545  1.0000
  C   C22       1.0  0.11854545019842529  0.4815464838592902  0.8848909949491599  1.0000
  C   C23       1.0  0.9396416048552467  0.5820387075906055  0.18596497545495774  1.0000
  C   C24       1.0  0.06035809862131459  0.41796014435417567  0.8140350490123749  1.0000
  C   C25       1.0  0.6077225911417372  0.8401969714760398  0.581219026099859  1.0000
  C   C26       1.0  0.3922780683509116  0.1598039505395121  0.4187803556859889  1.0000
  C   C27       1.0  0.5910239383274528  0.7629644444671653  0.4903493579071069  1.0000
  C   C28       1.0  0.4089757661167965  0.23703440551856392  0.5096515297881297  1.0000
  O   O1        1.0  0.17267749451456638  0.9532714166388915  0.3358689025959264  1.0000
  O   O2        1.0  0.827319916879766  0.04672847827723809  0.6641312017051817  1.0000
  O   O3        1.0  0.0567250577876877  0.0425930694055552  0.1753313249641124  1.0000
  O   O4        1.0  0.9432778947548717  0.9574068076795964  0.8246688402158638  1.0000
  O   O5        1.0  0.4429485955412245  0.02704988866972261  0.19632374106104314  1.0000
  O   O6        1.0  0.5570544349467282  0.9729489478747482  0.8036783916805774  1.0000
  O   O7        1.0  0.73468069934367  0.9756667884139318  0.23527788225411678  1.0000
  O   O8        1.0  0.2653211441950987  0.024333093804649798  0.764721580167766  1.0000
  O   O9        1.0  0.8032262455152973  0.0742355926568123  0.031775938339876596  1.0000
  O   O10       1.0  0.19677670702726147  0.925764284428332  0.9682242268400998  1.0000
  O   O11       1.0  0.9479743747032995  0.8108079746333061  0.06988470481530848  1.0000
  O   O12       1.0  0.052026361767047995  0.18919190880061615  0.9301157813042806  1.0000
  O   O13       1.0  0.01022105282546452  0.755389934999769  0.26033211271383294  1.0000
  O   O14       1.0  0.9897774685403674  0.24460995282387896  0.7396695575732793  1.0000
  O   O15       1.0  0.9033551513874369  0.1285008825141674  0.38666195264990216  1.0000
  O   O16       1.0  0.09663886279165011  0.8715000526705549  0.6133409816385011  1.0000
  O   O17       1.0  0.029566782419557593  0.25051569750041847  0.46605482684916666  1.0000
  O   O18       1.0  0.9704316590654898  0.749485234782  0.5339431494204944  1.0000
  O   O19       1.0  0.9694390215376598  0.4868320887871462  0.2907404481754056  1.0000
  O   O20       1.0  0.030559573902792174  0.5131667663320202  0.7092597367617371  1.0000
  O   O21       1.0  0.699742357251331  0.952258330079438  0.51659124128453  1.0000
  O   O22       1.0  0.3002582271990022  0.04774362659964739  0.4834087626233838  1.0000
  O   O23       1.0  0.734900616054709  0.7220055728251465  0.4302040150290907  1.0000
  O   O24       1.0  0.2650979784180477  0.2779932842530712  0.5697953066801418  1.0000
