data_image0
_chemical_formula_structural       Al2H18C30O12
_chemical_formula_sum              "Al2 H18 C30 O12"
_cell_length_a       6.707752978518991
_cell_length_b       15.313223651838113
_cell_length_c       17.651572132241228
_cell_angle_alpha    85.39519277191556
_cell_angle_beta     80.92058670640614
_cell_angle_gamma    77.54387815690066

_space_group_name_H-M_alt    "P 1"
_space_group_IT_number       1

loop_
  _space_group_symop_operation_xyz
  'x, y, z'

loop_
  _atom_site_type_symbol
  _atom_site_label
  _atom_site_symmetry_multiplicity
  _atom_site_fract_x
  _atom_site_fract_y
  _atom_site_fract_z
  _atom_site_occupancy
  Al  Al1       1.0  0.49998673088023093  0.5000025206850225  0.5000112927866738  1.0000
  Al  Al2       1.0  0.9999797776925878  0.5000041172033819  0.4999972719408421  1.0000
  H   H1        1.0  0.2645310624237852  0.4093111607047248  0.5698017992619242  1.0000
  H   H2        1.0  0.7354470538536759  0.590646176116202  0.43014916254055197  1.0000
  H   H3        1.0  0.6734317831016767  0.49915513519813726  0.2780243622604885  1.0000
  H   H4        1.0  0.7656970786203914  0.4989394814429815  0.1354016866526351  1.0000
  H   H5        1.0  0.04754062460083473  0.4887129855490784  0.2583681058794554  1.0000
  H   H6        1.0  0.9524189897988294  0.5115022325668478  0.741612516086093  1.0000
  H   H7        1.0  0.3267729029380179  0.5006090493520077  0.7219998939166885  1.0000
  H   H8        1.0  0.2345144607704911  0.5008547737056546  0.8646259437246258  1.0000
  H   H9        1.0  0.7988661725149342  0.7694533433030203  0.5022437863483304  1.0000
  H   H10       1.0  0.7137217850427505  0.9341691549985287  0.49621327074607535  1.0000
  H   H11       1.0  0.2010920053701071  0.2305555168428626  0.497748979123628  1.0000
  H   H12       1.0  0.28625675486290453  0.06583551568534318  0.5037495023923741  1.0000
  H   H13       1.0  0.5727763267032773  0.22769151294963308  0.4797678504777281  1.0000
  H   H14       1.0  0.6531159767639709  0.0628789007738533  0.48548060697316237  1.0000
  H   H15       1.0  0.42715193118226596  0.7723089826157405  0.5202444083201385  1.0000
  H   H16       1.0  0.3468379541980371  0.9371232338389673  0.5145139843319768  1.0000
  H   H17       1.0  0.17122853895963175  0.4879871720064912  0.05360219297332243  1.0000
  H   H18       1.0  0.8287542873785018  0.5123266136510196  0.9463685988640193  1.0000
  C   C1        1.0  0.8279111894301681  0.33922950441724004  0.49175569856728163  1.0000
  C   C2        1.0  0.6955863935703875  0.5007066680000777  0.6386275890511329  1.0000
  C   C3        1.0  0.17204126069808018  0.660771013159419  0.5082560893147345  1.0000
  C   C4        1.0  0.30444000487924683  0.49928732755770977  0.36137629810071564  1.0000
  C   C5        1.0  0.3554258604997003  0.49534191935922695  0.27610745485799276  1.0000
  C   C6        1.0  0.5580894458704223  0.4973104034188154  0.2414867518775523  1.0000
  C   C7        1.0  0.6089033386080732  0.49727290812289476  0.16233806017435637  1.0000
  C   C8        1.0  0.45716337393748324  0.4954330166963602  0.11602468857010713  1.0000
  C   C9        1.0  0.25382971921930425  0.4912970428764396  0.15154080646939153  1.0000
  C   C10       1.0  0.20369222425954814  0.4912867046672389  0.23114852886970993  1.0000
  C   C11       1.0  0.4957651067068056  0.49831365966009145  0.035071256012308524  1.0000
  C   C12       1.0  0.5043894207690159  0.5017170525074662  0.9649434301390588  1.0000
  C   C13       1.0  0.5429479296334279  0.5045924371942831  0.8839824164442195  1.0000
  C   C14       1.0  0.7462005128434727  0.5088704472887571  0.8484550539573449  1.0000
  C   C15       1.0  0.7963215873955465  0.5088453662879714  0.7688432182382314  1.0000
  C   C16       1.0  0.6446512898019636  0.5046413398617062  0.7238999592062642  1.0000
  C   C17       1.0  0.4420613482633159  0.5025401507599766  0.7585340950833981  1.0000
  C   C18       1.0  0.39126622275379946  0.5025950885773154  0.8376810437132249  1.0000
  C   C19       1.0  0.11911427031191131  0.7602933376737295  0.510117456651237  1.0000
  C   C20       1.0  0.8808440626241636  0.2397066661108269  0.489884906410012  1.0000
  C   C21       1.0  0.9178135989219741  0.807275264267531  0.5044762929047267  1.0000
  C   C22       1.0  0.8717352980345657  0.900266124110864  0.5010251933422438  1.0000
  C   C23       1.0  0.08215170811376278  0.19273430522745374  0.49551425689455914  1.0000
  C   C24       1.0  0.12822361794513176  0.0997429751977492  0.4989527756100003  1.0000
  C   C25       1.0  0.728597039568655  0.19116376472514673  0.4854640653850525  1.0000
  C   C26       1.0  0.7756712121821466  0.0981818561508803  0.48893646673604263  1.0000
  C   C27       1.0  0.2713460803505969  0.8088428864082359  0.5145405992259668  1.0000
  C   C28       1.0  0.2242613745310183  0.9018236295758015  0.5110570672769087  1.0000
  C   C29       1.0  0.024078583576567787  0.9503741415456163  0.502987134234779  1.0000
  C   C30       1.0  0.9758864477334372  0.04963219637954811  0.4969962648857021  1.0000
  O   O1        1.0  0.6420957495221346  0.3776581648342514  0.48607537994530503  1.0000
  O   O2        1.0  0.8768203858843224  0.5068729832144214  0.6072621875700009  1.0000
  O   O3        1.0  0.028025335845256807  0.6218585363035346  0.4989686191464743  1.0000
  O   O4        1.0  0.4489542718673718  0.5103320516824894  0.3963536662188433  1.0000
  O   O5        1.0  0.3578543949517513  0.622342129270031  0.5139501740498602  1.0000
  O   O6        1.0  0.12318651374721408  0.4931291847575282  0.3927322921336867  1.0000
  O   O7        1.0  0.9719423180453147  0.37814357542080057  0.5010278976020501  1.0000
  O   O8        1.0  0.5510556263415298  0.48966245827709537  0.6036592158761636  1.0000
  O   O9        1.0  0.25620136283455963  0.4591906928548753  0.5323685768148039  1.0000
  O   O10       1.0  0.7437718344574479  0.540816035853048  0.46763239029088066  1.0000
  O   O11       1.0  0.10580942289470839  0.48789976747926295  0.10746803563868923  1.0000
  O   O12       1.0  0.894147866800843  0.5124420796637565  0.8925049993233785  1.0000
