data_image0
_chemical_formula_structural       Cu3H22C48N6Cl6O12
_chemical_formula_sum              "Cu3 H22 C48 N6 Cl6 O12"
_cell_length_a       9.144124467413874
_cell_length_b       10.303922577004151
_cell_length_c       13.088982550051188
_cell_angle_alpha    91.63130790006176
_cell_angle_beta     96.60631579184586
_cell_angle_gamma    111.32693813385283

_space_group_name_H-M_alt    "P 1"
_space_group_IT_number       1

loop_
  _space_group_symop_operation_xyz
  'x, y, z'

loop_
  _atom_site_type_symbol
  _atom_site_label
  _atom_site_symmetry_multiplicity
  _atom_site_fract_x
  _atom_site_fract_y
  _atom_site_fract_z
  _atom_site_occupancy
  Cu  Cu1       1.0  0.999990645542738  0.9999931189774853  1.0971642651691348e-06  1.0000
  Cu  Cu2       1.0  0.7181159124546284  0.7409198969950737  0.7905033422135334  1.0000
  Cu  Cu3       1.0  0.281911109936189  0.25911124917317346  0.20949389074576175  1.0000
  H   H1        1.0  0.5511013727525766  0.8826735448145088  0.9259067854748578  1.0000
  H   H2        1.0  0.4488877861483258  0.11733576814159358  0.0740945583965242  1.0000
  H   H3        1.0  0.3365514036024848  0.9802853351234758  0.8880890708156103  1.0000
  H   H4        1.0  0.6634300610361167  0.019723994775503694  0.11190935498061093  1.0000
  H   H5        1.0  0.235250442255115  0.9904066249429846  0.7034295547343632  1.0000
  H   H6        1.0  0.7647347557816532  0.0095985043955125  0.29656756108495597  1.0000
  H   H7        1.0  0.33842502227535937  0.8913354637136878  0.5637987551743607  1.0000
  H   H8        1.0  0.6615691964088483  0.10867277674670821  0.4361991586721459  1.0000
  H   H9        1.0  0.4267409924721052  0.769272025993942  0.45300614390919963  1.0000
  H   H10       1.0  0.5732543273454952  0.23073095183008963  0.5469818198957057  1.0000
  H   H11       1.0  0.5791685690933689  0.6698402626060228  0.3515493847780462  1.0000
  H   H12       1.0  0.42082806193099026  0.3301553790732895  0.648435479712461  1.0000
  H   H13       1.0  0.8093266640539127  0.6204166291622712  0.4399382401238583  1.0000
  H   H14       1.0  0.19067546297753069  0.37957900010437123  0.5600485995648726  1.0000
  H   H15       1.0  0.024041824293419646  0.6079765742320473  0.5427713335098759  1.0000
  H   H16       1.0  0.9759664487326133  0.3920180183248547  0.4572259173862889  1.0000
  H   H17       1.0  0.2021412731138952  0.538746339843854  0.6730653099200766  1.0000
  H   H18       1.0  0.7978784449651997  0.4612544928961524  0.326932236376102  1.0000
  H   H19       1.0  0.1707556759310478  0.5548993363582183  0.8596533585647138  1.0000
  H   H20       1.0  0.8292677783379145  0.4451025420593097  0.14034833331119498  1.0000
  H   H21       1.0  0.9712068793016042  0.6499798676610452  0.9112296520046286  1.0000
  H   H22       1.0  0.028806453347122826  0.3500189073355457  0.08877268037618082  1.0000
  C   C1        1.0  0.8496449781718379  0.14280231540655555  0.8872541395208274  1.0000
  C   C2        1.0  0.15035273816513947  0.8571986191684713  0.11275384169972819  1.0000
  C   C3        1.0  0.913400272692229  0.073306906438404  0.8103696277125536  1.0000
  C   C4        1.0  0.08660318836136573  0.9267075917813796  0.1896322225863543  1.0000
  C   C5        1.0  0.9040654343604614  0.10359900371030759  0.7075486376152541  1.0000
  C   C6        1.0  0.0959389015155168  0.8964123532171085  0.2924532196556768  1.0000
  C   C7        1.0  0.8302149582437436  0.19681254502339127  0.6708083697070961  1.0000
  C   C8        1.0  0.16977860101857092  0.8031914930651851  0.32918252846753404  1.0000
  C   C9        1.0  0.7572929030529494  0.26391185829109526  0.7494806804266929  1.0000
  C   C10       1.0  0.24270436984009788  0.7360827830089746  0.25052102394344183  1.0000
  C   C11       1.0  0.7754088143229794  0.23279440339961613  0.8550922861073502  1.0000
  C   C12       1.0  0.2245884722722948  0.7672107064586483  0.1449119255056459  1.0000
  C   C13       1.0  0.49888202646330626  0.4809260855921094  0.10847253641179581  1.0000
  C   C14       1.0  0.5011066050786184  0.5190456545265931  0.8915593201972954  1.0000
  C   C15       1.0  0.6260864216350797  0.6227247420893177  0.9726938664611992  1.0000
  C   C16       1.0  0.37391037902910534  0.3772636907353331  0.027331356599070492  1.0000
  C   C17       1.0  0.6184432789610811  0.5985496264221126  0.0760263787380708  1.0000
  C   C18       1.0  0.38155549692081087  0.4014304046481597  0.9239896652408461  1.0000
  C   C19       1.0  0.5013000104371059  0.8882014015491038  0.8471059999172967  1.0000
  C   C20       1.0  0.49869090532870786  0.11180686201419825  0.152896229525453  1.0000
  C   C21       1.0  0.3837639492909943  0.9435171383928916  0.8254397382510278  1.0000
  C   C22       1.0  0.6162269751711164  0.056496354013631796  0.17456183484261353  1.0000
  C   C23       1.0  0.326983795575437  0.9476972751274246  0.7226639442776913  1.0000
  C   C24       1.0  0.673012179973682  0.052309915940163904  0.2773348551401824  1.0000
  C   C25       1.0  0.385837527358767  0.8940897014620858  0.6445371789982772  1.0000
  C   C26       1.0  0.6141586736026949  0.1059206253712475  0.3554609389037111  1.0000
  C   C27       1.0  0.5024918779696035  0.8391910276909369  0.6716868564184607  1.0000
  C   C28       1.0  0.49750629878703007  0.160816150149067  0.3283098299234696  1.0000
  C   C29       1.0  0.5746069754220146  0.7781198493809497  0.5976851991293515  1.0000
  C   C30       1.0  0.4253909897851074  0.2218894063161087  0.4023061644618124  1.0000
  C   C31       1.0  0.529592621618015  0.7515200868948496  0.49113809702925704  1.0000
  C   C32       1.0  0.47040159722678965  0.24848289863015086  0.5088513053077293  1.0000
  C   C33       1.0  0.614531240201259  0.6934617591917699  0.4344893645100001  1.0000
  C   C34       1.0  0.3854638527278524  0.30653808721521597  0.5655008087872346  1.0000
  C   C35       1.0  0.7409717855121796  0.6632169355195927  0.4837209170369192  1.0000
  C   C36       1.0  0.2590246200998436  0.3367755703939749  0.5162646289694806  1.0000
  C   C37       1.0  0.7768751081684184  0.6873198312531484  0.5908962442081815  1.0000
  C   C38       1.0  0.22312679418875794  0.312672660073403  0.4090905130082163  1.0000
  C   C39       1.0  0.8961922234914113  0.6531537793516264  0.6586777701766665  1.0000
  C   C40       1.0  0.10381363677759477  0.34684290428992154  0.34131627104467555  1.0000
  C   C41       1.0  0.010739380466638686  0.6093673374135092  0.6243560309658704  1.0000
  C   C42       1.0  0.9892673451903704  0.39062097826679576  0.3756394375648284  1.0000
  C   C43       1.0  0.11086774102178504  0.5731308906495653  0.6968360351851715  1.0000
  C   C44       1.0  0.8891392056191092  0.4268605738425603  0.3031633357589598  1.0000
  C   C45       1.0  0.09566089006366953  0.5832669314380111  0.8010651845720247  1.0000
  C   C46       1.0  0.90435463362013  0.41672660583645876  0.19893721905838643  1.0000
  C   C47       1.0  0.9833713547125099  0.6339555984764897  0.8305418815517029  1.0000
  C   C48       1.0  0.0166417540000339  0.366040036405657  0.16945960436854793  1.0000
  N   N1        1.0  0.5596523716552608  0.8386234218088473  0.7723900918629881  1.0000
  N   N2        1.0  0.4403400799915714  0.16138064354981907  0.2276091207377036  1.0000
  N   N3        1.0  0.6934397905274707  0.743489846351245  0.6430179791821685  1.0000
  N   N4        1.0  0.3065612471797792  0.2565110107622033  0.3569665867366538  1.0000
  N   N5        1.0  0.8865296607305241  0.6675179559990808  0.7610702497997082  1.0000
  N   N6        1.0  0.11348367634666093  0.3324808059514268  0.23892749865178334  1.0000
  Cl  Cl1       1.0  0.6977019505900512  0.3081551122378912  0.9433202182463561  1.0000
  Cl  Cl2       1.0  0.30230169444799765  0.6918416259438372  0.05669045182710159  1.0000
  Cl  Cl3       1.0  0.9896325908714657  0.033937741640045295  0.6206746557340281  1.0000
  Cl  Cl4       1.0  0.01038805995181484  0.9660965604075852  0.3793213590432387  1.0000
  Cl  Cl5       1.0  0.7508610866706747  0.7153332649623038  0.1703372556338891  1.0000
  Cl  Cl6       1.0  0.24913769200291108  0.28465201234596543  0.8296842439016672  1.0000
  O   O1        1.0  0.8675686617674714  0.10998373564168418  0.9815729854997031  1.0000
  O   O2        1.0  0.13243742875919637  0.8900265784159695  0.018432049307250474  1.0000
  O   O3        1.0  0.9752133025524757  0.9871099324953151  0.848003958420108  1.0000
  O   O4        1.0  0.024818109706096405  0.012921224181653196  0.1520020361870351  1.0000
  O   O5        1.0  0.6887703482968205  0.3414656020636001  0.7166746623959028  1.0000
  O   O6        1.0  0.3112088775573626  0.6585175794520453  0.2833230463160916  1.0000
  O   O7        1.0  0.8201499052819441  0.22855044274989209  0.5796650969777986  1.0000
  O   O8        1.0  0.17983835418382205  0.7714463206201925  0.4203366809924703  1.0000
  O   O9        1.0  0.7312548456323427  0.7291226899089478  0.9404171429161536  1.0000
  O   O10       1.0  0.2687468082715583  0.2708719879920096  0.0596024909604509  1.0000
  O   O11       1.0  0.49098097169522953  0.456599122651923  0.2013423977300306  1.0000
  O   O12       1.0  0.5089786227516412  0.5433454133528244  0.798654450319482  1.0000
