data_image0
_chemical_formula_structural       Al2H16C26N2O14
_chemical_formula_sum              "Al2 H16 C26 N2 O14"
_cell_length_a       6.809181684862795
_cell_length_b       11.201218162183624
_cell_length_c       17.85125253017714
_cell_angle_alpha    78.25123763820115
_cell_angle_beta     76.23822811320449
_cell_angle_gamma    71.06944607517909

_space_group_name_H-M_alt    "P 1"
_space_group_IT_number       1

loop_
  _space_group_symop_operation_xyz
  'x, y, z'

loop_
  _atom_site_type_symbol
  _atom_site_label
  _atom_site_symmetry_multiplicity
  _atom_site_fract_x
  _atom_site_fract_y
  _atom_site_fract_z
  _atom_site_occupancy
  Al  Al1       1.0  0.5024691286620425  0.5008678733548705  0.5005279232010836  1.0000
  Al  Al2       1.0  0.002847548753145185  0.5006835007914036  0.49985255318268434  1.0000
  H   H1        1.0  0.2207668155613191  0.6444437956900515  0.4327119607834506  1.0000
  H   H2        1.0  0.7861856060006571  0.3563153801656398  0.5670798563531251  1.0000
  H   H3        1.0  0.7764317358245945  0.11487923679599277  0.4714906692813374  1.0000
  H   H4        1.0  0.23103557045990208  0.8868325546250587  0.5278190091699246  1.0000
  H   H5        1.0  0.5493536389975235  0.5825680853077058  0.27174319186038803  1.0000
  H   H6        1.0  0.6098406812662559  0.5823606542531226  0.1279489445245972  1.0000
  H   H7        1.0  0.21590123420349994  0.4191561831140261  0.2674898464023557  1.0000
  H   H8        1.0  0.7842090879128774  0.5802503884430055  0.7306860816870685  1.0000
  H   H9        1.0  0.4484835157753934  0.41710812629332855  0.731483392887313  1.0000
  H   H10       1.0  0.37876664007143296  0.41542705392165397  0.875754246630628  1.0000
  H   H11       1.0  0.4579762276972303  0.3621584374062509  0.15034403134335153  1.0000
  H   H12       1.0  0.3475058995034103  0.3135168433770375  0.08463153825332634  1.0000
  H   H13       1.0  0.38819047603254825  0.4650991898759643  0.06451658452604653  1.0000
  H   H14       1.0  0.5996768800636971  0.5316682762788858  0.9325040202214939  1.0000
  H   H15       1.0  0.6398443899851712  0.6832225365790237  0.9147708262038922  1.0000
  H   H16       1.0  0.5355582501176172  0.6361076376190838  0.8465253768580328  1.0000
  C   C1        1.0  0.8410780479326265  0.5068739521679008  0.3626527865480187  1.0000
  C   C2        1.0  0.6225977989169921  0.7247481862309327  0.5047052058868717  1.0000
  C   C3        1.0  0.16234595077121136  0.49452037051403874  0.637736605352231  1.0000
  C   C4        1.0  0.3838967096306476  0.2768306422329233  0.4953030659281837  1.0000
  C   C5        1.0  0.561452908683151  0.8660880267635496  0.5049700565888601  1.0000
  C   C6        1.0  0.4458806288887445  0.13560981564351945  0.49446630131359387  1.0000
  C   C7        1.0  0.7114412318011676  0.9326826367667708  0.4901891073986422  1.0000
  C   C8        1.0  0.2960220853675467  0.06899106839031079  0.5090316105567966  1.0000
  C   C9        1.0  0.6579104142227551  0.06423844064440937  0.48404302529161936  1.0000
  C   C10       1.0  0.34951198686633944  0.9374861289779304  0.5152366423222503  1.0000
  C   C11       1.0  0.8797678446951595  0.502236614744163  0.2775448089912019  1.0000
  C   C12       1.0  0.7077780078009966  0.5468118062954234  0.2386243056150762  1.0000
  C   C13       1.0  0.7416717556279198  0.5458601442879499  0.15906238404647152  1.0000
  C   C14       1.0  0.9476049662348132  0.4977320740274962  0.11695368047499956  1.0000
  C   C15       1.0  0.12245021081323418  0.4493352662181778  0.15623064635863676  1.0000
  C   C16       1.0  0.08462781901181425  0.4542030074094612  0.23602385350425698  1.0000
  C   C17       1.0  0.978856153957224  0.4982699214049264  0.03580022450191937  1.0000
  C   C18       1.0  0.006883942255015555  0.49927377226702413  0.9654758877292197  1.0000
  C   C19       1.0  0.04181827392235967  0.5001773423242851  0.8841526610001511  1.0000
  C   C20       1.0  0.8700212974078314  0.5488566917950237  0.8433672738528631  1.0000
  C   C21       1.0  0.9129338269366233  0.5450697796627324  0.7633640930867217  1.0000
  C   C22       1.0  0.11965272652020796  0.49785904985136403  0.7230875766296523  1.0000
  C   C23       1.0  0.28857171928625286  0.45252264859443164  0.7635300272343387  1.0000
  C   C24       1.0  0.24958164970012592  0.45236799214475093  0.8433579954336498  1.0000
  C   C25       1.0  0.34094173828520985  0.3945628391010771  0.11211832570992196  1.0000
  C   C26       1.0  0.6494089961916815  0.602887110466888  0.8860226648142561  1.0000
  N   N1        1.0  0.9358646104181078  0.8626476376929162  0.4881493169220335  1.0000
  N   N2        1.0  0.07153334118981294  0.1388408371957297  0.5110042963773368  1.0000
  O   O1        1.0  0.6478161725310512  0.5334936875913244  0.39740257755626374  1.0000
  O   O2        1.0  0.8201036921233184  0.6707136469524925  0.48847961531325274  1.0000
  O   O3        1.0  0.004862659077083642  0.5146279812782525  0.605077026200519  1.0000
  O   O4        1.0  0.5300745148969526  0.3288382551593259  0.4833590513239941  1.0000
  O   O5        1.0  0.3562704002234438  0.4689487588258532  0.6037063529951965  1.0000
  O   O6        1.0  0.18617996695041225  0.33061603374033416  0.511042295834777  1.0000
  O   O7        1.0  0.000109798356383807  0.4867144939785463  0.3945062874274968  1.0000
  O   O8        1.0  0.4760110354048096  0.6728188461010376  0.5176194629025945  1.0000
  O   O9        1.0  0.24265779248013086  0.5617013873015608  0.4647880962374772  1.0000
  O   O10       1.0  0.7630609152649159  0.4395950983361134  0.5355946623812217  1.0000
  O   O11       1.0  0.9858737001343628  0.8198022797036587  0.5527142290896948  1.0000
  O   O12       1.0  0.05814430866244192  0.8578332422547064  0.4245016059298053  1.0000
  O   O13       1.0  0.9490365697208886  0.1433389485191725  0.5746026253746879  1.0000
  O   O14       1.0  0.021563589363466945  0.18172602974126306  0.4464349195708054  1.0000
