data_image0
_chemical_formula_structural       Li2H14C28N8O4
_chemical_formula_sum              "Li2 H14 C28 N8 O4"
_cell_length_a       8.60057146008785
_cell_length_b       9.452832743562904
_cell_length_c       9.580059854770163
_cell_angle_alpha    64.87691485071899
_cell_angle_beta     78.11596373000145
_cell_angle_gamma    67.41158514948177

_space_group_name_H-M_alt    "P 1"
_space_group_IT_number       1

loop_
  _space_group_symop_operation_xyz
  'x, y, z'

loop_
  _atom_site_type_symbol
  _atom_site_label
  _atom_site_symmetry_multiplicity
  _atom_site_fract_x
  _atom_site_fract_y
  _atom_site_fract_z
  _atom_site_occupancy
  Li  Li1       1.0  0.620989333558242  0.28065268522705367  0.28784022275375076  1.0000
  Li  Li2       1.0  0.3790094862526415  0.7193492333754178  0.7121602836958377  1.0000
  H   H1        1.0  0.04995635236091539  0.1566203874480365  0.18678931969265733  1.0000
  H   H2        1.0  0.9500444875425414  0.843375334764346  0.8132123530642518  1.0000
  H   H3        1.0  0.04603373669301888  0.9254604010467206  0.12992483537205152  1.0000
  H   H4        1.0  0.9539669228655541  0.07454275001172309  0.870067478323826  1.0000
  H   H5        1.0  0.31495303810296343  0.7016207366075025  0.1152580168968811  1.0000
  H   H6        1.0  0.6850457138583153  0.2983774929139003  0.8847388380615445  1.0000
  H   H7        1.0  0.5862917263531244  0.7045293351088874  0.16415235149412424  1.0000
  H   H8        1.0  0.41370754350241873  0.29546393691017403  0.8358506659095329  1.0000
  H   H9        1.0  0.5921353899606528  0.9371907738535299  0.2170274490980831  1.0000
  H   H10       1.0  0.40786473533853496  0.0628000120069032  0.7829785341350121  1.0000
  H   H11       1.0  0.3882409881947806  0.4364279530445998  0.451058795725132  1.0000
  H   H12       1.0  0.6117618778225165  0.5635726716983455  0.5489445840354892  1.0000
  H   H13       1.0  0.5576703311693125  0.3335798766067484  0.5354490039513495  1.0000
  H   H14       1.0  0.44233014886193434  0.6664207777660066  0.46455483738200354  1.0000
  C   C1        1.0  0.32892110869247654  0.20094434807121084  0.2305641858885395  1.0000
  C   C2        1.0  0.6710733162011947  0.7990600947991098  0.7694361298461349  1.0000
  C   C3        1.0  0.32163628716716625  0.06256057097414917  0.2038518237006245  1.0000
  C   C4        1.0  0.6783621358360674  0.9374388857878344  0.7961487552316344  1.0000
  C   C5        1.0  0.1673913308911139  0.0584757336423891  0.18026205477851687  1.0000
  C   C6        1.0  0.8326091010432819  0.9415212284815624  0.8197391764413884  1.0000
  C   C7        1.0  0.16519841419082573  0.9294605835685914  0.14743723346342127  1.0000
  C   C8        1.0  0.8348015110107169  0.0705376343056514  0.8525583493309273  1.0000
  C   C9        1.0  0.3160380646016704  0.8030519703897951  0.14077258939869353  1.0000
  C   C10       1.0  0.6839586981812074  0.19694875060190503  0.8592246546497936  1.0000
  C   C11       1.0  0.46945486461438424  0.8044772049228115  0.16746645403377164  1.0000
  C   C12       1.0  0.5305444138324944  0.19551976568054386  0.8325370907279254  1.0000
  C   C13       1.0  0.473137990554683  0.9344529324517126  0.19764898404940123  1.0000
  C   C14       1.0  0.526862869101535  0.0655427865929212  0.8023537300852159  1.0000
  C   C15       1.0  0.167507746264512  0.31862846849933385  0.27458476849840713  1.0000
  C   C16       1.0  0.8324909945353479  0.6813734627741252  0.7254115724403366  1.0000
  C   C17       1.0  0.08893402273356088  0.2537964469111671  0.4200014525130771  1.0000
  C   C18       1.0  0.911061408786992  0.7462043110696611  0.5799887326778121  1.0000
  C   C19       1.0  0.9395466894932342  0.3475882457040171  0.477675405044785  1.0000
  C   C20       1.0  0.06045447936826778  0.652406249267777  0.522322543738291  1.0000
  C   C21       1.0  0.1573784582163569  0.0860433134090428  0.5186596926905338  1.0000
  C   C22       1.0  0.8426182959751782  0.9139537089983563  0.48133702399992734  1.0000
  C   C23       1.0  0.11656123506163135  0.48322698952976145  0.16746875909522882  1.0000
  C   C24       1.0  0.8834411525669098  0.5167785863800418  0.8325305409755759  1.0000
  C   C25       1.0  0.9810198791684712  0.6153423258846542  0.19329924146440916  1.0000
  C   C26       1.0  0.01898016197952763  0.38466327331946804  0.8067026029345502  1.0000
  C   C27       1.0  0.20207701553275825  0.5324371192707461  0.021997554667812783  1.0000
  C   C28       1.0  0.7979298151098461  0.4675696246200118  0.9780045462313612  1.0000
  N   N1        1.0  0.2125329977278982  0.9469608320616911  0.6004271851042164  1.0000
  N   N2        1.0  0.7874612691437263  0.05304363615059771  0.3995647996087828  1.0000
  N   N3        1.0  0.8150754200236393  0.42150503056809907  0.5279809804773806  1.0000
  N   N4        1.0  0.18492591545125242  0.5784931376460347  0.4720258266854035  1.0000
  N   N5        1.0  0.8735631412954061  0.7309189198311756  0.20812106045007542  1.0000
  N   N6        1.0  0.12644020054056423  0.26908415408126984  0.7918864123387126  1.0000
  N   N7        1.0  0.26632812968941977  0.583676137414045  0.8996746474718269  1.0000
  N   N8        1.0  0.7336815258224761  0.4163256320155356  0.10032898878900921  1.0000
  O   O1        1.0  0.46177562916866316  0.2283356349714794  0.21820134209475844  1.0000
  O   O2        1.0  0.5382223858655024  0.7716650617020733  0.7817987953004962  1.0000
  O   O3        1.0  0.5059516437821755  0.36485759184402866  0.4407250024011235  1.0000
  O   O4        1.0  0.49405161904277156  0.6351454947394045  0.5592783048768272  1.0000
