data_image0
_chemical_formula_structural       Cd3H54C90N6Cl12O6
_chemical_formula_sum              "Cd3 H54 C90 N6 Cl12 O6"
_cell_length_a       10.100544517033287
_cell_length_b       18.9244786808066
_cell_length_c       21.013917660420102
_cell_angle_alpha    66.89713029417508
_cell_angle_beta     86.14467428666869
_cell_angle_gamma    84.76708197481372

_space_group_name_H-M_alt    "P 1"
_space_group_IT_number       1

loop_
  _space_group_symop_operation_xyz
  'x, y, z'

loop_
  _atom_site_type_symbol
  _atom_site_label
  _atom_site_symmetry_multiplicity
  _atom_site_fract_x
  _atom_site_fract_y
  _atom_site_fract_z
  _atom_site_occupancy
  Cd  Cd1       1.0  0.9969093787958131  0.16375309174720337  0.09283573549462427  1.0000
  Cd  Cd2       1.0  0.7189814648336821  0.0993707732694986  0.0088937510651732  1.0000
  Cd  Cd3       1.0  0.3584410035294566  0.12801350252328803  0.05166918158499807  1.0000
  H   H1        1.0  0.45073043502395643  0.240735816680953  0.11505992830267786  1.0000
  H   H2        1.0  0.5262003107857325  0.24504513282718676  0.22458376603036354  1.0000
  H   H3        1.0  0.5341590866425392  0.9963768490785438  0.3136335173158073  1.0000
  H   H4        1.0  0.46662947879304545  0.0030985191136351994  0.1987460419854443  1.0000
  H   H5        1.0  0.759026609055667  0.030342204665302585  0.3159586549779901  1.0000
  H   H6        1.0  0.9653695011037869  0.961509218872564  0.5056143362786895  1.0000
  H   H7        1.0  0.8012647173002777  0.040864063171483195  0.5466769427183351  1.0000
  H   H8        1.0  0.3981933503848722  0.20671519741419786  0.3372034525782154  1.0000
  H   H9        1.0  0.6565367560754255  0.2668745918088078  0.44226408781441495  1.0000
  H   H10       1.0  0.6922642485414131  0.3901654305836999  0.45054951761277806  1.0000
  H   H11       1.0  0.6661591902491751  0.28268845124840414  0.6728019000993868  1.0000
  H   H12       1.0  0.5789543046850768  0.019530300868346694  0.7196951231214539  1.0000
  H   H13       1.0  0.5191455864136502  0.0593920480409338  0.9170878673995374  1.0000
  H   H14       1.0  0.46973973729086543  0.07457436531537098  0.7968253152498477  1.0000
  H   H15       1.0  0.8345728911939999  0.18902737323931965  0.7275487578362669  1.0000
  H   H16       1.0  0.8651406704303001  0.17090586603137584  0.8505522059159955  1.0000
  H   H17       1.0  0.23667641143948975  0.24717541970696297  0.906107392293947  1.0000
  H   H18       1.0  0.18066313138520232  0.2509702823342934  0.790191675871398  1.0000
  H   H19       1.0  0.23290305394090888  0.002316230485440899  0.8762330042660125  1.0000
  H   H20       1.0  0.2896296283912534  0.0100963145535715  0.9874310087889808  1.0000
  H   H21       1.0  0.014861237509215603  0.027781958954420802  0.8449891319739392  1.0000
  H   H22       1.0  0.8437568601678648  0.9630287460534248  0.6956440124113498  1.0000
  H   H23       1.0  0.981335235138758  0.052703428789598696  0.6017495630993892  1.0000
  H   H24       1.0  0.3333351635127287  0.2100794363196812  0.7099369790647216  1.0000
  H   H25       1.0  0.05762392093737393  0.2775177311242912  0.563293252361106  1.0000
  H   H26       1.0  0.958549544984585  0.3985192493596941  0.47736691631119027  1.0000
  H   H27       1.0  0.9909269364047687  0.3004526938369665  0.32341448834279857  1.0000
  H   H28       1.0  0.1951791210111864  0.044476996228695484  0.4409460134090182  1.0000
  H   H29       1.0  0.2144346635309589  0.1118544866867239  0.20791766693513133  1.0000
  H   H30       1.0  0.26615654214599255  0.11189005889143287  0.32261253107414223  1.0000
  H   H31       1.0  0.8595990840191093  0.19849708263785  0.3376336868613379  1.0000
  H   H32       1.0  0.8257679221279587  0.1938435838323684  0.2226257935642906  1.0000
  H   H33       1.0  0.7100334403071713  0.24244789620834684  0.04626567098756597  1.0000
  H   H34       1.0  0.5593314524437146  0.3587507937654664  0.02840148213129366  1.0000
  H   H35       1.0  0.8684272681081853  0.4483937949884123  0.10228058633512657  1.0000
  H   H36       1.0  0.010220459748658992  0.3278769604048293  0.11426786125477406  1.0000
  H   H37       1.0  0.633471179236807  0.4671949881289591  0.16294470062968705  1.0000
  H   H38       1.0  0.6524558811755626  0.46967042397922404  0.9320507804678398  1.0000
  H   H39       1.0  0.3651373883007168  0.6519533912760452  0.8226325037972512  1.0000
  H   H40       1.0  0.3112780702150602  0.6785332871617911  0.9282360012744421  1.0000
  H   H41       1.0  0.0082466876464409  0.031162390909806003  0.04882608513286609  1.0000
  H   H42       1.0  0.16394389785206437  0.9163315708717121  0.0726459976200927  1.0000
  H   H43       1.0  0.8630479602816407  0.814010470291649  0.005847584694187355  1.0000
  H   H44       1.0  0.7126326735408882  0.9310626215567125  0.9934032315519443  1.0000
  H   H45       1.0  0.27905979142030907  0.8637403498732964  0.9946890481844048  1.0000
  H   H46       1.0  0.22811886884479554  0.5267069658403826  0.11421817234690214  1.0000
  H   H47       1.0  0.008298939875167822  0.49471884790450815  0.17392325571482548  1.0000
  H   H48       1.0  0.8957550173967022  0.735132991561528  0.12056018392774351  1.0000
  H   H49       1.0  0.39709504829991715  0.21800427272106754  0.4973670230026741  1.0000
  H   H50       1.0  0.523943521765446  0.008922510656745397  0.5615138489756006  1.0000
  H   H51       1.0  0.4006486920588657  0.2474258385870982  0.5983676798118152  1.0000
  H   H52       1.0  0.27277075991100475  0.026126059671199194  0.6065825104969419  1.0000
  H   H53       1.0  0.522170775642465  0.5477027619361293  0.2062145604968463  1.0000
  H   H54       1.0  0.4848619350352338  0.8163381287822417  0.9828829260150794  1.0000
  C   C1        1.0  0.4726617742615532  0.18810939050239028  0.16024937376319304  1.0000
  C   C2        1.0  0.5131783028169893  0.18996648937187638  0.22142522806087328  1.0000
  C   C3        1.0  0.5350505371425669  0.12073186593701726  0.27909711519747293  1.0000
  C   C4        1.0  0.5194492365254675  0.051962082410199194  0.27072187867270253  1.0000
  C   C5        1.0  0.4803420544043533  0.055174101586501885  0.2073021420683858  1.0000
  C   C6        1.0  0.5619832136243589  0.12250256549417317  0.3468615852364748  1.0000
  C   C7        1.0  0.6672452119650103  0.07601052421260587  0.39006588266643394  1.0000
  C   C8        1.0  0.7637599214740262  0.03088910339121039  0.36740278245033403  1.0000
  C   C9        1.0  0.8684035567964516  0.9907368535559441  0.4086758404999242  1.0000
  C   C10       1.0  0.8813728368601871  0.9932014764976242  0.47419807820631366  1.0000
  C   C11       1.0  0.7893364334670212  0.037337056632978295  0.4968736442066728  1.0000
  C   C12       1.0  0.6803387372681229  0.080235420493743  0.4562725985998027  1.0000
  C   C13       1.0  0.5891363181977313  0.12902200801138966  0.4791248016509896  1.0000
  C   C14       1.0  0.490273336375374  0.1745124257504074  0.4344705824961323  1.0000
  C   C15       1.0  0.47907005030425864  0.17112954796425578  0.3690487936750129  1.0000
  C   C16       1.0  0.6021661951743128  0.13324088353196828  0.5475212685179685  1.0000
  C   C17       1.0  0.636346398061967  0.20240288191126143  0.5529160733218106  1.0000
  C   C18       1.0  0.6576754419852477  0.26988119321333665  0.4929191888921593  1.0000
  C   C19       1.0  0.6777497911612969  0.33883560157530473  0.49718588388047635  1.0000
  C   C20       1.0  0.6793808254820065  0.34265701594519266  0.5628358855348736  1.0000
  C   C21       1.0  0.6640303113771183  0.27812136752667266  0.6228558151971056  1.0000
  C   C22       1.0  0.6443226068903343  0.2062091532365571  0.6196933013198276  1.0000
  C   C23       1.0  0.6272642888918867  0.13774392234886082  0.6808326175908304  1.0000
  C   C24       1.0  0.5921704898254418  0.07217412017001829  0.6739950100246971  1.0000
  C   C25       1.0  0.5768206770437202  0.07014703639030975  0.6084953305986786  1.0000
  C   C26       1.0  0.58559379522287  0.08807641667701199  0.8730057090721601  1.0000
  C   C27       1.0  0.559298168065631  0.09648240093721938  0.806248158844994  1.0000
  C   C28       1.0  0.6480796344625618  0.13358221542483759  0.7512921602856507  1.0000
  C   C29       1.0  0.7599546055601322  0.16147650521507728  0.7674742223674754  1.0000
  C   C30       1.0  0.7788488511117893  0.15051215376232824  0.8358806176968514  1.0000
  C   C31       1.0  0.2354107812671558  0.19453575497463763  0.8966350512308664  1.0000
  C   C32       1.0  0.2045494496848406  0.19603397852372234  0.832534855151728  1.0000
  C   C33       1.0  0.20394287013167664  0.1267078927448324  0.8230142223982141  1.0000
  C   C34       1.0  0.23065228767152487  0.05798951790263369  0.8804923284609527  1.0000
  C   C35       1.0  0.26207763181673027  0.061764062351919294  0.9424162592846271  1.0000
  C   C36       1.0  0.1859939400874708  0.12795366424959548  0.7532607084913465  1.0000
  C   C37       1.0  0.09560089789836472  0.08179231800154699  0.7395792169722526  1.0000
  C   C38       1.0  0.01252725748488361  0.03179596863878229  0.7919951971601689  1.0000
  C   C39       1.0  0.9255855019490794  0.9897743156176088  0.7756736631759579  1.0000
  C   C40       1.0  0.9143257969988737  0.99634671368932  0.7069973358140869  1.0000
  C   C41       1.0  0.9914060429151661  0.045938963979104096  0.6551452068739251  1.0000
  C   C42       1.0  0.0847555417597476  0.08925479318960329  0.6692568637042269  1.0000
  C   C43       1.0  0.1647133502073217  0.13994493350844545  0.6142733744853855  1.0000
  C   C44       1.0  0.2536305162363348  0.18154251750745937  0.6307542551055362  1.0000
  C   C45       1.0  0.26246924620149775  0.17624511848155316  0.6991260341525773  1.0000
  C   C46       1.0  0.14745145786928052  0.14895385472115658  0.5418566260813192  1.0000
  C   C47       1.0  0.08322865647917872  0.21755655922080308  0.49347211158934096  1.0000
  C   C48       1.0  0.043199123520715  0.28174382041812857  0.5109763088052403  1.0000
  C   C49       1.0  0.9879962078121665  0.3495517335322944  0.46330524350494773  1.0000
  C   C50       1.0  0.9698230867173548  0.3552425646673569  0.3954568517310903  1.0000
  C   C51       1.0  0.004367716258819616  0.2939467482162996  0.3764106360825536  1.0000
  C   C52       1.0  0.05972622596578962  0.2233163270470442  0.42489156770025  1.0000
  C   C53       1.0  0.09750428562804817  0.15841238823634274  0.4069404695970462  1.0000
  C   C54       1.0  0.1645979893503551  0.0941174503230684  0.45392032981235514  1.0000
  C   C55       1.0  0.19067185328874806  0.08955702494126429  0.520505868351911  1.0000
  C   C56       1.0  0.13970995892738358  0.13152499157440195  0.2382685374567045  1.0000
  C   C57       1.0  0.1672984787049074  0.13151633172162042  0.3021243580450985  1.0000
  C   C58       1.0  0.06839983266570468  0.1579632782091664  0.3391545511738058  1.0000
  C   C59       1.0  0.9425475959870084  0.1808162744769035  0.30999432849024083  1.0000
  C   C60       1.0  0.922848023140908  0.17786690850153516  0.24620879175171945  1.0000
  C   C61       1.0  0.7422573645157796  0.28923516984759345  0.0580347755726791  1.0000
  C   C62       1.0  0.6579377190596318  0.3546409679504307  0.04826341538603169  1.0000
  C   C63       1.0  0.7006836107786683  0.4137358392571286  0.06469603658169376  1.0000
  C   C64       1.0  0.8293908929613137  0.4036308449552735  0.08987822666029638  1.0000
  C   C65       1.0  0.9082687650892964  0.33690042797215364  0.09687891702454715  1.0000
  C   C66       1.0  0.6110820405759297  0.4826112789118613  0.05750836941827218  1.0000
  C   C67       1.0  0.584466312624471  0.5016248379702049  0.11451310954573292  1.0000
  C   C68       1.0  0.4910286032059617  0.5627157836016747  0.11241781473164991  1.0000
  C   C69       1.0  0.4224193800142687  0.6058750739694857  0.05271888858337079  1.0000
  C   C70       1.0  0.4511789252106126  0.5892975116537116  0.9924121288843323  1.0000
  C   C71       1.0  0.5470583596664867  0.527727825949441  0.99393595389332  1.0000
  C   C72       1.0  0.5775167230033204  0.5146664661686343  0.9323425876162968  1.0000
  C   C73       1.0  0.5130408888543201  0.5591472806620813  0.8723671930808904  1.0000
  C   C74       1.0  0.41546882309695127  0.6182628224021939  0.8706100065906452  1.0000
  C   C75       1.0  0.3859883902803532  0.6326642709417669  0.9295358135662608  1.0000
  C   C76       1.0  0.9787111707463155  0.9816790361467367  0.040551026400393646  1.0000
  C   C77       1.0  0.06687786125502279  0.9174418208421994  0.05242574241560758  1.0000
  C   C78       1.0  0.028489665708860936  0.8548555198703836  0.03994919003265807  1.0000
  C   C79       1.0  0.8983824276740652  0.860049362432683  0.017650895447744036  1.0000
  C   C80       1.0  0.815161355380873  0.9256434079604076  0.00902439604696076  1.0000
  C   C81       1.0  0.3205007762647226  0.6678451714329937  0.05235274367831977  1.0000
  C   C82       1.0  0.3506721285133879  0.7445189557999541  0.023510430783858245  1.0000
  C   C83       1.0  0.25318087408565754  0.803993204177459  0.020360922188281397  1.0000
  C   C84       1.0  0.12524953430111202  0.7888563218924388  0.04752897275564283  1.0000
  C   C85       1.0  0.09240972701854844  0.7104439250949425  0.08167510922842063  1.0000
  C   C86       1.0  0.19049922002807315  0.6501246449374988  0.08235943201696469  1.0000
  C   C87       1.0  0.15522483059071854  0.5725985973109076  0.11488598025422185  1.0000
  C   C88       1.0  0.03301342414824404  0.5544290470706911  0.14793243699995165  1.0000
  C   C89       1.0  0.9407009421527589  0.6143654335760541  0.14967842494298375  1.0000
  C   C90       1.0  0.9684600232239048  0.6904674510332212  0.11735557193328112  1.0000
  N   N1        1.0  0.4549729282769377  0.12203178809006224  0.1535822288116151  1.0000
  N   N2        1.0  0.6938536413165223  0.1140306343557498  0.8879712497587915  1.0000
  N   N3        1.0  0.2666064539566833  0.12852567879054524  0.9500860237342651  1.0000
  N   N4        1.0  0.01994213264172371  0.15491301161130613  0.21025432311265035  1.0000
  N   N5        1.0  0.8652863549945734  0.2803301927247617  0.08177644193594343  1.0000
  N   N6        1.0  0.8547978552898031  0.9859774367571956  0.019421373556234318  1.0000
  Cl  Cl1       1.0  0.5404213186238138  0.2167220525736937  0.9745305631245241  1.0000
  Cl  Cl2       1.0  0.9290042021449026  0.1829254896279409  0.9664040544121517  1.0000
  Cl  Cl3       1.0  0.8235690806638803  0.9291663495088327  0.8394971693763865  1.0000
  Cl  Cl4       1.0  0.7864376727836413  0.08341018957450068  0.13387611550629688  1.0000
  Cl  Cl5       1.0  0.989661955542509  0.9393583870000201  0.3788503043662246  1.0000
  Cl  Cl6       1.0  0.17393240836526047  0.0411024145498047  0.12806793498697996  1.0000
  Cl  Cl7       1.0  0.7039178411810384  0.42990624922268944  0.5674630452709194  1.0000
  Cl  Cl8       1.0  0.5181699554728353  0.005284490648279  0.05320101371051319  1.0000
  Cl  Cl9       1.0  0.9008964756762765  0.4408140824426425  0.3352992070341613  1.0000
  Cl  Cl10      1.0  0.2025453823944048  0.2495683941769755  0.04927904644434017  1.0000
  Cl  Cl11      1.0  0.5514853311292284  0.5429528787996317  0.7972653014265699  1.0000
  Cl  Cl12      1.0  0.7890726486597828  0.5923592727876038  0.19464069564249803  1.0000
  O   O1        1.0  0.39980258424447607  0.2242554350116777  0.4484528833109848  1.0000
  O   O2        1.0  0.5373454173214824  0.002785428723605299  0.6092097843734834  1.0000
  O   O3        1.0  0.3320710670376457  0.22968027103839717  0.5786046628148184  1.0000
  O   O4        1.0  0.25808088097232235  0.023039879907713594  0.5622242648369493  1.0000
  O   O5        1.0  0.46246811689101713  0.5796328231559399  0.16975884220065038  1.0000
  O   O6        1.0  0.4769778366621581  0.7613248057804114  0.99682593170769  1.0000
