data_image0
_chemical_formula_structural       Zn2H32C32N8Cl4O4
_chemical_formula_sum              "Zn2 H32 C32 N8 Cl4 O4"
_cell_length_a       6.190530047489168
_cell_length_b       11.929908811878128
_cell_length_c       12.422035113278524
_cell_angle_alpha    106.61359063278518
_cell_angle_beta     104.44888206300594
_cell_angle_gamma    90.02499557352353

_space_group_name_H-M_alt    "P 1"
_space_group_IT_number       1

loop_
  _space_group_symop_operation_xyz
  'x, y, z'

loop_
  _atom_site_type_symbol
  _atom_site_label
  _atom_site_symmetry_multiplicity
  _atom_site_fract_x
  _atom_site_fract_y
  _atom_site_fract_z
  _atom_site_occupancy
  Zn  Zn1       1.0  0.12287171770685751  0.7496969055657844  0.9998307121152906  1.0000
  Zn  Zn2       1.0  0.8771099665105312  0.2503053146808937  0.00016862690588936638  1.0000
  H   H1        1.0  0.5482960963734627  0.6362400497892294  0.9742915947189771  1.0000
  H   H2        1.0  0.5734179047071423  0.8640493992917937  0.025829852684601803  1.0000
  H   H3        1.0  0.4516819700027598  0.3637595107080998  0.02569931572396912  1.0000
  H   H4        1.0  0.4265557197611258  0.13595547421554238  0.9741764214863409  1.0000
  H   H5        1.0  0.8646548265576259  0.5622265502891537  0.09503949978632423  1.0000
  H   H6        1.0  0.7691255692896276  0.9382768608032278  0.9052650306196242  1.0000
  H   H7        1.0  0.13532321722009744  0.4377730159387453  0.9049530194139309  1.0000
  H   H8        1.0  0.2308710984762854  0.06172628526933009  0.09474774398384511  1.0000
  H   H9        1.0  0.8648193585538663  0.574892559029024  0.3002755361404894  1.0000
  H   H10       1.0  0.5642870639599166  0.9254939301102635  0.7000118391700382  1.0000
  H   H11       1.0  0.1351684617987701  0.4251052522914519  0.6997161460663291  1.0000
  H   H12       1.0  0.4357214881843846  0.0745100797632787  0.2999970523701522  1.0000
  H   H13       1.0  0.24161421827245283  0.7394488930312023  0.24545754071272088  1.0000
  H   H14       1.0  0.9962597011940134  0.7596974363687964  0.7540483202325773  1.0000
  H   H15       1.0  0.7583758522778582  0.26055332038911416  0.7545396475284605  1.0000
  H   H16       1.0  0.0037400295371056904  0.24030214190952381  0.24594697247768238  1.0000
  H   H17       1.0  0.6077753503478931  0.7004580467253729  0.623005675418959  1.0000
  H   H18       1.0  0.984431731518363  0.7996622981969495  0.3767268732829622  1.0000
  H   H19       1.0  0.39225927416151046  0.29954067651500776  0.37699464779651487  1.0000
  H   H20       1.0  0.0155710011856911  0.2003355472536938  0.6232739684540505  1.0000
  H   H21       1.0  0.5211005416576029  0.4531740673132205  0.29845773979140233  1.0000
  H   H22       1.0  0.2233318002930886  0.04666267856964619  0.7014621941320272  1.0000
  H   H23       1.0  0.47892075963282116  0.5468246427809474  0.7015392678913771  1.0000
  H   H24       1.0  0.7766627901654886  0.9533369313112274  0.2985421110813036  1.0000
  H   H25       1.0  0.7788704597929196  0.5793089287419305  0.6169928336682275  1.0000
  H   H26       1.0  0.16166983677275223  0.9209591731425062  0.3829560914073014  1.0000
  H   H27       1.0  0.22115344568953793  0.420684510394544  0.3830006626194304  1.0000
  H   H28       1.0  0.8383318661708544  0.07904305822763288  0.6170458077769538  1.0000
  H   H29       1.0  0.7301312774971153  0.4279921481516311  0.41663069000905756  1.0000
  H   H30       1.0  0.31359339839921313  0.0720242636138551  0.5832575896065393  1.0000
  H   H31       1.0  0.26989734646804203  0.5720109496315259  0.5833676374769254  1.0000
  H   H32       1.0  0.6864129973430054  0.9279762301249975  0.4167484631940895  1.0000
  C   C1        1.0  0.5515817036825155  0.640985611915653  0.06356996501521911  1.0000
  C   C2        1.0  0.4877003018042032  0.8590225557040724  0.9364199929796725  1.0000
  C   C3        1.0  0.44840081140487353  0.3590104533465208  0.9364237863477811  1.0000
  C   C4        1.0  0.5122830167426217  0.1409796740654201  0.06358197252438912  1.0000
  C   C5        1.0  0.7290275089837335  0.6000423608195005  0.13143795943337006  1.0000
  C   C6        1.0  0.5972022483524954  0.9001973619653681  0.8686706777941425  1.0000
  C   C7        1.0  0.2709535819639086  0.3999554611195819  0.8685568912790274  1.0000
  C   C8        1.0  0.4027813741796322  0.0998075199689907  0.1313376808369924  1.0000
  C   C9        1.0  0.7276859930674816  0.6062783087098751  0.2448592044451061  1.0000
  C   C10       1.0  0.48246037055874064  0.8938673085503693  0.7552157646111367  1.0000
  C   C11       1.0  0.2723078535134889  0.39372652434580135  0.7551351510731549  1.0000
  C   C12       1.0  0.5175324126800547  0.1061314258995409  0.2447888774750879  1.0000
  C   C13       1.0  0.5498796048589867  0.6559569736255709  0.2881231630485601  1.0000
  C   C14       1.0  0.26149717452253185  0.8438438334840652  0.7117171347906394  1.0000
  C   C15       1.0  0.45012050895218175  0.34404523676062126  0.7118728921381958  1.0000
  C   C16       1.0  0.7385005647992102  0.15615400632042759  0.2882822625269483  1.0000
  C   C17       1.0  0.38037315476152145  0.6971771768472408  0.21511174341285513  1.0000
  C   C18       1.0  0.1651696083996157  0.8023318416581445  0.7845775656195357  1.0000
  C   C19       1.0  0.6196109946553037  0.30281889793774036  0.7848846344330268  1.0000
  C   C20       1.0  0.834821551808993  0.19766688040367336  0.21542364560515642  1.0000
  C   C21       1.0  0.5494789103989888  0.6785350717519164  0.4135269861156701  1.0000
  C   C22       1.0  0.1359011690105163  0.8213748795340334  0.5862872776474432  1.0000
  C   C23       1.0  0.45053106248343516  0.3214662725572878  0.5864717037511014  1.0000
  C   C24       1.0  0.864107311936678  0.17862823864378896  0.4137173378406516  1.0000
  C   C25       1.0  0.5664617412587135  0.4630294439380123  0.3917892438229701  1.0000
  C   C26       1.0  0.17490212021380094  0.03692196166987569  0.6081731401923847  1.0000
  C   C27       1.0  0.4335625021067814  0.5369666387674812  0.6082082324558087  1.0000
  C   C28       1.0  0.8250910574042863  0.963079402022622  0.3918314599916855  1.0000
  C   C29       1.0  0.6121000620956636  0.6064657230917944  0.5825530694083054  1.0000
  C   C30       1.0  0.02939651050550642  0.8936452214585199  0.41734219682158613  1.0000
  C   C31       1.0  0.3879280397968472  0.39353386807947993  0.4174450458209975  1.0000
  C   C32       1.0  0.9706013000133424  0.1063535100416857  0.582661476548104  1.0000
  N   N1        1.0  0.3798279907865023  0.688539125084901  0.10451842163350729  1.0000
  N   N2        1.0  0.27511548373205125  0.811080964534717  0.8952338281640521  1.0000
  N   N3        1.0  0.6201602725440268  0.3114622129044519  0.8954791034805681  1.0000
  N   N4        1.0  0.7248745789206197  0.18892216063831313  0.10477326677980162  1.0000
  N   N5        1.0  0.5764343697845433  0.586655671030499  0.4579747437816977  1.0000
  N   N6        1.0  0.11862166983771515  0.9133169182067744  0.5419291958974952  1.0000
  N   N7        1.0  0.42358500789200093  0.41334128339812537  0.5420215422364905  1.0000
  N   N8        1.0  0.8813811679611873  0.0866818103437339  0.45807350875566033  1.0000
  Cl  Cl1       1.0  0.8734607699875953  0.6078700016510722  0.8706694118699758  1.0000
  Cl  Cl2       1.0  0.002756524625858971  0.8913419420455282  0.12910571815883998  1.0000
  Cl  Cl3       1.0  0.1265381493864481  0.39212432387264323  0.12932757340189477  1.0000
  Cl  Cl4       1.0  0.9972213123637699  0.10865676687006949  0.8708921775331575  1.0000
  O   O1        1.0  0.5330570586743023  0.7809510960654363  0.47157235316285556  1.0000
  O   O2        1.0  0.06138109647766037  0.7189608975460329  0.5281676785409459  1.0000
  O   O3        1.0  0.46694817312692993  0.21904059532765524  0.5284231142629068  1.0000
  O   O4        1.0  0.9386380032136901  0.2810343078745845  0.471829707916875  1.0000
