data_image0
_chemical_formula_structural       Zr6H22C78O32
_chemical_formula_sum              "Zr6 H22 C78 O32"
_cell_length_a       16.825659906386043
_cell_length_b       16.82651285629174
_cell_length_c       16.831904672812115
_cell_angle_alpha    92.68644745281084
_cell_angle_beta     92.7136493868483
_cell_angle_gamma    92.70578492824357

_space_group_name_H-M_alt    "P 1"
_space_group_IT_number       1

loop_
  _space_group_symop_operation_xyz
  'x, y, z'

loop_
  _atom_site_type_symbol
  _atom_site_label
  _atom_site_symmetry_multiplicity
  _atom_site_fract_x
  _atom_site_fract_y
  _atom_site_fract_z
  _atom_site_occupancy
  Zr  Zr1       1.0  0.1981642392086513  0.1569989766536608  0.0424495645464731  1.0000
  Zr  Zr2       1.0  0.2488651360668329  0.9929233354495183  0.15528989611385677  1.0000
  Zr  Zr3       1.0  0.0016433646660658  0.07378223620479929  0.009249402262007302  1.0000
  Zr  Zr4       1.0  0.08527249466001761  0.10614779641139192  0.20632482690992765  1.0000
  Zr  Zr5       1.0  0.1652028521569449  0.9599590477340953  0.9589803830661697  1.0000
  Zr  Zr6       1.0  0.05155243089568982  0.9098697424602947  0.12257881470331712  1.0000
  H   H1        1.0  0.045856914064394516  0.5039519301476646  0.920864402292267  1.0000
  H   H2        1.0  0.09895309710719861  0.6497311210502729  0.7240663007935667  1.0000
  H   H3        1.0  0.08902904240915892  0.39309080349087816  0.6914264572748509  1.0000
  H   H4        1.0  0.1577630920092901  0.6720595866108637  0.477310042618953  1.0000
  H   H5        1.0  0.1415062185713651  0.4162386020930668  0.43624353692079865  1.0000
  H   H6        1.0  0.1948853559316888  0.5675115248243614  0.24366720042176843  1.0000
  H   H7        1.0  0.7344541224256886  0.9976881310713569  0.44177597742107383  1.0000
  H   H8        1.0  0.7665984422543417  0.008109060748346103  0.6983879831810427  1.0000
  H   H9        1.0  0.9637400404637192  0.954468066262038  0.5533137178590408  1.0000
  H   H10       1.0  0.5204993520938005  0.06723143092937528  0.721590510334835  1.0000
  H   H11       1.0  0.47863140508211194  0.04932426966067991  0.4659176681975908  1.0000
  H   H12       1.0  0.286073097650764  0.10217297170654403  0.6173508408255515  1.0000
  H   H13       1.0  0.48466757279216216  0.6420158308421406  0.04678918576572502  1.0000
  H   H14       1.0  0.7413337589191968  0.6745350237516022  0.05708410180263003  1.0000
  H   H15       1.0  0.5958097082937428  0.8714290389869177  0.0034893152015485263  1.0000
  H   H16       1.0  0.6600373065315709  0.19397769550235472  0.15206035747367252  1.0000
  H   H17       1.0  0.508180248757526  0.38616088979622293  0.09862432722377432  1.0000
  H   H18       1.0  0.7638888222663027  0.4284851372327694  0.1167519235351122  1.0000
  H   H19       1.0  0.24839129358296214  0.1559900060026109  0.2055670126705493  1.0000
  H   H20       1.0  0.1181719510598924  0.10285042093831721  0.895086319964328  1.0000
  H   H21       1.0  0.9375972148804692  0.026601564050203304  0.15187587627345783  1.0000
  H   H22       1.0  0.19425021122358999  0.8456568853286512  0.07537526211680053  1.0000
  C   C1        1.0  0.0658492063193208  0.4399639488128813  0.8096385144335301  1.0000
  C   C2        1.0  0.05889582781534131  0.5090636790018693  0.8585328691645273  1.0000
  C   C3        1.0  0.07072172682801181  0.5845722600524894  0.8278306381844374  1.0000
  C   C4        1.0  0.088918550063859  0.5910911952412192  0.7475406096271727  1.0000
  C   C5        1.0  0.0950698000794219  0.522155136359494  0.6978277601479094  1.0000
  C   C6        1.0  0.08336152723677513  0.446526192118256  0.7293717486370213  1.0000
  C   C7        1.0  0.1782235781722221  0.6285649780055349  0.3573459814695213  1.0000
  C   C8        1.0  0.16160901883099402  0.619656373408624  0.4375151715872151  1.0000
  C   C9        1.0  0.14849749278771904  0.543122713623049  0.4666353714960607  1.0000
  C   C10       1.0  0.1524322463499956  0.4755516559096193  0.41458128659468946  1.0000
  C   C11       1.0  0.16958772488995782  0.48431814784689914  0.3342687811342061  1.0000
  C   C12       1.0  0.18266259019956277  0.5607388333772009  0.3059809556359951  1.0000
  C   C13       1.0  0.85254439820973  0.9742076468546872  0.48898592252798795  1.0000
  C   C14       1.0  0.772284990542552  0.9920501623909955  0.49533980856654847  1.0000
  C   C15       1.0  0.7406364793524104  0.004019672922801501  0.5708625164063577  1.0000
  C   C16       1.0  0.7902802665611761  0.9979780494071807  0.639880187651791  1.0000
  C   C17       1.0  0.870571367180091  0.9796254466635052  0.6335973234752644  1.0000
  C   C18       1.0  0.901368654534707  0.9674853874460967  0.5582085679834563  1.0000
  C   C19       1.0  0.4001619361547171  0.08665307301831152  0.6781873981860259  1.0000
  C   C20       1.0  0.48048362456682986  0.07053182382465202  0.6692179684558683  1.0000
  C   C21       1.0  0.5093766306385278  0.05712348083817179  0.5926541860831734  1.0000
  C   C22       1.0  0.4570472772235092  0.06038269361324212  0.5251905031665771  1.0000
  C   C23       1.0  0.3766073213815062  0.07702270392726972  0.5339904137548643  1.0000
  C   C24       1.0  0.3485010885769029  0.09036631354669572  0.6104186723360672  1.0000
  C   C25       1.0  0.5316398012218075  0.7602227271326498  0.023389699377979436  1.0000
  C   C26       1.0  0.5381384397544622  0.6799605647302513  0.04113437210082792  1.0000
  C   C27       1.0  0.6137665526245185  0.6484207587512857  0.05305709847088021  1.0000
  C   C28       1.0  0.6827579825060683  0.6981306754197975  0.047015677700414926  1.0000
  C   C29       1.0  0.6762985291977516  0.7784233292590842  0.028726227225192223  1.0000
  C   C30       1.0  0.6008099918064502  0.8091003558119781  0.016613595270108295  1.0000
  C   C31       1.0  0.7207144514495882  0.308126398029728  0.13639544866499162  1.0000
  C   C32       1.0  0.6530405616518352  0.2563766251718391  0.14017438234407115  1.0000
  C   C33       1.0  0.5765483161635885  0.2844041578844313  0.1267385953863212  1.0000
  C   C34       1.0  0.567553024622775  0.3647626520223143  0.1098096338954022  1.0000
  C   C35       1.0  0.6349565593495186  0.41718548491017066  0.1065165778315347  1.0000
  C   C36       1.0  0.7115789631140643  0.38839003513367487  0.12011560782416811  1.0000
  C   C37       1.0  0.0664121363188457  0.24191152208283745  0.9371569181216729  1.0000
  C   C38       1.0  0.3744164495725427  0.14216620568627292  0.11821174393827501  1.0000
  C   C39       1.0  0.1615579861998029  0.28229389315392694  0.19201777712650883  1.0000
  C   C40       1.0  0.27751195258026223  0.089511984137097  0.8789282140972078  1.0000
  C   C41       1.0  0.18086752340502701  0.8295486893615164  0.2348273168931101  1.0000
  C   C42       1.0  0.8784213624558035  0.9203712434966249  0.03770405965602213  1.0000
  C   C43       1.0  0.23460810969572074  0.0684175267923166  0.3316745188600336  1.0000
  C   C44       1.0  0.3335009160431142  0.8876670277173061  0.023285757931255112  1.0000
  C   C45       1.0  0.011669616364407935  0.9887426558649896  0.8362002360034992  1.0000
  C   C46       1.0  0.921967082388889  0.1861876463006595  0.1388974961304754  1.0000
  C   C47       1.0  0.979707003596019  0.9741969669026247  0.2908430996696225  1.0000
  C   C48       1.0  0.07989586120145022  0.786972110352835  0.9691133423741436  1.0000
  C   C49       1.0  0.7964281011377282  0.2749770789683695  0.14550852206198783  1.0000
  C   C50       1.0  0.8572143073646359  0.2385049613318273  0.1490399441501253  1.0000
  C   C51       1.0  0.5090094844967011  0.2308259928247693  0.12805029125988202  1.0000
  C   C52       1.0  0.4509472858877146  0.18463195132247276  0.1273444942083728  1.0000
  C   C53       1.0  0.8032497688921154  0.875903895474572  0.025152628201787812  1.0000
  C   C54       1.0  0.7450432955367035  0.8300255407605732  0.025483459059522293  1.0000
  C   C55       1.0  0.45747618591942535  0.7966097404156828  0.015527630033489025  1.0000
  C   C56       1.0  0.3986787241356353  0.8360835197635126  0.012432513599442514  1.0000
  C   C57       1.0  0.6203926153307151  0.5674977375064643  0.0719821776070688  1.0000
  C   C58       1.0  0.6264606376790313  0.4980477695439448  0.08830737285127553  1.0000
  C   C59       1.0  0.3667375676705191  0.0957781155235793  0.7537299677388846  1.0000
  C   C60       1.0  0.32986284012483935  0.0994842155541846  0.8142197364088731  1.0000
  C   C61       1.0  0.3231158935397715  0.0781442996536512  0.4663541448843986  1.0000
  C   C62       1.0  0.2770400300053097  0.07725992974104663  0.40820410069337504  1.0000
  C   C63       1.0  0.9673399083025345  0.9761736576866653  0.761025581982061  1.0000
  C   C64       1.0  0.921902835473901  0.9763863122557838  0.7024969146758978  1.0000
  C   C65       1.0  0.9281589494120155  0.9633073143438652  0.3559682787187627  1.0000
  C   C66       1.0  0.8888783933809775  0.9663296844098428  0.4148576313645479  1.0000
  C   C67       1.0  0.5902928589424122  0.0391984760985622  0.5840931571060821  1.0000
  C   C68       1.0  0.6597123149875729  0.0229790969026453  0.5775395713213456  1.0000
  C   C69       1.0  0.1870734944133048  0.7041285548043065  0.32387968333937783  1.0000
  C   C70       1.0  0.19071363052565002  0.7647915736623786  0.2872263187795027  1.0000
  C   C71       1.0  0.17081090005382293  0.35871613664249224  0.23462801196777153  1.0000
  C   C72       1.0  0.17133631820011896  0.4166812725239454  0.280898682254481  1.0000
  C   C73       1.0  0.06734495196780443  0.6533544937752681  0.8792832204039271  1.0000
  C   C74       1.0  0.0670959062176948  0.7118257139087448  0.9247645626504595  1.0000
  C   C75       1.0  0.058379566100249705  0.3657412691456941  0.8459336807399112  1.0000
  C   C76       1.0  0.0556462604067178  0.30690523019490706  0.8853516977368088  1.0000
  C   C77       1.0  0.1301429553912428  0.5348205403216755  0.5474563564229558  1.0000
  C   C78       1.0  0.1138958005859081  0.5288538886108468  0.6169206582289704  1.0000
  O   O1        1.0  0.009033698108893902  0.1917039659449031  0.9453312403212452  1.0000
  O   O2        1.0  0.36296532508026047  0.0750825544067482  0.1485384758624875  1.0000
  O   O3        1.0  0.1917966662570549  0.2709897448184648  0.1248973236446176  1.0000
  O   O4        1.0  0.26846031716655716  0.14725172790379298  0.9283647196479594  1.0000
  O   O5        1.0  0.2427960807860146  0.019851528329255106  0.87794347027193  1.0000
  O   O6        1.0  0.12198828708656612  0.23035536391621045  0.22999540109452715  1.0000
  O   O7        1.0  0.32253365494547387  0.18023092952419265  0.078647541613293  1.0000
  O   O8        1.0  0.1366688867390593  0.24179997827923935  0.9703568349129839  1.0000
  O   O9        1.0  0.22337315028679677  0.03724214129482561  0.04487975157515931  1.0000
  O   O10       1.0  0.08771730845686679  0.13162937106923778  0.0866583199230035  1.0000
  O   O11       1.0  0.213379888395437  0.12108451849626084  0.17058011035769033  1.0000
  O   O12       1.0  0.12008054477523442  0.08404144213153592  0.9487169757658195  1.0000
  O   O13       1.0  0.23874169349060986  0.8788500002522214  0.22572176807467065  1.0000
  O   O14       1.0  0.8893103993810242  0.988058960823963  0.0083792709415391  1.0000
  O   O15       1.0  0.167587461363496  0.09892193954080142  0.3203088976312359  1.0000
  O   O16       1.0  0.2832016813261405  0.8958510002380394  0.9660009528764635  1.0000
  O   O17       1.0  0.07926502835402263  0.9592149752146855  0.8471123729913972  1.0000
  O   O18       1.0  0.9714824297445974  0.1770136894253866  0.19657255865982393  1.0000
  O   O19       1.0  0.9876120853104879  0.9169791906698991  0.2404396109797134  1.0000
  O   O20       1.0  0.050464658571883106  0.797894653630486  0.0367086717632645  1.0000
  O   O21       1.0  0.012938890582354602  0.0444460969849487  0.2907889238878667  1.0000
  O   O22       1.0  0.1236453221585734  0.8373739446085436  0.9335108528713221  1.0000
  O   O23       1.0  0.27258511272211183  0.028999040687693906  0.2796813680553001  1.0000
  O   O24       1.0  0.9208363012787828  0.15155535433896014  0.06921897668451042  1.0000
  O   O25       1.0  0.9760670625738401  0.0323719713601491  0.8866623224410335  1.0000
  O   O26       1.0  0.333313082153211  0.9206257651543482  0.09360421299461312  1.0000
  O   O27       1.0  0.11124336627873531  0.8286141233708761  0.20003003828540503  1.0000
  O   O28       1.0  0.9289591200634747  0.8846398433324084  0.08120739068469622  1.0000
  O   O29       1.0  0.05998821161529832  0.9684360371143728  0.01745981847818003  1.0000
  O   O30       1.0  0.12914674072246873  0.9956072099214669  0.18064277386330477  1.0000
  O   O31       1.0  0.9912628471827534  0.028476229895304104  0.1331373483315943  1.0000
  O   O32       1.0  0.17556341601061118  0.899344012430447  0.07733408904019261  1.0000
