data_image0
_chemical_formula_structural       Ag4H42C46N20O10
_chemical_formula_sum              "Ag4 H42 C46 N20 O10"
_cell_length_a       9.625272212773774
_cell_length_b       11.205049725935092
_cell_length_c       12.0882
_cell_angle_alpha    81.92997766102205
_cell_angle_beta     81.97136782238404
_cell_angle_gamma    77.04858222104481

_space_group_name_H-M_alt    "P 1"
_space_group_IT_number       1

loop_
  _space_group_symop_operation_xyz
  'x, y, z'

loop_
  _atom_site_type_symbol
  _atom_site_label
  _atom_site_symmetry_multiplicity
  _atom_site_fract_x
  _atom_site_fract_y
  _atom_site_fract_z
  _atom_site_occupancy
  Ag  Ag1       1.0  0.34984979468394073  0.0207216369200225  0.04616461273954538  1.0000
  Ag  Ag2       1.0  0.6501488550216338  0.9792819064863493  0.9538356554125186  1.0000
  Ag  Ag3       1.0  0.854181218921731  0.7292563662831312  0.2739967338704332  1.0000
  Ag  Ag4       1.0  0.1458185497762514  0.2707425688332137  0.7260048367531553  1.0000
  H   H1        1.0  0.6430164901102273  0.20642190000012306  0.2847995624270041  1.0000
  H   H2        1.0  0.35698560081753783  0.793576113458208  0.715198560859342  1.0000
  H   H3        1.0  0.3874416237756861  0.2182983850488895  0.3643141555094899  1.0000
  H   H4        1.0  0.6125600195551114  0.7817014717254551  0.6356854321955012  1.0000
  H   H5        1.0  0.2673854892863829  0.047922529613188686  0.35172484485346434  1.0000
  H   H6        1.0  0.7326155524257275  0.9520754838451495  0.6482758768763759  1.0000
  H   H7        1.0  0.4040819756395563  0.8624248880684675  0.2606294086256184  1.0000
  H   H8        1.0  0.5959186184755937  0.1375749687058843  0.7393719502698488  1.0000
  H   H9        1.0  0.6555683934419817  0.851925360078745  0.1798507992500261  1.0000
  H   H10       1.0  0.3444324244716412  0.14807357503759278  0.8201490001830933  1.0000
  H   H11       1.0  0.10414393423018711  0.5590169162321246  0.6386369159113059  1.0000
  H   H12       1.0  0.8958532884395253  0.4409838622002269  0.3613630434876853  1.0000
  H   H13       1.0  0.3181175468836202  0.6525403189446237  0.6096097555092683  1.0000
  H   H14       1.0  0.6818822218143552  0.3474586161717212  0.39039016060826964  1.0000
  H   H15       1.0  0.31856325289891874  0.8489880360177153  0.4849723705619907  1.0000
  H   H16       1.0  0.6814365157990565  0.1510108990986225  0.515025891049504  1.0000
  H   H17       1.0  0.10060021647037595  0.9523621194846112  0.38987792537171356  1.0000
  H   H18       1.0  0.8993991046306391  0.0476386589477329  0.6101218006584261  1.0000
  H   H19       1.0  0.8878443716243821  0.8587585325257052  0.4187145721728882  1.0000
  H   H20       1.0  0.1121534526640175  0.1412440892226527  0.5812859077073043  1.0000
  H   H21       1.0  0.6769452126251068  0.32553605887155607  0.08468469853477954  1.0000
  H   H22       1.0  0.3230544862961153  0.6744674845348085  0.9153154529328587  1.0000
  H   H23       1.0  0.9679256168108168  0.3131075006779653  0.09981622812092177  1.0000
  H   H24       1.0  0.032074151887158606  0.6868914344383725  0.9001845152496414  1.0000
  H   H25       1.0  0.14846650561873534  0.2360854628818956  0.07387266687387489  1.0000
  H   H26       1.0  0.8515343122948948  0.7639134722344492  0.9261279598122627  1.0000
  H   H27       1.0  0.24204744473132686  0.8005014517056421  0.09487565311796692  1.0000
  H   H28       1.0  0.7579544223979581  0.19949748341069545  0.9051248568837522  1.0000
  H   H29       1.0  0.09752019809094041  0.7258093653454906  0.14553785049554335  1.0000
  H   H30       1.0  0.9024816690383447  0.2741895697708472  0.8544626595061756  1.0000
  H   H31       1.0  0.5774832900327738  0.4480926103905958  0.7761333229656772  1.0000
  H   H32       1.0  0.42251670246368184  0.5519054030677424  0.22386751544858893  1.0000
  H   H33       1.0  0.7394354357394449  0.4636114878739973  0.8174794058180623  1.0000
  H   H34       1.0  0.2605641091600505  0.5363883689003472  0.18252041525578017  1.0000
  H   H35       1.0  0.4983099050564945  0.5659745125097189  0.40855649240285885  1.0000
  H   H36       1.0  0.5016898636414807  0.434024422606619  0.5914434237146862  1.0000
  H   H37       1.0  0.6135178666133639  0.6436048445889071  0.3137382819624149  1.0000
  H   H38       1.0  0.38648167828613816  0.3563950121854376  0.6862623663644527  1.0000
  H   H39       1.0  0.06738652283297601  0.5058013046978544  0.2505868126793586  1.0000
  H   H40       1.0  0.9326130220665191  0.4941985520764902  0.7494138356475089  1.0000
  H   H41       1.0  0.9723743152766035  0.5343607212899711  0.14690412297137095  1.0000
  H   H42       1.0  0.027625677219852197  0.46563729216835975  0.853096715442895  1.0000
  C   C1        1.0  0.6678491414844814  0.027600892267216192  0.23088847953385988  1.0000
  C   C2        1.0  0.3321519002276291  0.9723971211911219  0.7691122421959805  1.0000
  C   C3        1.0  0.5894530298181947  0.1315399520910034  0.28102786674683233  1.0000
  C   C4        1.0  0.41054546586565266  0.8684599046833412  0.7189712437584105  1.0000
  C   C5        1.0  0.4469619251383961  0.1377113740905784  0.32503517334919246  1.0000
  C   C6        1.0  0.5530397181924088  0.8622884826837661  0.6749644143557987  1.0000
  C   C7        1.0  0.3796258983911684  0.041274610425176696  0.31825565071984124  1.0000
  C   C8        1.0  0.6203736465083266  0.958725246349168  0.6817433431009761  1.0000
  C   C9        1.0  0.4555346856437978  0.9382174340862477  0.2666640713751534  1.0000
  C   C10       1.0  0.5444667338885197  0.061783344346103795  0.7333362485391602  1.0000
  C   C11       1.0  0.5992863202746362  0.9313529252671273  0.2230708580956033  1.0000
  C   C12       1.0  0.4007136722218192  0.06864508819121079  0.7769291530656447  1.0000
  C   C13       1.0  0.8205201179082877  0.0230396068018806  0.18744883598153447  1.0000
  C   C14       1.0  0.17948092380382258  0.9769584066564576  0.8125502312422624  1.0000
  C   C15       1.0  0.04866741001455926  0.9130580138735238  0.14110481194926902  1.0000
  C   C16       1.0  0.951333407899071  0.08694092124282089  0.8588949874838505  1.0000
  C   C17       1.0  0.0013824879945403012  0.1251832768324803  0.12276335961381328  1.0000
  C   C18       1.0  0.9986172807034349  0.8748156582838575  0.8772357292507067  1.0000
  C   C19       1.0  0.9835999198586193  0.7000250610055687  0.5272799255100508  1.0000
  C   C20       1.0  0.016399401242395622  0.29997571742678275  0.47272145502613927  1.0000
  C   C21       1.0  0.1038240977265517  0.6447910184409764  0.58369302195657  1.0000
  C   C22       1.0  0.8961749995759832  0.3552106816493819  0.4163082635359174  1.0000
  C   C23       1.0  0.22383353406050335  0.6978600863524917  0.5676168962675588  1.0000
  C   C24       1.0  0.7761647378248641  0.3021406920798597  0.4323821191939884  1.0000
  C   C25       1.0  0.22429782989502914  0.8078903839294469  0.49707107964393765  1.0000
  C   C26       1.0  0.7757014912059859  0.19211039450290454  0.502927819133177  1.0000
  C   C27       1.0  0.1032262789667726  0.8652958527531566  0.4434198090703916  1.0000
  C   C28       1.0  0.8967743151483705  0.1347040040211951  0.5565798953190253  1.0000
  C   C29       1.0  0.9834118846900068  0.8119770155223591  0.45851553107314647  1.0000
  C   C30       1.0  0.01658743641100811  0.18802376290999223  0.5414841949569932  1.0000
  C   C31       1.0  0.8569559442360771  0.6428352601549675  0.5421102914374956  1.0000
  C   C32       1.0  0.143042103850803  0.3571664399353907  0.4578894562333672  1.0000
  C   C33       1.0  0.6556114971432052  0.6113873673760679  0.47761047868480216  1.0000
  C   C34       1.0  0.3443867747421621  0.38861341105628355  0.5223901912827884  1.0000
  C   C35       1.0  0.7051835450469781  0.5361782308752722  0.6566886094984737  1.0000
  C   C36       1.0  0.2948159998525171  0.4638216258990723  0.3433120388283939  1.0000
  C   C37       1.0  0.7311745009574793  0.547750568782483  0.10936030315418321  1.0000
  C   C38       1.0  0.26882691857484536  0.45225020964986834  0.8906408440131555  1.0000
  C   C39       1.0  0.6154621129207528  0.5231413783985701  0.04849824794671781  1.0000
  C   C40       1.0  0.3845390828130846  0.4768603216917811  0.9515011496708681  1.0000
  C   C41       1.0  0.5998105667996825  0.4023470369845441  0.04721771409172958  1.0000
  C   C42       1.0  0.4001885305028452  0.5976546631058071  0.9527819168947074  1.0000
  C   C43       1.0  0.515118582940751  0.620797495604215  0.9997931348413613  1.0000
  C   C44       1.0  0.48488156357743156  0.3792042044861432  0.0002063794606569866  1.0000
  C   C45       1.0  0.5263167634101507  0.7516443608756729  0.9974787758592568  1.0000
  C   C46       1.0  0.47368548153933443  0.24835733921468517  0.002520505073910285  1.0000
  N   N1        1.0  0.9092750849064399  0.9113898128849839  0.18332226690068154  1.0000
  N   N2        1.0  0.09072573300719  0.08860912223135389  0.816677532532438  1.0000
  N   N3        1.0  0.0995247083604696  0.0181207180307084  0.11219874314870988  1.0000
  N   N4        1.0  0.9004761095531605  0.9818782170856294  0.8878027107904529  1.0000
  N   N5        1.0  0.8595248332351559  0.13082474547934447  0.15749137267543734  1.0000
  N   N6        1.0  0.14047598467847425  0.8691741896369931  0.8425084267576821  1.0000
  N   N7        1.0  0.04327870118591192  0.23257578919994157  0.0970224413314682  1.0000
  N   N8        1.0  0.9567210675120705  0.7674231459164034  0.9029783020391022  1.0000
  N   N9        1.0  0.13743381696681925  0.8046387744888077  0.12971611577584238  1.0000
  N   N10       1.0  0.8625672247452911  0.19535923896952306  0.8702846059540048  1.0000
  N   N11       1.0  0.7762183058241022  0.6604407713610456  0.4561475766880178  1.0000
  N   N12       1.0  0.22377996606125802  0.3395600070713058  0.5438522660265477  1.0000
  N   N13       1.0  0.6142596606701786  0.5534399636455873  0.5785206501382234  1.0000
  N   N14       1.0  0.3857390588121419  0.4465589714707504  0.42148020991677265  1.0000
  N   N15       1.0  0.8295289793724692  0.5781874027302081  0.6414619207268615  1.0000
  N   N16       1.0  0.170469292512891  0.4218133757021434  0.35853792198770407  1.0000
  N   N17       1.0  0.6725830710739729  0.47469258206469067  0.7568543226275182  1.0000
  N   N18       1.0  0.3274166976240024  0.5253063530516471  0.2431447662370019  1.0000
  N   N19       1.0  0.5730231168196056  0.6215735316441878  0.3955688332620752  1.0000
  N   N20       1.0  0.4269766518783698  0.3784254034721569  0.6044310828554628  1.0000
  O   O1        1.0  0.8551583195465327  0.4792676924000999  0.09714235328429056  1.0000
  O   O2        1.0  0.14484227456861018  0.5207321643742446  0.9028590056111766  1.0000
  O   O3        1.0  0.03788712736625399  0.5692095321062709  0.186643965206521  1.0000
  O   O4        1.0  0.9621147397630239  0.430789403010067  0.8133557175421728  1.0000
  O   O5        1.0  0.6925573439632658  0.6362205206551222  0.1705167485556771  1.0000
  O   O6        1.0  0.3074442993675389  0.3637793361192223  0.829483666402339  1.0000
  O   O7        1.0  0.4143833653275095  0.8204203245035515  0.04185776600523641  1.0000
  O   O8        1.0  0.5856163335937197  0.1795832189028133  0.9581399037033336  1.0000
  O   O9        1.0  0.6398236692432917  0.7848480121535528  0.9504187108814007  1.0000
  O   O10       1.0  0.3601779043107598  0.21515645291081845  0.04958111217368358  1.0000
