data_image0
_chemical_formula_structural       Hg4H32C56N8
_chemical_formula_sum              "Hg4 H32 C56 N8"
_cell_length_a       4.105177315042597
_cell_length_b       10.808686325910935
_cell_length_c       26.524964687027097
_cell_angle_alpha    89.99993894855446
_cell_angle_beta     90.00015618693763
_cell_angle_gamma    93.4729685270166

_space_group_name_H-M_alt    "P 1"
_space_group_IT_number       1

loop_
  _space_group_symop_operation_xyz
  'x, y, z'

loop_
  _atom_site_type_symbol
  _atom_site_label
  _atom_site_symmetry_multiplicity
  _atom_site_fract_x
  _atom_site_fract_y
  _atom_site_fract_z
  _atom_site_occupancy
  Hg  Hg1       1.0  0.1822468669926423  0.84434927782187  0.3864448563857079  1.0000
  Hg  Hg2       1.0  0.8177112939075926  0.6556475036474866  0.8864460746936726  1.0000
  Hg  Hg3       1.0  0.8177562415897411  0.15565995327939675  0.6135557161302072  1.0000
  Hg  Hg4       1.0  0.1822642225514954  0.34435508474390286  0.11355600583114266  1.0000
  H   H1        1.0  0.014605486901274414  0.975172657659819  0.90539213745658  1.0000
  H   H2        1.0  0.9853902323605015  0.5248298540801813  0.40539102126715665  1.0000
  H   H3        1.0  0.9853986202594104  0.024824539457732404  0.09461220509544427  1.0000
  H   H4        1.0  0.014604123095445194  0.47516728657931406  0.5946091742461943  1.0000
  H   H5        1.0  0.7217795984419055  0.018137638164887403  0.9839844939650673  1.0000
  H   H6        1.0  0.2782287206103504  0.4818644293661551  0.4839828797151141  1.0000
  H   H7        1.0  0.2781912636243575  0.9818667755482764  0.016017586558376696  1.0000
  H   H8        1.0  0.7217822573701513  0.5181291029984653  0.5160158077892232  1.0000
  H   H9        1.0  0.8723632050100107  0.4089579791588493  0.9503308619523875  1.0000
  H   H10       1.0  0.1276886401768493  0.09104627083528533  0.45032520629020906  1.0000
  H   H11       1.0  0.12761940373329142  0.5910427980297828  0.049668202547692886  1.0000
  H   H12       1.0  0.8723565793438653  0.9089483859281491  0.549670842197841  1.0000
  H   H13       1.0  0.1556908095955407  0.3494672747081111  0.8721828337497184  1.0000
  H   H14       1.0  0.8443330982969429  0.15053884731118936  0.3721819802315806  1.0000
  H   H15       1.0  0.8443232706404376  0.6505318324298205  0.12781736176739134  1.0000
  H   H16       1.0  0.1556830876969357  0.8494574936123274  0.6278185922898982  1.0000
  H   H17       1.0  0.18852206683575187  0.8051602158433866  0.26060417087603577  1.0000
  H   H18       1.0  0.8114851298366972  0.6948371418404876  0.7606065005497197  1.0000
  H   H19       1.0  0.811488244764668  0.19484813082999616  0.7393948936282796  1.0000
  H   H20       1.0  0.1885136585703293  0.3051563199441248  0.23939369496536492  1.0000
  H   H21       1.0  0.4304610638245521  0.6931864122918938  0.18868671432580433  1.0000
  H   H22       1.0  0.569554871227119  0.8068130153066307  0.688687384837422  1.0000
  H   H23       1.0  0.5695319609131317  0.3068199820187232  0.8113123501752708  1.0000
  H   H24       1.0  0.4304565496498185  0.19318422416252906  0.3113128106795244  1.0000
  H   H25       1.0  0.7639190543235517  0.4302117157422957  0.2984460833613482  1.0000
  H   H26       1.0  0.2360660223630973  0.06978601749583652  0.7984444532239362  1.0000
  H   H27       1.0  0.23605402419560315  0.5697908585363579  0.701553358139655  1.0000
  H   H28       1.0  0.7639452877962043  0.9302102951963463  0.20155611929651934  1.0000
  H   H29       1.0  0.5142922037155628  0.5547142284571295  0.3643028300412325  1.0000
  H   H30       1.0  0.4856850803744949  0.9452827151671317  0.8643037819540635  1.0000
  H   H31       1.0  0.48569816166308744  0.44529029818471616  0.6356962344596795  1.0000
  H   H32       1.0  0.5143186945976835  0.05471170162410741  0.13569754457186883  1.0000
  C   C1        1.0  0.9785364785634346  0.0711424906183495  0.9160198846959059  1.0000
  C   C2        1.0  0.02147554947953979  0.4288597562513701  0.41601931556252925  1.0000
  C   C3        1.0  0.021458319798654164  0.9288583571444207  0.08398294984004197  1.0000
  C   C4        1.0  0.9785306633969739  0.5711346746572162  0.583980502950588  1.0000
  C   C5        1.0  0.812687506365883  0.0948747890494062  0.960367500033449  1.0000
  C   C6        1.0  0.18733270752442627  0.40512832834516393  0.4603658805114603  1.0000
  C   C7        1.0  0.18729776174939866  0.9051278558063274  0.03963307248011458  1.0000
  C   C8        1.0  0.812680929815109  0.5948670716882277  0.5396328069930404  1.0000
  C   C9        1.0  0.7679191716199227  0.21838801139374206  0.9741050880829786  1.0000
  C   C10       1.0  0.23211867569594355  0.2816179545984029  0.47410203309389926  1.0000
  C   C11       1.0  0.23207108305403787  0.781615588469457  0.025895861434761996  1.0000
  C   C12       1.0  0.7679073726652916  0.7183793695672666  0.525895900406155  1.0000
  C   C13       1.0  0.8972869494675636  0.3115135520925564  0.9414490669262318  1.0000
  C   C14       1.0  0.1027501157341888  0.18849063295406418  0.4414441124438466  1.0000
  C   C15       1.0  0.1027056324060425  0.688489135109336  0.058552259595529677  1.0000
  C   C16       1.0  0.897273273255074  0.8115048235445106  0.5585523130427317  1.0000
  C   C17       1.0  0.057719789076074314  0.2774773460805308  0.8978299880834794  1.0000
  C   C18       1.0  0.9423066648822953  0.2225259527040678  0.39782763688118183  1.0000
  C   C19       1.0  0.9422917425282124  0.7225208201643414  0.10217096143995258  1.0000
  C   C20       1.0  0.057709410374521014  0.7774694614449944  0.6021710506238305  1.0000
  C   C21       1.0  0.5986022872033203  0.24903536791463673  0.018613104302410498  1.0000
  C   C22       1.0  0.4014536713401142  0.25096435184693183  0.5186141047426672  1.0000
  C   C23       1.0  0.4014045899725431  0.7509646236566213  0.9813836981830091  1.0000
  C   C24       1.0  0.5985865616542797  0.7490293499048454  0.48138533677449385  1.0000
  C   C25       1.0  0.4489231910072604  0.27940074118323116  0.05620595297686038  1.0000
  C   C26       1.0  0.551099833642354  0.22062370623014982  0.5562055220306943  1.0000
  C   C27       1.0  0.551045676005792  0.7206073655229875  0.9437938655253785  1.0000
  C   C28       1.0  0.4489109208448028  0.7793883475490375  0.44379391947624197  1.0000
  C   C29       1.0  0.31938008906310966  0.7215784299939828  0.2670313695032931  1.0000
  C   C30       1.0  0.6806107061245683  0.7784234484749176  0.7670320994249165  1.0000
  C   C31       1.0  0.6806107192119838  0.27842980375239534  0.7329692030102277  1.0000
  C   C32       1.0  0.3193885251659482  0.22157372041591125  0.23296809608946484  1.0000
  C   C33       1.0  0.45348134886670266  0.6589887404865209  0.22705586347063184  1.0000
  C   C34       1.0  0.546518400957325  0.8410123565465145  0.727057640397504  1.0000
  C   C35       1.0  0.5464973805331255  0.3410203494593348  0.7729435780301512  1.0000
  C   C36       1.0  0.4534885869750127  0.15898856179669005  0.2729433091243577  1.0000
  C   C37       1.0  0.6189007909363085  0.5511487510845471  0.2371181407877286  1.0000
  C   C38       1.0  0.3811010159347887  0.9488477038121631  0.7371175387868262  1.0000
  C   C39       1.0  0.3810845878998492  0.4488548205477371  0.7628824317256501  1.0000
  C   C40       1.0  0.6189084099115975  0.051153228647123725  0.2628830337322228  1.0000
  C   C41       1.0  0.6384635876422988  0.512154039401281  0.28760153822410917  1.0000
  C   C42       1.0  0.36151714469255586  0.9878421762134838  0.7876001570072189  1.0000
  C   C43       1.0  0.36150938017539863  0.4878476080983065  0.7124001652970477  1.0000
  C   C44       1.0  0.638484635232885  0.012155933569978601  0.21239966150416473  1.0000
  C   C45       1.0  0.49866735558742187  0.5821337337121549  0.3248535693952164  1.0000
  C   C46       1.0  0.5013116891243286  0.9178633117381738  0.8248534088140783  1.0000
  C   C47       1.0  0.5013155853249742  0.4178698238053045  0.6751462491109874  1.0000
  C   C48       1.0  0.4986895371935063  0.08213016416294752  0.17514603269486168  1.0000
  C   C49       1.0  0.9056104112315496  0.4312221296315287  0.164222371814482  1.0000
  C   C50       1.0  0.0944010624848346  0.06877143753028041  0.6642267140902899  1.0000
  C   C51       1.0  0.09438593921611729  0.5687713180428631  0.835772922656808  1.0000
  C   C52       1.0  0.9055958416578136  0.9312266440151475  0.3357791364733344  1.0000
  C   C53       1.0  0.7678488498227622  0.48548319789246375  0.19792303546179815  1.0000
  C   C54       1.0  0.23214757636776542  0.0145222436355112  0.6979195426093622  1.0000
  C   C55       1.0  0.23213508760338195  0.5145287006106117  0.8020797990694459  1.0000
  C   C56       1.0  0.7678454483666857  0.9854841506755252  0.30207914488838117  1.0000
  N   N1        1.0  0.0999335178197853  0.15947836077022973  0.8844750566761089  1.0000
  N   N2        1.0  0.9000830659148207  0.34052583801964437  0.3844737674128281  1.0000
  N   N3        1.0  0.9000805624388448  0.8405207463647674  0.11552777786430816  1.0000
  N   N4        1.0  0.0999282442380149  0.6594704746733769  0.6155260511009712  1.0000
  N   N5        1.0  0.3408987557171629  0.6846399526858848  0.315222963668944  1.0000
  N   N6        1.0  0.6590923132612191  0.8153571847518322  0.8152255534656373  1.0000
  N   N7        1.0  0.6590989234068659  0.3153646163037963  0.6847753468268533  1.0000
  N   N8        1.0  0.34090880234869303  0.18463536437105435  0.18477539605679988  1.0000
