data_image0
_chemical_formula_structural       NiAg2H16C12O10
_chemical_formula_sum              "Ni1 Ag2 H16 C12 O10"
_cell_length_a       6.526239264406848
_cell_length_b       7.03168605888457
_cell_length_c       8.839882881550839
_cell_angle_alpha    92.98399349773933
_cell_angle_beta     102.14620856601788
_cell_angle_gamma    105.08769926452767

_space_group_name_H-M_alt    "P 1"
_space_group_IT_number       1

loop_
  _space_group_symop_operation_xyz
  'x, y, z'

loop_
  _atom_site_type_symbol
  _atom_site_label
  _atom_site_symmetry_multiplicity
  _atom_site_fract_x
  _atom_site_fract_y
  _atom_site_fract_z
  _atom_site_occupancy
  Ni  Ni1       1.0  0.49999988854563077  0.5000013174124902  0.49999964195237817  1.0000
  Ag  Ag1       1.0  0.9874497817723055  0.8240544207107304  0.5691307794420766  1.0000
  Ag  Ag2       1.0  0.012552895538448199  0.1759422910525998  0.4308687106086636  1.0000
  H   H1        1.0  0.7372400387058989  0.4924528025514547  0.2965307670192344  1.0000
  H   H2        1.0  0.2627608554465866  0.5075483520609795  0.7034686304624173  1.0000
  H   H3        1.0  0.6016583978984259  0.2708217345398793  0.3066794945860707  1.0000
  H   H4        1.0  0.3983440642794348  0.7291794222840338  0.6933201510571791  1.0000
  H   H5        1.0  0.69091229832393  0.4743696933093132  0.9256904103168392  1.0000
  H   H6        1.0  0.3090881373766692  0.5256299747453852  0.07430998246920949  1.0000
  H   H7        1.0  0.4867821422746132  0.2525420107272964  0.9312645661988623  1.0000
  H   H8        1.0  0.5132183009137137  0.7474576614611194  0.068734696698094  1.0000
  H   H9        1.0  0.7769157812083236  0.1438118629137435  0.10649784305942231  1.0000
  H   H10       1.0  0.22308108245280783  0.8561863265614065  0.8934996590405432  1.0000
  H   H11       1.0  0.9830360159187421  0.3087187580610334  0.03436295703298238  1.0000
  H   H12       1.0  0.016962393304602683  0.6912794212244436  0.9656381828958513  1.0000
  H   H13       1.0  0.6514322687587962  0.927949901702604  0.8554981622460216  1.0000
  H   H14       1.0  0.3485681819172442  0.0720497746195221  0.1444999707618351  1.0000
  H   H15       1.0  0.9167592314435636  0.0359666350898848  0.8223019232149864  1.0000
  H   H16       1.0  0.08324166270891457  0.9640345195225494  0.17769747426667237  1.0000
  C   C1        1.0  0.8478748836614329  0.3607677192327401  0.6943735018527943  1.0000
  C   C2        1.0  0.15211547030214234  0.6392348940559245  0.3056265528605734  1.0000
  C   C3        1.0  0.6748925102992374  0.21106026400888572  0.755747328018252  1.0000
  C   C4        1.0  0.3251083838532409  0.7889408906035555  0.24425206946340683  1.0000
  C   C5        1.0  0.45231611893893836  0.12307087620789763  0.6459209244753905  1.0000
  C   C6        1.0  0.5476847677258264  0.8769302742708192  0.3540796028953608  1.0000
  C   C7        1.0  0.6521804582353496  0.3124608029281148  0.9142938733074643  1.0000
  C   C8        1.0  0.34781840943988135  0.6875388629151049  0.08570627131698672  1.0000
  C   C9        1.0  0.8161973995630518  0.21060687827173305  0.0033859435966477115  1.0000
  C   C10       1.0  0.1838010171480136  0.7893913051474614  0.9966140664431007  1.0000
  C   C11       1.0  0.7747385028358024  0.0669253168599511  0.8548345136877555  1.0000
  C   C12       1.0  0.2252639518543376  0.9330758358302517  0.14516626184459366  1.0000
  O   O1        1.0  0.7962738393815342  0.5064560166573031  0.6292583886126337  1.0000
  O   O2        1.0  0.20372861530860586  0.4935451360328926  0.3707423869197156  1.0000
  O   O3        1.0  0.0383901026755709  0.3408224812742802  0.7194551636192087  1.0000
  O   O4        1.0  0.9616177446509013  0.6591757278149473  0.2805429457228357  1.0000
  O   O5        1.0  0.3766007804431126  0.2179482405893084  0.5379625862646263  1.0000
  O   O6        1.0  0.6233978646114977  0.7820558661807766  0.4620388438414266  1.0000
  O   O7        1.0  0.33947588629546044  0.9566153226736348  0.6723627735847586  1.0000
  O   O8        1.0  0.6605254588211835  0.04338731436281761  0.3276367584815958  1.0000
  O   O9        1.0  0.589450632905006  0.40754130055555754  0.3019469703015288  1.0000
  O   O10       1.0  0.4105498027955932  0.5924583674991409  0.69805342248452  1.0000
