data_image0
_chemical_formula_structural       Ag4H36C56N16O24
_chemical_formula_sum              "Ag4 H36 C56 N16 O24"
_cell_length_a       6.425741307035856
_cell_length_b       10.35252813749858
_cell_length_c       22.76795974742546
_cell_angle_alpha    99.57723472153026
_cell_angle_beta     89.9996948512064
_cell_angle_gamma    90.00028148449488

_space_group_name_H-M_alt    "P 1"
_space_group_IT_number       1

loop_
  _space_group_symop_operation_xyz
  'x, y, z'

loop_
  _atom_site_type_symbol
  _atom_site_label
  _atom_site_symmetry_multiplicity
  _atom_site_fract_x
  _atom_site_fract_y
  _atom_site_fract_z
  _atom_site_occupancy
  Ag  Ag1       1.0  0.06983799957364312  0.5711465727848334  0.555592668603424  1.0000
  Ag  Ag2       1.0  0.569839881790493  0.42884951995852555  0.9444064093807542  1.0000
  Ag  Ag3       1.0  0.930168790434834  0.42885066031830377  0.44440883195544245  1.0000
  Ag  Ag4       1.0  0.43016690823685627  0.5711496714578743  0.0555939214200123  1.0000
  H   H1        1.0  0.03316323369504201  0.7258834352574226  0.333633160531285  1.0000
  H   H2        1.0  0.5331660218574612  0.2741198001172123  0.16636381975971656  1.0000
  H   H3        1.0  0.966838887623112  0.27411967455721953  0.6663674661729431  1.0000
  H   H4        1.0  0.46683143077881084  0.725880367333012  0.8336313141890556  1.0000
  H   H5        1.0  0.43623249651891177  0.3843409127228269  0.5383957946373101  1.0000
  H   H6        1.0  0.9362324322599064  0.6156570950451297  0.9616072701851194  1.0000
  H   H7        1.0  0.5637711810712319  0.615664154518214  0.4616023445994982  1.0000
  H   H8        1.0  0.0637696890218535  0.3843450375386865  0.0383967964328136  1.0000
  H   H9        1.0  0.5331602054471462  0.5383301602476606  0.5641876282543734  1.0000
  H   H10       1.0  0.03316271534855989  0.46166682112385626  0.9358150855933899  1.0000
  H   H11       1.0  0.4668356909208952  0.46166413018686103  0.4358079403169981  1.0000
  H   H12       1.0  0.9668425184013145  0.5383274737667207  0.06418707151338049  1.0000
  H   H13       1.0  0.34838304221532473  0.23219984364091317  0.6037275223826767  1.0000
  H   H14       1.0  0.8483838704131375  0.7677940203720438  0.8962727260904089  1.0000
  H   H15       1.0  0.6516221915506009  0.7677993492548936  0.3962750045996088  1.0000
  H   H16       1.0  0.15162136334543422  0.23220419321899755  0.10373016615287159  1.0000
  H   H17       1.0  0.25066415050633145  0.12062919000695867  0.33122809859391106  1.0000
  H   H18       1.0  0.7506654989677273  0.8793716621701009  0.1687714497827884  1.0000
  H   H19       1.0  0.7493364145730226  0.8793719600110496  0.66877150168893  1.0000
  H   H20       1.0  0.24933350984887434  0.1206265499316217  0.8312292462840671  1.0000
  H   H21       1.0  0.6403802343696227  0.5585375418238385  0.7676205086663117  1.0000
  H   H22       1.0  0.14037242051099946  0.44145383628148244  0.73238381719964  1.0000
  H   H23       1.0  0.3596234432084771  0.44147144559906326  0.23238056188751696  1.0000
  H   H24       1.0  0.859612582119169  0.5585482965768306  0.2676206886655947  1.0000
  H   H25       1.0  0.23872492569785203  0.9644150409189789  0.49607820909852757  1.0000
  H   H26       1.0  0.7387304355503019  0.035585781174674494  0.0039217941363674  1.0000
  H   H27       1.0  0.7612849768163273  0.03558708960079569  0.5039227828616077  1.0000
  H   H28       1.0  0.2612747982423897  0.9644114501488088  0.9960770710069083  1.0000
  H   H29       1.0  0.39850993161910964  0.17216662458762497  0.703171305431347  1.0000
  H   H30       1.0  0.8985053366952584  0.8278312853940761  0.7968291733448255  1.0000
  H   H31       1.0  0.6014875209688669  0.8278276673302611  0.2968264593195116  1.0000
  H   H32       1.0  0.1014827784113166  0.1721630091784334  0.2031725445370469  1.0000
  H   H33       1.0  0.5930405726295619  0.6176976919066276  0.6677431713610317  1.0000
  H   H34       1.0  0.0930412931441396  0.38228768812521696  0.8322607726019554  1.0000
  H   H35       1.0  0.4069537674351835  0.3822926836770577  0.3322573721441486  1.0000
  H   H36       1.0  0.9069623843567598  0.6177066073559274  0.1677422629780381  1.0000
  C   C1        1.0  0.09134966453985531  0.818816692196755  0.3572045481773003  1.0000
  C   C2        1.0  0.5913568250584336  0.18118767116352794  0.1427928691736753  1.0000
  C   C3        1.0  0.9086540130189745  0.18118641761986956  0.6427960785259117  1.0000
  C   C4        1.0  0.40864840877614483  0.818813476490199  0.8572032172173036  1.0000
  C   C5        1.0  0.41284558860068904  0.3033855829629744  0.6396117675142321  1.0000
  C   C6        1.0  0.9128356329671874  0.6966074651942192  0.8603878833928177  1.0000
  C   C7        1.0  0.587159645169386  0.6966136096365503  0.36039032023195716  1.0000
  C   C8        1.0  0.08716026334504079  0.3033887888865649  0.1396144216702737  1.0000
  C   C9        1.0  0.2147019962417289  0.041223403912354704  0.3553438086149255  1.0000
  C   C10       1.0  0.7147028778937141  0.9587802949520635  0.14465513027871418  1.0000
  C   C11       1.0  0.7853016813263379  0.9587787254143832  0.6446554264048813  1.0000
  C   C12       1.0  0.28528834973931083  0.0412188955556942  0.8553438828239308  1.0000
  C   C13       1.0  0.5793351943438126  0.4869097724225853  0.7313554627715817  1.0000
  C   C14       1.0  0.07932882322667471  0.5130863480356852  0.7686488736222542  1.0000
  C   C15       1.0  0.42066537070971316  0.5130923592704162  0.2686472861390712  1.0000
  C   C16       1.0  0.9206701855622227  0.48691480553568306  0.23135599749480923  1.0000
  C   C17       1.0  0.20875991156565732  0.952007251034921  0.44848577246941795  1.0000
  C   C18       1.0  0.7087661774778697  0.0479944735118352  0.05151302624688009  1.0000
  C   C19       1.0  0.7912515472135483  0.04799977689951619  0.5515147108930165  1.0000
  C   C20       1.0  0.2912390563240593  0.952001777321776  0.9484844472129835  1.0000
  C   C21       1.0  0.09163784706515091  0.718598834537687  0.4501747604292348  1.0000
  C   C22       1.0  0.5916444515854026  0.2814035697606556  0.04982163012255109  1.0000
  C   C23       1.0  0.9083658304968909  0.281405254879978  0.5498259402490788  1.0000
  C   C24       1.0  0.40835922600903274  0.7185926787007517  0.9501723294495291  1.0000
  C   C25       1.0  0.5276751793520091  0.3603530097597271  0.7420128717408474  1.0000
  C   C26       1.0  0.027670019720197597  0.6396419972555947  0.7579879443955589  1.0000
  C   C27       1.0  0.4723222732865366  0.6396491171888671  0.2579828493942244  1.0000
  C   C28       1.0  0.9723258765952494  0.360355236426237  0.2420144346426341  1.0000
  C   C29       1.0  0.4418236841396563  0.26939752108532383  0.695339321600933  1.0000
  C   C30       1.0  0.9418166089374438  0.7305975615074232  0.8046626355114056  1.0000
  C   C31       1.0  0.558178437149607  0.7305967723198988  0.3046606393273734  1.0000
  C   C32       1.0  0.058176174887414306  0.26940065266032315  0.19534113521222446  1.0000
  C   C33       1.0  0.47096711515781925  0.42843241562120943  0.6282873604328216  1.0000
  C   C34       1.0  0.9709621724598706  0.5715607819413364  0.8717144105880124  1.0000
  C   C35       1.0  0.5290318936578444  0.5715667763778356  0.3717138488452321  1.0000
  C   C36       1.0  0.0290368363327786  0.42843645204073516  0.1282884076842379  1.0000
  C   C37       1.0  0.552014492926986  0.5201092300128919  0.6755275086852706  1.0000
  C   C38       1.0  0.05201458318995831  0.4798770237276386  0.824474366763411  1.0000
  C   C39       1.0  0.44797829089614544  0.47988212546614034  0.32447354803213807  1.0000
  C   C40       1.0  0.9479890943090723  0.5201192315481578  0.1755296952389926  1.0000
  C   C41       1.0  0.24887806864489187  0.05327101640441609  0.41643902195433913  1.0000
  C   C42       1.0  0.7488800084677719  0.9467298318204271  0.0835614072316062  1.0000
  C   C43       1.0  0.7511224964454328  0.9467360118124335  0.5835619006513184  1.0000
  C   C44       1.0  0.251119000346563  0.053266420782925594  0.9164387016489427  1.0000
  C   C45       1.0  0.13037810487174542  0.8334258887902523  0.4183763664325681  1.0000
  C   C46       1.0  0.6303894170516317  0.16657759548561296  0.0816226828086144  1.0000
  C   C47       1.0  0.8696302414113931  0.16657918053068238  0.5816248474538952  1.0000
  C   C48       1.0  0.3696158167516331  0.8334215947436904  0.918375891048761  1.0000
  C   C49       1.0  0.1340536062895197  0.9222820805809632  0.3270701340845577  1.0000
  C   C50       1.0  0.6340562591530984  0.07772337224002261  0.1729290583023868  1.0000
  C   C51       1.0  0.8659500712693102  0.0777210292356614  0.6729304926186542  1.0000
  C   C52       1.0  0.36593652473116833  0.9222777771755304  0.8270696635133489  1.0000
  C   C53       1.0  0.556723299564986  0.3290785378695134  0.7995383721782613  1.0000
  C   C54       1.0  0.0567148076799739  0.6709243852095524  0.700470903995793  1.0000
  C   C55       1.0  0.44327104057601474  0.6709275095532518  0.2004607195119661  1.0000
  C   C56       1.0  0.9432530762682276  0.32907481060150445  0.2995360153719417  1.0000
  N   N1        1.0  0.0956741325230581  0.9033086859228946  0.2625513522607291  1.0000
  N   N2        1.0  0.5956710490708303  0.0966966683273185  0.2374465726487429  1.0000
  N   N3        1.0  0.9043264325447923  0.09669148508663028  0.73744905251921  1.0000
  N   N4        1.0  0.40431862235416116  0.9033074189985796  0.7625510533860335  1.0000
  N   N5        1.0  0.44472955731825436  0.4617229940786984  0.5724908825439597  1.0000
  N   N6        1.0  0.9447248509243026  0.5382750356043999  0.9275126103975354  1.0000
  N   N7        1.0  0.5552772327017337  0.5382752180329221  0.42750981351780126  1.0000
  N   N8        1.0  0.0552850515470595  0.4617241584824612  0.0724916735260948  1.0000
  N   N9        1.0  0.32987748039263215  0.17754068872167747  0.4480795298654313  1.0000
  N   N10       1.0  0.8298774699778592  0.8224593848556552  0.05191896239865911  1.0000
  N   N11       1.0  0.6701277534257458  0.822464379410185  0.5519199270786642  1.0000
  N   N12       1.0  0.17012776382406258  0.17753686597794882  0.9480785110612115  1.0000
  N   N13       1.0  0.5828520332499282  0.30580063552905307  0.8476356593414208  1.0000
  N   N14       1.0  0.0828570859333198  0.6941925494615901  0.6523601050312493  1.0000
  N   N15       1.0  0.4171438631858209  0.6941965895607183  0.1523539818498492  1.0000
  N   N16       1.0  0.9171341417121467  0.3058066401573356  0.34763759036309233  1.0000
  O   O1        1.0  0.11276803332049921  0.7392211306499306  0.5064826747711564  1.0000
  O   O2        1.0  0.6127692024417115  0.26077800926250205  0.9935152512481125  1.0000
  O   O3        1.0  0.8872263067869143  0.26078099985003417  0.49351831719916117  1.0000
  O   O4        1.0  0.3872282501596445  0.7392153018692297  0.006480682583237803  1.0000
  O   O5        1.0  0.38088745964126497  0.18359396570468078  0.5011970162993435  1.0000
  O   O6        1.0  0.8808867385683001  0.8164048778492088  0.9988018025674562  1.0000
  O   O7        1.0  0.6191208866622161  0.8164071828418356  0.49880038779789965  1.0000
  O   O8        1.0  0.1191231639381201  0.18359235407277197  0.0011979410449641029  1.0000
  O   O9        1.0  0.042477653709887896  0.6126161795945606  0.41669135387449774  1.0000
  O   O10       1.0  0.5424844714692797  0.387387079193843  0.0833051749880198  1.0000
  O   O11       1.0  0.9575213551531406  0.3873898678341448  0.5833077378126745  1.0000
  O   O12       1.0  0.4575223186055696  0.6126101491688445  0.9166892977932264  1.0000
  O   O13       1.0  0.9937866743775816  0.8060214449758761  0.24025885418066642  1.0000
  O   O14       1.0  0.493781037113486  0.1939849239372222  0.2597407459025618  1.0000
  O   O15       1.0  0.006212334440356002  0.1939797065215387  0.7597429422836938  1.0000
  O   O16       1.0  0.506211746795131  0.8060211228910106  0.7402574673164821  1.0000
  O   O17       1.0  0.16724779467383402  0.9857315860654836  0.23415492560638998  1.0000
  O   O18       1.0  0.6672404043741906  0.014273949739560997  0.2658420271655046  1.0000
  O   O19       1.0  0.8327558828900833  0.014270543557529398  0.7658447486495132  1.0000
  O   O20       1.0  0.33274771081935484  0.9857291570944752  0.7341542071868828  1.0000
  O   O21       1.0  0.34188295451309614  0.2715523095867239  0.42073044820670447  1.0000
  O   O22       1.0  0.841884789494287  0.7284487747401371  0.07926898079195868  1.0000
  O   O23       1.0  0.6581207230668724  0.728454718041526  0.5792695959247139  1.0000
  O   O24       1.0  0.15811421932552608  0.2715504169626328  0.9207317892499985  1.0000
