data_image0
_chemical_formula_structural       Zn2H34C38I4N2O12
_chemical_formula_sum              "Zn2 H34 C38 I4 N2 O12"
_cell_length_a       9.5879080360986
_cell_length_b       10.949081845018029
_cell_length_c       16.102659691148286
_cell_angle_alpha    93.04603355871039
_cell_angle_beta     86.31825981356832
_cell_angle_gamma    87.74289645462515

_space_group_name_H-M_alt    "P 1"
_space_group_IT_number       1

loop_
  _space_group_symop_operation_xyz
  'x, y, z'

loop_
  _atom_site_type_symbol
  _atom_site_label
  _atom_site_symmetry_multiplicity
  _atom_site_fract_x
  _atom_site_fract_y
  _atom_site_fract_z
  _atom_site_occupancy
  Zn  Zn1       1.0  0.3568791687799191  0.5073768091526035  0.5022521565032252  1.0000
  Zn  Zn2       1.0  0.6438470844043209  0.49727639673439944  0.49577884608978456  1.0000
  H   H1        1.0  0.6937838672968298  0.37384566197134467  0.9218517421088636  1.0000
  H   H2        1.0  0.2988503895029099  0.6037887159220929  0.07376718422896292  1.0000
  H   H3        1.0  0.8466775555665932  0.5386358773609885  0.6250917766486239  1.0000
  H   H4        1.0  0.15415270274872483  0.4663608388847608  0.37215038767496383  1.0000
  H   H5        1.0  0.11472386552277669  0.5456610858732772  0.6275332301420349  1.0000
  H   H6        1.0  0.8862691259734845  0.45927207549061677  0.3697300011405958  1.0000
  H   H7        1.0  0.10723150851117681  0.4549168786720088  0.0444865839567186  1.0000
  H   H8        1.0  0.2087377470531706  0.3208163714489843  0.06529942617904543  1.0000
  H   H9        1.0  0.9962492811944583  0.3315226503880879  0.9311987722015689  1.0000
  H   H10       1.0  0.09345779288225492  0.2001070885598963  0.9567008736807595  1.0000
  H   H11       1.0  0.9757565779273065  0.2165446916675009  0.10303562790412002  1.0000
  H   H12       1.0  0.850291106467779  0.20450342002829558  0.027260721215171212  1.0000
  H   H13       1.0  0.8775262732334851  0.34874198201129053  0.07769220891542973  1.0000
  H   H14       1.0  0.7854977077990668  0.6614528916855349  0.9340790070097073  1.0000
  H   H15       1.0  0.8875783991615764  0.526900351914307  0.9533621367717799  1.0000
  H   H16       1.0  0.8960748668795445  0.7784241513591826  0.04649520990687962  1.0000
  H   H17       1.0  0.9932457881732261  0.6461743425091839  0.0705619849135317  1.0000
  H   H18       1.0  0.11722367798914493  0.6361048480431961  0.9255174244082411  1.0000
  H   H19       1.0  0.141930869755214  0.7779830667073925  0.9798690603148119  1.0000
  H   H20       1.0  0.0197389376847283  0.7696665512785403  0.9020175340474523  1.0000
  H   H21       1.0  0.9158513210636772  0.19105449436182198  0.4417361330391715  1.0000
  H   H22       1.0  0.7504290593401137  0.22189727464091652  0.400745339973092  1.0000
  H   H23       1.0  0.9306785830216384  0.9826771561746169  0.3793076266513822  1.0000
  H   H24       1.0  0.7533870883579042  0.9908358990849989  0.3552656871319044  1.0000
  H   H25       1.0  0.8015999605944585  0.1463060040885651  0.2505085364573389  1.0000
  H   H26       1.0  0.9123955925223443  0.013301154507288996  0.22713235186181185  1.0000
  H   H27       1.0  0.9803232893350966  0.1465585205478632  0.27352574045189476  1.0000
  H   H28       1.0  0.38582259799779445  0.7454162639395746  0.33760758917537714  1.0000
  H   H29       1.0  0.33977872522473973  0.8896793223530609  0.2962870302593998  1.0000
  H   H30       1.0  0.13136065097078392  0.7057022946113493  0.3603220102133875  1.0000
  H   H31       1.0  0.08749081420564411  0.8458245093825314  0.3170545293904752  1.0000
  H   H32       1.0  0.21267792904687616  0.7704423554474077  0.17945221255470056  1.0000
  H   H33       1.0  0.079969099936946  0.6702310676945089  0.2098891547122932  1.0000
  H   H34       1.0  0.2585939955859615  0.6298088888526222  0.22347696994630445  1.0000
  C   C1        1.0  0.503619439757621  0.2664087889815577  0.48640897217379836  1.0000
  C   C2        1.0  0.4948614233414547  0.7357079916209062  0.49449006358482  1.0000
  C   C3        1.0  0.6185705921576173  0.9356507856449026  0.5102768600271332  1.0000
  C   C4        1.0  0.39632964324200515  0.0632920071009622  0.4449075038601792  1.0000
  C   C5        1.0  0.5011387488315222  0.872121074029714  0.48824117209004925  1.0000
  C   C6        1.0  0.5100960847123021  0.1293590737083719  0.472125546125099  1.0000
  C   C7        1.0  0.9171221604709457  0.5228647444628791  0.5692985090346455  1.0000
  C   C8        1.0  0.08387371792719733  0.48233196413006857  0.4279738292220757  1.0000
  C   C9        1.0  0.06191386005779263  0.527161940316212  0.5704613719250133  1.0000
  C   C10       1.0  0.9391135021869486  0.47821548489476123  0.4267341464048898  1.0000
  C   C11       1.0  0.5173694911051926  0.48533465708417367  0.33505208662675307  1.0000
  C   C12       1.0  0.4867153294031895  0.5107688357606648  0.6611579524153088  1.0000
  C   C13       1.0  0.3740929856015853  0.4401218288406241  0.975673909919486  1.0000
  C   C14       1.0  0.6188208479814961  0.5376116649728572  0.020414493892495503  1.0000
  C   C15       1.0  0.49739617641845524  0.3701332127501047  0.017996722561896702  1.0000
  C   C16       1.0  0.49567530473633786  0.6077193937035119  0.9783550550656487  1.0000
  C   C17       1.0  0.517473596537819  0.4794016615213721  0.24534704721019557  1.0000
  C   C18       1.0  0.4842662031820666  0.5080362802369933  0.7507241945704166  1.0000
  C   C19       1.0  0.38587522656370515  0.5525967414543872  0.039298495935348406  1.0000
  C   C20       1.0  0.6071040383235982  0.4251114866601071  0.956736306183963  1.0000
  C   C21       1.0  0.5063480276467586  0.4839103490478962  0.08303364626205222  1.0000
  C   C22       1.0  0.4864875823242728  0.4941117601245679  0.9129848560248277  1.0000
  C   C23       1.0  0.5141352172133367  0.47991627520379865  0.1699429088636393  1.0000
  C   C24       1.0  0.4824366548701065  0.5009752482839288  0.8259750205399572  1.0000
  C   C25       1.0  0.6290682995960708  0.060409188767636096  0.49524214362182317  1.0000
  C   C26       1.0  0.392421976961394  0.9360867968092282  0.4509310340391082  1.0000
  C   C27       1.0  0.15411249919372946  0.36716262082505585  0.016745790893566002  1.0000
  C   C28       1.0  0.04303037569550841  0.2868334475861687  0.9831301059833777  1.0000
  C   C29       1.0  0.9306037736884676  0.26302468206557716  0.05142988330338481  1.0000
  C   C30       1.0  0.8391739590962998  0.6134031963896048  0.9822205929534678  1.0000
  C   C31       1.0  0.948165347872788  0.6929841652526677  0.018957852686682493  1.0000
  C   C32       1.0  0.06295024654475874  0.7205279175207623  0.9530682429490797  1.0000
  C   C33       1.0  0.8184678627748878  0.1500614671973395  0.4241102877731039  1.0000
  C   C34       1.0  0.8478289259070378  0.044416518990075794  0.3590154557450873  1.0000
  C   C35       1.0  0.8876418249708422  0.0902644000401196  0.2730189484976933  1.0000
  C   C36       1.0  0.30428080503389765  0.819430548266304  0.3387215208219275  1.0000
  C   C37       1.0  0.16666147565317857  0.7699177254726379  0.313879590770263  1.0000
  C   C38       1.0  0.18031696617815376  0.7063702152294695  0.22678321656650982  1.0000
  I   I1        1.0  0.5003696130810482  0.184438015717248  0.048846805772370806  1.0000
  I   I2        1.0  0.4924051629655465  0.7940335521860863  0.9493437073826385  1.0000
  I   I3        1.0  0.7892181075116298  0.8563902260904686  0.5679328228415487  1.0000
  I   I4        1.0  0.22975820219537726  0.1406030368720224  0.38202305621565813  1.0000
  N   N1        1.0  0.14333573820646714  0.5071097353997089  0.4998141675833168  1.0000
  N   N2        1.0  0.8576253822292158  0.49826647640456667  0.4973941543298324  1.0000
  O   O1        1.0  0.3863827785632381  0.3220172055082173  0.4796415849949725  1.0000
  O   O2        1.0  0.6063327132428996  0.6739628779710076  0.4694895518374267  1.0000
  O   O3        1.0  0.6129125408789305  0.3182716274395788  0.5084905836704223  1.0000
  O   O4        1.0  0.38154341197305547  0.6921426204576734  0.5219750309993998  1.0000
  O   O5        1.0  0.40123967932859733  0.5197493872166491  0.3743061544095881  1.0000
  O   O6        1.0  0.6032324225193407  0.5325478640976015  0.623271013385555  1.0000
  O   O7        1.0  0.631708757514744  0.4574114533275375  0.3667635175157927  1.0000
  O   O8        1.0  0.3722218343283359  0.49012644313508963  0.6279797403790611  1.0000
  O   O9        1.0  0.25433168632257264  0.3924700046432007  0.9490271666292857  1.0000
  O   O10       1.0  0.7377190796752444  0.5849751584035515  0.04845264689777912  1.0000
  O   O11       1.0  0.7562388754787293  0.109633337049317  0.5024374275566573  1.0000
  O   O12       1.0  0.28150491869506317  0.8748030097338884  0.42253131724693566  1.0000
