data_image0
_chemical_formula_structural       Co2H40C38N4O18
_chemical_formula_sum              "Co2 H40 C38 N4 O18"
_cell_length_a       7.284705165310086
_cell_length_b       10.704163840179792
_cell_length_c       13.144
_cell_angle_alpha    71.84724007763552
_cell_angle_beta     80.47117981609598
_cell_angle_gamma    84.24959548012994

_space_group_name_H-M_alt    "P 1"
_space_group_IT_number       1

loop_
  _space_group_symop_operation_xyz
  'x, y, z'

loop_
  _atom_site_type_symbol
  _atom_site_label
  _atom_site_symmetry_multiplicity
  _atom_site_fract_x
  _atom_site_fract_y
  _atom_site_fract_z
  _atom_site_occupancy
  Co  Co1       1.0  0.5536825127340562  0.12208754685998711  0.298948123379887  1.0000
  Co  Co2       1.0  0.44631406282737623  0.8779241826528619  0.7010563663429179  1.0000
  H   H1        1.0  0.3319079915243676  0.0851569819566365  0.49105599044847975  1.0000
  H   H2        1.0  0.6680926152419175  0.9148567165037705  0.5089468690536592  1.0000
  H   H3        1.0  0.19881397553201197  0.1042075340704329  0.3966540832033587  1.0000
  H   H4        1.0  0.8011787134534173  0.8958002575473003  0.6033494798189238  1.0000
  H   H5        1.0  0.8148911569060642  0.0467369082243891  0.18675439245386363  1.0000
  H   H6        1.0  0.18510578022749508  0.9532698989195652  0.8132429441625745  1.0000
  H   H7        1.0  0.8961360546887605  0.1379621865599958  0.23882809012629738  1.0000
  H   H8        1.0  0.10384557105454918  0.8620446205839585  0.7611729336912987  1.0000
  H   H9        1.0  0.3611253094893386  0.8765646243628992  0.31586435928386436  1.0000
  H   H10       1.0  0.6388633303207598  0.12342249330545489  0.6841440598387932  1.0000
  H   H11       1.0  0.18595679945059368  0.7950708693410604  0.204590441878139  1.0000
  H   H12       1.0  0.81408603591278  0.2048985277992514  0.7953992416806343  1.0000
  H   H13       1.0  0.14280950011320215  0.9377211200406848  0.016401058609211754  1.0000
  H   H14       1.0  0.8572334978495063  0.0622650131538904  0.9835934933963768  1.0000
  H   H15       1.0  0.4617156428156477  0.2248095099966321  0.06824049092906388  1.0000
  H   H16       1.0  0.5382748407960491  0.7751904058308625  0.9317804887477195  1.0000
  H   H17       1.0  0.7260042264513941  0.3807452343552669  0.21574161137095163  1.0000
  H   H18       1.0  0.2739740368873669  0.6192694485789261  0.7842485930524745  1.0000
  H   H19       1.0  0.6465589151056648  0.6156839950727289  0.11517169370893042  1.0000
  H   H20       1.0  0.3534178116596749  0.384332656809022  0.8848006536519151  1.0000
  H   H21       1.0  0.3280482771435871  0.6770472302442769  0.062051149856351545  1.0000
  H   H22       1.0  0.6719238762749667  0.3229369340027333  0.9379146438030901  1.0000
  H   H23       1.0  0.18781917214487004  0.2745815508842782  0.2264470611334986  1.0000
  H   H24       1.0  0.8121617124837001  0.7254163959956514  0.7735562787083905  1.0000
  H   H25       1.0  0.9336249014589697  0.1250439216208648  0.5705271103195172  1.0000
  H   H26       1.0  0.06636704641172028  0.8749550097328509  0.42947876872705143  1.0000
  H   H27       1.0  0.057478518402291505  0.2578159624135097  0.4761940301823344  1.0000
  H   H28       1.0  0.9425307113186391  0.7421750931499602  0.5238107399280167  1.0000
  H   H29       1.0  0.6089675666024092  0.47722563372769133  0.6226007448981575  1.0000
  H   H30       1.0  0.3910318651625886  0.5227851113113786  0.37739384211003113  1.0000
  H   H31       1.0  0.572441870541887  0.7155509842478196  0.5260613896947105  1.0000
  H   H32       1.0  0.4275771207614909  0.2844587763174715  0.47393697816782787  1.0000
  H   H33       1.0  0.9235116952318307  0.6551702539085511  0.24586324195053777  1.0000
  H   H34       1.0  0.07652803061122881  0.3448414756042979  0.7541441360466761  1.0000
  H   H35       1.0  0.9573276991556766  0.4185824996098475  0.33997662409441176  1.0000
  H   H36       1.0  0.042713490946383104  0.5814282454292226  0.6600301085373488  1.0000
  H   H37       1.0  0.2381532024523452  0.1518836302807927  0.8761477232771212  1.0000
  H   H38       1.0  0.7618554307827025  0.8480965960711018  0.12385680593634152  1.0000
  H   H39       1.0  0.04463706333979189  0.5885735561233432  0.061490957851873404  1.0000
  H   H40       1.0  0.9552960433164088  0.41141159259745314  0.9385200126802715  1.0000
  C   C1        1.0  0.34198506334277573  0.9360612972478606  0.2342078267298362  1.0000
  C   C2        1.0  0.6580195386874123  0.0639169601564689  0.7658059407383675  1.0000
  C   C3        1.0  0.2449332303560894  0.891414426858084  0.17077593383060474  1.0000
  C   C4        1.0  0.7550927026996632  0.1085766287053858  0.8292234997635077  1.0000
  C   C5        1.0  0.21989026726583918  0.9706685040307762  0.0669601922809306  1.0000
  C   C6        1.0  0.7801501637510029  0.0293146757424623  0.9330406702037236  1.0000
  C   C7        1.0  0.2944278915348021  0.0953600682109581  0.029409792730490412  1.0000
  C   C8        1.0  0.70558712290768  0.904628033931175  0.9705997608059249  1.0000
  C   C9        1.0  0.3969338872339776  0.1305628816306736  0.09684104651882558  1.0000
  C   C10       1.0  0.6030702809096551  0.8694212826163364  0.9031758268924789  1.0000
  C   C11       1.0  0.587268880041904  0.4117689565795358  0.19399899932142264  1.0000
  C   C12       1.0  0.41268629875459334  0.5882378505644112  0.805989234885068  1.0000
  C   C13       1.0  0.5434609871958143  0.5414497497034745  0.13685712558184093  1.0000
  C   C14       1.0  0.4565119253079502  0.4585619798093745  0.8631221462587957  1.0000
  C   C15       1.0  0.3656419667001245  0.5762912612459843  0.10785420517084532  1.0000
  C   C16       1.0  0.6343088916338144  0.4237175148455208  0.8921187097998313  1.0000
  C   C17       1.0  0.23604181740655153  0.47891400626012626  0.1383261258581356  1.0000
  C   C18       1.0  0.7639261781487717  0.5210888629887052  0.8616626923622661  1.0000
  C   C19       1.0  0.2877931808967347  0.3516067794193987  0.1993720676909588  1.0000
  C   C20       1.0  0.7121830940115714  0.6483970743032117  0.8006256315779224  1.0000
  C   C21       1.0  0.8588191295998797  0.1780824465100395  0.4116008264245181  1.0000
  C   C22       1.0  0.14116381577357365  0.8219253451076867  0.5884036305556251  1.0000
  C   C23       1.0  0.9197781497005053  0.2159600751895994  0.5034692984399668  1.0000
  C   C24       1.0  0.08022214983759571  0.7840388561641163  0.4965320103399621  1.0000
  C   C25       1.0  0.7857351650635422  0.43248031595992836  0.48864004253152166  1.0000
  C   C26       1.0  0.21428397086869208  0.5675274756578048  0.511358050820057  1.0000
  C   C27       1.0  0.6797316263498416  0.5180379787449638  0.5404459939467401  1.0000
  C   C28       1.0  0.32027930254383813  0.4819678439252044  0.4595541127502969  1.0000
  C   C29       1.0  0.6611021461897479  0.6513445888000717  0.4863035638531342  1.0000
  C   C30       1.0  0.3389169897424864  0.3486632028176615  0.5136960511052563  1.0000
  C   C31       1.0  0.7493259184041816  0.7031781177827199  0.3793146795588812  1.0000
  C   C32       1.0  0.2507021477108751  0.2968217980447747  0.6206876359265293  1.0000
  C   C33       1.0  0.8546904703311711  0.6165414717349691  0.3286201765621399  1.0000
  C   C34       1.0  0.1453444108778754  0.3834604130400763  0.671384057303122  1.0000
  C   C35       1.0  0.8737711617999863  0.4824738634480426  0.3819518732283456  1.0000
  C   C36       1.0  0.1262564704285154  0.5175319592221257  0.6180565914137972  1.0000
  C   C37       1.0  0.7365075691564655  0.8464554782800988  0.32200051304879207  1.0000
  C   C38       1.0  0.2635153810373509  0.1535572357065291  0.6779959814468555  1.0000
  N   N1        1.0  0.4180070237864157  0.0545871021448789  0.19714146313148717  1.0000
  N   N2        1.0  0.5819672626914354  0.9454059223661558  0.8028667741964952  1.0000
  N   N3        1.0  0.46111015491124613  0.3184585627782184  0.22492110929444917  1.0000
  N   N4        1.0  0.5388787741565579  0.68152461699502  0.7750875216096985  1.0000
  O   O1        1.0  0.27211813260630885  0.1866739491867548  0.9341961281991897  1.0000
  O   O2        1.0  0.7279223707249614  0.8133082461127046  0.06581486787599293  1.0000
  O   O3        1.0  0.05925956494196778  0.5003233575504282  0.11173149979161683  1.0000
  O   O4        1.0  0.9406908958788875  0.4996529309063504  0.8882702361130439  1.0000
  O   O5        1.0  0.6895738139635694  0.1947604168144039  0.39817111261687893  1.0000
  O   O6        1.0  0.3104267928027227  0.805253281646003  0.6018302252784478  1.0000
  O   O7        1.0  0.9900335545167847  0.1297989299775182  0.35482391841019717  1.0000
  O   O8        1.0  0.00995692909491199  0.8702009858499765  0.6451780411813742  1.0000
  O   O9        1.0  0.7934055744509506  0.3026833549299752  0.5477080374384329  1.0000
  O   O10       1.0  0.20661245879442444  0.6973204987926351  0.45229115620631444  1.0000
  O   O11       1.0  0.8003349319333566  0.8880534333736918  0.22082227528032666  1.0000
  O   O12       1.0  0.1996662533483402  0.1119523892964764  0.779174921357537  1.0000
  O   O13       1.0  0.6649532472643713  0.9258926675758375  0.37545874502797716  1.0000
  O   O14       1.0  0.3350797357991269  0.0741161085156747  0.624543914521972  1.0000
  O   O15       1.0  0.3289510652112284  0.0855419112045581  0.415377518650196  1.0000
  O   O16       1.0  0.6710468299803409  0.9144708027820699  0.5846243178078865  1.0000
  O   O17       1.0  0.8095263862250802  0.1416775906051342  0.18618241959399032  1.0000
  O   O18       1.0  0.1904638081289178  0.8583262631174761  0.8138170458058624  1.0000
