data_image0
_chemical_formula_structural       H18Pb2C26S2N2O10
_chemical_formula_sum              "H18 Pb2 C26 S2 N2 O10"
_cell_length_a       7.891382681759699
_cell_length_b       8.24322554748259
_cell_length_c       11.546425794347803
_cell_angle_alpha    107.9787292998989
_cell_angle_beta     101.96748961016117
_cell_angle_gamma    102.06280543109347

_space_group_name_H-M_alt    "P 1"
_space_group_IT_number       1

loop_
  _space_group_symop_operation_xyz
  'x, y, z'

loop_
  _atom_site_type_symbol
  _atom_site_label
  _atom_site_symmetry_multiplicity
  _atom_site_fract_x
  _atom_site_fract_y
  _atom_site_fract_z
  _atom_site_occupancy
  H   H1        1.0  0.9586589363254063  0.07691298431375766  0.4237728973975764  1.0000
  H   H2        1.0  0.04133935585218045  0.9230774215767139  0.5762189989195577  1.0000
  H   H3        1.0  0.641093593700873  0.9665485911382913  0.2829533611405851  1.0000
  H   H4        1.0  0.35890853646380083  0.033445884544057905  0.7170460127498047  1.0000
  H   H5        1.0  0.8448770735894087  0.12891286691925066  0.003852455033836622  1.0000
  H   H6        1.0  0.1551146979778722  0.8710857808453198  0.9961463220122798  1.0000
  H   H7        1.0  0.15595374719853797  0.23232730579163527  0.15622410047053856  1.0000
  H   H8        1.0  0.8440384773979447  0.7676686098345938  0.8437715623865858  1.0000
  H   H9        1.0  0.42919277389646027  0.9265991117940756  0.09472997874985375  1.0000
  H   H10       1.0  0.5707976677430082  0.07340359062921918  0.9052703357300518  1.0000
  H   H11       1.0  0.016717169258662137  0.39367973071972523  0.5862358444445945  1.0000
  H   H12       1.0  0.9832823042464935  0.6063228845761798  0.4137683434641204  1.0000
  H   H13       1.0  0.9782640817808854  0.3196999516445301  0.9344318570606306  1.0000
  H   H14       1.0  0.021741760538226674  0.6803106555453267  0.06557753999374683  1.0000
  H   H15       1.0  0.3008439899058928  0.5014232293963444  0.0418548224372515  1.0000
  H   H16       1.0  0.6991661645990631  0.49858449795045334  0.9581467849913637  1.0000
  H   H17       1.0  0.48272737501258683  0.6230693431246193  0.9169654221875875  1.0000
  H   H18       1.0  0.5172806501621707  0.37693565966531384  0.08303097055767242  1.0000
  Pb  Pb1       1.0  0.3862585977686663  0.22018265882216068  0.43882999121372995  1.0000
  Pb  Pb2       1.0  0.613738240246512  0.7798238785907186  0.5611668577032844  1.0000
  C   C1        1.0  0.928707775189629  0.0852890724275568  0.329512927123318  1.0000
  C   C2        1.0  0.07129139708267476  0.9147000412386459  0.6704822850997517  1.0000
  C   C3        1.0  0.7517196002720397  0.024122161714217296  0.25136867877994024  1.0000
  C   C4        1.0  0.24827441047757054  0.9758669974110459  0.7486240716051357  1.0000
  C   C5        1.0  0.7149622848696069  0.040968454962175806  0.13181179519618524  1.0000
  C   C6        1.0  0.28503468696847994  0.9590260964753411  0.8681868560069506  1.0000
  C   C7        1.0  0.8641619138691538  0.11541599753768138  0.09622913413470972  1.0000
  C   C8        1.0  0.13583030912928265  0.8845799029404873  0.9037656591470482  1.0000
  C   C9        1.0  0.03722517036025151  0.1725627252805779  0.17982370290469166  1.0000
  C   C10       1.0  0.9627708422888474  0.8274412049691334  0.820175938179091  1.0000
  C   C11       1.0  0.5276364719852397  0.9871221476593772  0.05497608577012875  1.0000
  C   C12       1.0  0.47235871369972665  0.012879160279105399  0.9450254779050553  1.0000
  C   C13       1.0  0.3737193346163324  0.5834792026498548  0.6711762130547073  1.0000
  C   C14       1.0  0.6262805823297197  0.41652058961937394  0.3288196432128104  1.0000
  C   C15       1.0  0.262696195809731  0.5119382020752993  0.7443228824132647  1.0000
  C   C16       1.0  0.7373084715740248  0.48806025630133815  0.25567770135099727  1.0000
  C   C17       1.0  0.07976791492674105  0.4147022394988866  0.6851551802733982  1.0000
  C   C18       1.0  0.9202375858133464  0.5852989017811936  0.314846959200935  1.0000
  C   C19       1.0  0.9791650984826744  0.34815219137057335  0.7553384375657048  1.0000
  C   C20       1.0  0.020836499558520072  0.6518531030380358  0.2446683563002666  1.0000
  C   C21       1.0  0.05895028150150242  0.37507278227067786  0.8823080260590076  1.0000
  C   C22       1.0  0.9410559671084471  0.6249390679085493  0.11769649661050612  1.0000
  C   C23       1.0  0.24026548844035742  0.47508795415800614  0.9414820167343481  1.0000
  C   C24       1.0  0.7597412551430053  0.5249171433109935  0.05851854321593917  1.0000
  C   C25       1.0  0.3415348457459473  0.5438489412934827  0.8728070932965297  1.0000
  C   C26       1.0  0.658471101631143  0.4561494072560348  0.1271884536873387  1.0000
  S   S1        1.0  0.7433911722896555  0.23377614431924335  0.6846204191336868  1.0000
  S   S2        1.0  0.2566125858395907  0.766227748037977  0.31538465385782644  1.0000
  N   N1        1.0  0.06948973744213302  0.15903809751159056  0.2952848397509627  1.0000
  N   N2        1.0  0.9305029433796648  0.8409551162723969  0.7047094480679023  1.0000
  O   O1        1.0  0.6466183784926471  0.36890969086743297  0.7053281958890241  1.0000
  O   O2        1.0  0.3533811401528268  0.631088934152707  0.2946768826401894  1.0000
  O   O3        1.0  0.7203598178302784  0.13695287636597434  0.5479549559708518  1.0000
  O   O4        1.0  0.279643069792563  0.863052399103843  0.45205201856693134  1.0000
  O   O5        1.0  0.6996959938977838  0.1075583387120673  0.7492764787324335  1.0000
  O   O6        1.0  0.3003099323097658  0.8924442273340388  0.25073122126146075  1.0000
  O   O7        1.0  0.3206999480804242  0.5135804943779688  0.549211765216356  1.0000
  O   O8        1.0  0.6792969802153976  0.4864180624833736  0.45078686494164805  1.0000
  O   O9        1.0  0.5174286622797907  0.7139191516807556  0.7327429002775647  1.0000
  O   O10       1.0  0.48257557963651015  0.28607788192985584  0.2672521229671362  1.0000
