data_image0
_chemical_formula_structural       Co4H36C32N4O28
_chemical_formula_sum              "Co4 H36 C32 N4 O28"
_cell_length_a       8.78590501611378
_cell_length_b       10.164384474758664
_cell_length_c       11.102187471893435
_cell_angle_alpha    90.07277693093079
_cell_angle_beta     109.24199115289075
_cell_angle_gamma    90.09098282300299

_space_group_name_H-M_alt    "P 1"
_space_group_IT_number       1

loop_
  _space_group_symop_operation_xyz
  'x, y, z'

loop_
  _atom_site_type_symbol
  _atom_site_label
  _atom_site_symmetry_multiplicity
  _atom_site_fract_x
  _atom_site_fract_y
  _atom_site_fract_z
  _atom_site_occupancy
  Co  Co1       1.0  0.8797329431200113  0.6127919308140761  0.5267613650386737  1.0000
  Co  Co2       1.0  0.11853782366948451  0.1117045583032024  0.9732820452794045  1.0000
  Co  Co3       1.0  0.12065559314873302  0.3871687572242024  0.4732518622394366  1.0000
  Co  Co4       1.0  0.8817880726461452  0.888366223952545  0.02665925274542506  1.0000
  H   H1        1.0  0.6186666453889487  0.42437138743809283  0.5359607997241016  1.0000
  H   H2        1.0  0.3695318721305867  0.917644322709492  0.9656709995271697  1.0000
  H   H3        1.0  0.37120777910902086  0.5840425856190307  0.4638515647764124  1.0000
  H   H4        1.0  0.6235965014794475  0.0767327220701404  0.03411061104691986  1.0000
  H   H5        1.0  0.7667368953806174  0.43171425551993536  0.6640324690952398  1.0000
  H   H6        1.0  0.23086188439155816  0.9350887754259813  0.8346955503595341  1.0000
  H   H7        1.0  0.23156627586662634  0.5650075636406768  0.3337144345122241  1.0000
  H   H8        1.0  0.7681495282163553  0.06714743952365859  0.16379846785363852  1.0000
  H   H9        1.0  0.7904195082833637  0.719827618795847  0.7096158620676647  1.0000
  H   H10       1.0  0.20948202526123083  0.21982672406389267  0.7909564009205569  1.0000
  H   H11       1.0  0.21009471732418922  0.27971699376456627  0.29038898437076455  1.0000
  H   H12       1.0  0.7909353208539754  0.7805196301210202  0.20903515583056295  1.0000
  H   H13       1.0  0.9770257267234468  0.7546501492525832  0.7233487264398875  1.0000
  H   H14       1.0  0.0229115917692511  0.2541614142519606  0.7771959580120011  1.0000
  H   H15       1.0  0.0231531695937832  0.2458612312722792  0.27651769770933754  1.0000
  H   H16       1.0  0.9771374564751341  0.7453522751793854  0.2226751114226745  1.0000
  H   H17       1.0  0.5063453916361026  0.30934475590828464  0.963145004239685  1.0000
  H   H18       1.0  0.49324797308496215  0.809803926397599  0.5374804404927647  1.0000
  H   H19       1.0  0.4939366470299618  0.6903750510326033  0.03720394772705049  1.0000
  H   H20       1.0  0.507121778329065  0.1906252575261362  0.46283152050298076  1.0000
  H   H21       1.0  0.6254723991056891  0.38605179976178045  0.3665012716092093  1.0000
  H   H22       1.0  0.3753742733610608  0.8871957283505907  0.13497661378031722  1.0000
  H   H23       1.0  0.3760543397284125  0.6131438831243442  0.6343562631748655  1.0000
  H   H24       1.0  0.6258615982720527  0.1131486590831798  0.8655934502309252  1.0000
  H   H25       1.0  0.9273624926178384  0.518524629691882  0.15300330249046823  1.0000
  H   H26       1.0  0.07353597196190977  0.019517136856890698  0.3486262511784446  1.0000
  H   H27       1.0  0.07281663543859199  0.4812981991027955  0.8470474631214489  1.0000
  H   H28       1.0  0.9267043717743205  0.9807276709318059  0.6512414245652068  1.0000
  H   H29       1.0  0.7914072298770664  0.5337228999060244  0.9287813691471174  1.0000
  H   H30       1.0  0.20968393502855062  0.03441695067498779  0.5729269888198517  1.0000
  H   H31       1.0  0.2087195106602664  0.4658154790235541  0.07114508209094342  1.0000
  H   H32       1.0  0.7900616224914215  0.9659405343840176  0.4267818205710512  1.0000
  H   H33       1.0  0.6314104179617956  0.42282481661114696  0.854950106209401  1.0000
  H   H34       1.0  0.36900596449050493  0.9232949481264398  0.646199237105904  1.0000
  H   H35       1.0  0.3687600255575347  0.5766468537610124  0.14520799815184662  1.0000
  H   H36       1.0  0.6310861632875628  0.0774447360143355  0.3538364877018694  1.0000
  C   C1        1.0  0.5839696562023207  0.34903792206865353  0.053971227689523046  1.0000
  C   C2        1.0  0.4157429051281056  0.8494048822217831  0.4467692032869693  1.0000
  C   C3        1.0  0.4162884922896096  0.6508028305235454  0.9463082357417394  1.0000
  C   C4        1.0  0.584545203915141  0.15078411085509197  0.5534294269304852  1.0000
  C   C5        1.0  0.5510027117107227  0.33728531043079346  0.1676441217685111  1.0000
  C   C6        1.0  0.44859558580342446  0.8376841938748144  0.33300505614023734  1.0000
  C   C7        1.0  0.44937657723538393  0.662522120583091  0.8326962049548217  1.0000
  C   C8        1.0  0.5517954272098322  0.1623770148917245  0.6672512241118511  1.0000
  C   C9        1.0  0.6533688602290937  0.39502564403166907  0.2787018416361846  1.0000
  C   C10       1.0  0.34673119233533367  0.8959152804739359  0.22245865314764765  1.0000
  C   C11       1.0  0.34721403419806773  0.6045330963058361  0.7217432807927369  1.0000
  C   C12       1.0  0.6537954488666813  0.10419423882625979  0.7778066269715681  1.0000
  C   C13       1.0  0.7953407842785297  0.45981067001155645  0.27875670249876816  1.0000
  C   C14       1.0  0.2050244060727451  0.9606495764369498  0.22258817934521605  1.0000
  C   C15       1.0  0.2050131862417643  0.5399385655198826  0.7213938356257971  1.0000
  C   C16       1.0  0.7953547369737209  0.03940849778282278  0.7774162419799283  1.0000
  C   C17       1.0  0.8216531975189268  0.46849953591502913  0.16042417488744587  1.0000
  C   C18       1.0  0.1788960090362508  0.9693746648624639  0.3410148852899511  1.0000
  C   C19       1.0  0.17857660684672544  0.5313135396318386  0.8396971238425622  1.0000
  C   C20       1.0  0.8213505103780251  0.030774790818455206  0.6589607138700657  1.0000
  C   C21       1.0  0.4039999551249592  0.26012319983463783  0.16774678799937703  1.0000
  C   C22       1.0  0.5948614049630405  0.76024262242732  0.3322249883740156  1.0000
  C   C23       1.0  0.5963837803556657  0.7397008909554471  0.8324947662222544  1.0000
  C   C24       1.0  0.4056304284776857  0.2399416345802976  0.6680281621401037  1.0000
  C   C25       1.0  0.7469804317049977  0.43319932250621906  0.931970823393364  1.0000
  C   C26       1.0  0.25351026877918764  0.9338760684256113  0.5692277492494355  1.0000
  C   C27       1.0  0.25323669450128267  0.5663264312098589  0.06810002017646616  1.0000
  C   C28       1.0  0.7466114781715233  0.06656743197969209  0.4307032622041761  1.0000
  C   C29       1.0  0.8672380226473206  0.33689255943313157  0.906439241758328  1.0000
  C   C30       1.0  0.1325299008234353  0.8377028145155591  0.5941597692157148  1.0000
  C   C31       1.0  0.13299711850557114  0.6626646137296746  0.09352211580268491  1.0000
  C   C32       1.0  0.8678734801616416  0.16249883933915749  0.4057342202728692  1.0000
  N   N1        1.0  0.7170941191171563  0.4161814766704379  0.0536148780531249  1.0000
  N   N2        1.0  0.28320627506064966  0.916933320398719  0.44750154743381654  1.0000
  N   N3        1.0  0.28317375672838807  0.5835076826780463  0.9465338234814383  1.0000
  N   N4        1.0  0.717047862412329  0.08338638007974448  0.5525275679424553  1.0000
  O   O1        1.0  0.9053513882615506  0.5085384673979902  0.38098360696186273  1.0000
  O   O2        1.0  0.0952441237374586  0.0092686724231612  0.1206205043967472  1.0000
  O   O3        1.0  0.0951624755704898  0.49125417578397185  0.6191744222123959  1.0000
  O   O4        1.0  0.9052646378116407  0.9907363675786696  0.8793840177104786  1.0000
  O   O5        1.0  0.38527945907281946  0.23698368792027216  0.27375483382355986  1.0000
  O   O6        1.0  0.6142578124610055  0.7384108831109018  0.22626629892359773  1.0000
  O   O7        1.0  0.6149019317497633  0.7628106986914176  0.7264217460057054  1.0000
  O   O8        1.0  0.3859851506392645  0.2615754105761853  0.7739343473608217  1.0000
  O   O9        1.0  0.31187666807459646  0.2255765699193333  0.057442157843155414  1.0000
  O   O10       1.0  0.6855830633671829  0.7240459123368906  0.44227119426826544  1.0000
  O   O11       1.0  0.6886227362884868  0.7741856015077672  0.942769573137696  1.0000
  O   O12       1.0  0.31519848507924303  0.2765773565779526  0.5580078745342263  1.0000
  O   O13       1.0  0.944322012542237  0.2577957959148661  0.9918670870148818  1.0000
  O   O14       1.0  0.05464403646254821  0.7588421883544286  0.5083556463672352  1.0000
  O   O15       1.0  0.0568132912703092  0.7424479979543079  0.008455758662606208  1.0000
  O   O16       1.0  0.9467262071049731  0.2406480929357784  0.49186943982942927  1.0000
  O   O17       1.0  0.8787691027931857  0.3505846833610278  0.7955062153770245  1.0000
  O   O18       1.0  0.12114273916936473  0.851361262998374  0.705161887466403  1.0000
  O   O19       1.0  0.12062479133489035  0.6482829757298346  0.20411688719924112  1.0000
  O   O20       1.0  0.8786155957167381  0.14937397377187983  0.2944785464152275  1.0000
  O   O21       1.0  0.7049112072836082  0.4819702802687971  0.5858795961550527  1.0000
  O   O22       1.0  0.29475847250003545  0.9825285629684827  0.9145599750141216  1.0000
  O   O23       1.0  0.2963030287589064  0.5184057652714174  0.4135468569621211  1.0000
  O   O24       1.0  0.7061258461085982  0.0171577692196223  0.08513395940173041  1.0000
  O   O25       1.0  0.8923182932141457  0.6845783909703939  0.7003874622521595  1.0000
  O   O26       1.0  0.10748942721727421  0.1842695506494323  0.7998614500764206  1.0000
  O   O27       1.0  0.10843142597293111  0.31550262859164485  0.2996934661134675  1.0000
  O   O28       1.0  0.8931059944147393  0.8156480073804531  0.20016749932425892  1.0000
