data_image0
_chemical_formula_structural       Hg8H24C40Br8N48
_chemical_formula_sum              "Hg8 H24 C40 Br8 N48"
_cell_length_a       6.517960368
_cell_length_b       11.630987997
_cell_length_c       23.855
_cell_angle_alpha    90.0
_cell_angle_beta     90.0
_cell_angle_gamma    90.0

_space_group_name_H-M_alt    "P 1"
_space_group_IT_number       1

loop_
  _space_group_symop_operation_xyz
  'x, y, z'

loop_
  _atom_site_type_symbol
  _atom_site_label
  _atom_site_symmetry_multiplicity
  _atom_site_fract_x
  _atom_site_fract_y
  _atom_site_fract_z
  _atom_site_occupancy
  Hg  Hg1       1.0  0.6784254199687398  0.21415119684092335  0.6148367218612449  1.0000
  Hg  Hg2       1.0  0.1784162428647633  0.285850178923539  0.38516243974009967  1.0000
  Hg  Hg3       1.0  0.3215745235718828  0.7141491335166421  0.8851628589394238  1.0000
  Hg  Hg4       1.0  0.821582166453581  0.7858498351436297  0.11483839865856278  1.0000
  Hg  Hg5       1.0  0.321577592016439  0.7858506949158155  0.3851628589394238  1.0000
  Hg  Hg6       1.0  0.8215852348981301  0.7141508530610141  0.6148367218612449  1.0000
  Hg  Hg7       1.0  0.6784192830796272  0.2858493191513531  0.11483839865856278  1.0000
  Hg  Hg8       1.0  0.1784162428647633  0.2141468979799868  0.8851636973380862  1.0000
  H   H1        1.0  0.05319148635854282  0.9184077915612363  0.5471808845105812  1.0000
  H   H2        1.0  0.5531899239065794  0.5815937564156002  0.452817857891425  1.0000
  H   H3        1.0  0.9468084571820796  0.4184098548855175  0.9528174386921009  1.0000
  H   H4        1.0  0.4468161565231555  0.0815915208789448  0.0471838189058928  1.0000
  H   H5        1.0  0.9468099914043506  0.0815932404233237  0.4528161810941072  1.0000
  H   H6        1.0  0.44682075918998276  0.4184089951133316  0.5471825613078991  1.0000
  H   H7        1.0  0.05319302058082091  0.5815894575546636  0.0471813037099125  1.0000
  H   H8        1.0  0.5531761159060764  0.9184086513334222  0.9528174386921009  1.0000
  H   H9        1.0  0.1339084545964795  0.8416954778497825  0.7164238105219026  1.0000
  H   H10       1.0  0.6339007552554038  0.6583026310383034  0.283575770278766  1.0000
  H   H11       1.0  0.866094557388692  0.341694961857506  0.7835761894780973  1.0000
  H   H12       1.0  0.3660884487292719  0.1583055541347775  0.2164250681198894  1.0000
  H   H13       1.0  0.8660868862773086  0.1583055541347775  0.2835740934814481  1.0000
  H   H14       1.0  0.36609765406294065  0.341694102085313  0.7164238105219026  1.0000
  H   H15       1.0  0.1339084545964795  0.6583069298992399  0.2164225529239161  1.0000
  H   H16       1.0  0.6339007552554038  0.8416920387610319  0.7835761894780973  1.0000
  H   H17       1.0  0.4065689035193003  0.9959291509016951  0.7230274575560713  1.0000
  H   H18       1.0  0.9065627384004956  0.5040715373029556  0.2769725424439287  1.0000
  H   H19       1.0  0.5934310400213221  0.4959269153650397  0.7769721232446045  1.0000
  H   H20       1.0  0.0934310682510144  0.0040693017663003  0.22302829595472667  1.0000
  H   H21       1.0  0.5934249031322096  0.0040727408550509  0.276971284845942  1.0000
  H   H22       1.0  0.09343413669556361  0.4959269153650397  0.7230270383567401  1.0000
  H   H23       1.0  0.4065673692970222  0.5040723970751415  0.2230278767553955  1.0000
  H   H24       1.0  0.9065627384004956  0.9959265715851302  0.7769733808425912  1.0000
  C   C1        1.0  0.3471346667138846  0.0845594544722843  0.5411800461119256  1.0000
  C   C2        1.0  0.8471331042619212  0.415442781064371  0.45881995388807434  1.0000
  C   C3        1.0  0.6528637426044597  0.5845591106923749  0.9588199538880744  1.0000
  C   C4        1.0  0.1528622366118668  0.9154424372844617  0.0411804653112569  1.0000
  C   C5        1.0  0.6528637426044597  0.9154424372844617  0.4588191154894119  1.0000
  C   C6        1.0  0.1528714419455355  0.5845599704645608  0.5411796269125944  1.0000
  C   C7        1.0  0.3471346667138846  0.4154393419756204  0.0411800461119256  1.0000
  C   C8        1.0  0.8471285015950871  0.0845577349279054  0.9588203730874056  1.0000
  C   C9        1.0  0.2869379214365892  0.0182374876540763  0.5903081115070208  1.0000
  C   C10       1.0  0.7869378932069042  0.4817630283382002  0.4096906308949926  1.0000
  C   C11       1.0  0.7130574194371988  0.518236284101981  0.9096906308949926  1.0000
  C   C12       1.0  0.21306358455599653  0.9817635443304837  0.0903093691050074  1.0000
  C   C13       1.0  0.713062022104026  0.9817626845582907  0.4096897924963301  1.0000
  C   C14       1.0  0.21306818722283086  0.5182371438741669  0.5903081115070208  1.0000
  C   C15       1.0  0.2869409898811455  0.4817630283382002  0.09030811150702078  1.0000
  C   C16       1.0  0.7869271536509572  0.0182357681096974  0.9096918884929792  1.0000
  C   C17       1.0  0.1335525150281214  0.9341803123520125  0.5865005239991632  1.0000
  C   C18       1.0  0.6335509525761509  0.5658212356248242  0.4135003143994993  1.0000
  C   C19       1.0  0.8664474285125011  0.4341806561319217  0.9135003143994993  1.0000
  C   C20       1.0  0.3664520594090206  0.0658190000881689  0.08650136239781858  1.0000
  C   C21       1.0  0.8664458942902229  0.0658198598603548  0.4134977992035189  1.0000
  C   C22       1.0  0.36645819629813303  0.4341815159041147  0.586500104799832  1.0000
  C   C23       1.0  0.1335555834726705  0.5658169367638806  0.08649968560050068  1.0000
  C   C24       1.0  0.6335386787979334  0.9341803123520125  0.9135003143994993  1.0000
  C   C25       1.0  0.1766595583571089  0.8934339888133565  0.6800855166631763  1.0000
  C   C26       1.0  0.6766518590160262  0.60656755916348  0.3199153217354862  1.0000
  C   C27       1.0  0.8233449878503478  0.3934317532767011  0.819914902536155  1.0000
  C   C28       1.0  0.3233450160800331  0.10656618339901062  0.1800863550618317  1.0000
  C   C29       1.0  0.8233388509612356  0.1065679029433895  0.3199123873401817  1.0000
  C   C30       1.0  0.3233480845245893  0.3934308935045152  0.680085097463845  1.0000
  C   C31       1.0  0.17665342146799654  0.6065658396191012  0.1800846782645138  1.0000
  C   C32       1.0  0.676650324793755  0.8934305497246058  0.819914902536155  1.0000
  C   C33       1.0  0.328897366502062  0.9777888175048732  0.6834642632571785  1.0000
  C   C34       1.0  0.8288912013832572  0.5222135902441494  0.316534898344166  1.0000
  C   C35       1.0  0.6711041112608386  0.47778658196821777  0.816534898344166  1.0000
  C   C36       1.0  0.1711056737128018  0.0222104949353081  0.18346510165583396  1.0000
  C   C37       1.0  0.6710995085940041  0.022213934024058808  0.3165344791448348  1.0000
  C   C38       1.0  0.1711118106019143  0.47778658196821777  0.6834646824565098  1.0000
  C   C39       1.0  0.328897366502062  0.5222118706997776  0.1834638440578473  1.0000
  C   C40       1.0  0.82888659871643  0.9777853784161223  0.8165357367428214  1.0000
  Br  Br1       1.0  0.9105010869866634  0.1892453160959064  0.6960511423181757  1.0000
  Br  Br2       1.0  0.41049804677179946  0.31075519989637  0.3039488576818243  1.0000
  Br  Br3       1.0  0.08950039077623023  0.6892458320881901  0.8039488576818242  1.0000
  Br  Br4       1.0  0.5895448549925888  0.8107591549773971  0.1960603647034134  1.0000
  Br  Br5       1.0  0.08949885655395923  0.8107548561164606  0.3039492768811556  1.0000
  Br  Br6       1.0  0.5895049652133721  0.6892441125438113  0.6960503039195132  1.0000
  Br  Br7       1.0  0.9104995527643851  0.31075519989637  0.19605114231817566  1.0000
  Br  Br8       1.0  0.4104965125495212  0.1892453160959064  0.8039496960804868  1.0000
  N   N1        1.0  0.49648046586587924  0.165041869228574  0.5410446447285651  1.0000
  N   N2        1.0  0.9964758349693597  0.3349586467637025  0.4589549360721037  1.0000
  N   N3        1.0  0.503519477674736  0.6650415254486646  0.9589553552714349  1.0000
  N   N4        1.0  0.0035179716821503  0.8349608823003578  0.0410450639278963  1.0000
  N   N5        1.0  0.5035210118970141  0.8349600225281719  0.4589549360721037  1.0000
  N   N6        1.0  0.0035271770158118  0.6650406656764787  0.5410446447285651  1.0000
  N   N7        1.0  0.49648046586587924  0.3349552076749518  0.0410454831272276  1.0000
  N   N8        1.0  0.9964727665248034  0.1650384301398233  0.9589553552714349  1.0000
  N   N9        1.0  0.507262980031669  0.2079530991368799  0.4891255501991196  1.0000
  N   N10       1.0  0.0072614740390833  0.2920491363997755  0.5108748690002116  1.0000
  N   N11       1.0  0.4927369635089535  0.7079518955847847  0.0108752881995358  1.0000
  N   N12       1.0  0.9927338668347048  0.792051371936431  0.9891251309997884  1.0000
  N   N13       1.0  0.4927415661757806  0.7920496523920519  0.5108740306015491  1.0000
  N   N14       1.0  0.9927384695015392  0.7079510358125917  0.4891251309997884  1.0000
  N   N15       1.0  0.507262980031669  0.2920456973110248  0.9891251309997884  1.0000
  N   N16       1.0  0.007259939816805202  0.20795051982031512  0.010874449800880398  1.0000
  N   N17       1.0  0.3678773519047596  0.1535011471476437  0.45882330748271016  1.0000
  N   N18       1.0  0.8678803921196234  0.3465036677055764  0.5411771117166211  1.0000
  N   N19       1.0  0.6321210574135847  0.6534982240511696  0.0411771117166211  1.0000
  N   N20       1.0  0.1321180171987208  0.8465033239256672  0.95882330748271  1.0000
  N   N21       1.0  0.632125660080419  0.8465024641534741  0.5411758541186344  1.0000
  N   N22       1.0  0.1321210856432771  0.6534982240511696  0.4588224690840477  1.0000
  N   N23       1.0  0.3678788861270377  0.3464993688446327  0.95882330748271  1.0000
  N   N24       1.0  0.8678788578973455  0.15349770805889312  0.0411775309159523  1.0000
  N   N25       1.0  0.2656705322268351  0.0756934836685517  0.4899048417522565  1.0000
  N   N26       1.0  0.765672038219428  0.4243096116402967  0.5100955774470748  1.0000
  N   N27       1.0  0.7343294113137802  0.5756914203442633  0.0100955774470748  1.0000
  N   N28       1.0  0.23432943954347252  0.9243084080881944  0.9899052609515805  1.0000
  N   N29       1.0  0.7343309455360583  0.9243092678603875  0.5100943198490882  1.0000
  N   N30       1.0  0.23433250798802877  0.5756914203442633  0.489904003353594  1.0000
  N   N31       1.0  0.2656705322268351  0.424305312779353  0.9899052609515805  1.0000
  N   N32       1.0  0.7656674355525936  0.0756909043519869  0.0100964158457373  1.0000
  N   N33       1.0  0.383994356929172  0.0399321192765214  0.6389239153217332  1.0000
  N   N34       1.0  0.8839958629217648  0.4600683967157552  0.3610756654789355  1.0000
  N   N35       1.0  0.6160025181668942  0.539931775496612  0.8610756654789355  1.0000
  N   N36       1.0  0.1160086832856919  0.9600671931636597  0.1389251729197198  1.0000
  N   N37       1.0  0.6160025181668942  0.9600697724802246  0.36107482708028016  1.0000
  N   N38       1.0  0.11601175173024812  0.5399309157244261  0.6389239153217332  1.0000
  N   N39       1.0  0.3839958911514501  0.4600666771713833  0.1389247537203957  1.0000
  N   N40       1.0  0.8839881918103742  0.0399303997321425  0.8610760846782668  1.0000
  N   N41       1.0  0.07957857530808353  0.8726618927487522  0.6315099559840718  1.0000
  N   N42       1.0  0.579573944411564  0.6273379356837127  0.36849004401592816  1.0000
  N   N43       1.0  0.9204244366770881  0.3726630963008475  0.8684900440159282  1.0000
  N   N44       1.0  0.4204229306845022  0.1273365599192431  0.1315120519807138  1.0000
  N   N45       1.0  0.9204213682325391  0.1273391392358079  0.3684875288199549  1.0000
  N   N46       1.0  0.420432136018171  0.3726630963008475  0.631510375183403  1.0000
  N   N47       1.0  0.0795801095303617  0.6273362161393337  0.1315099559840718  1.0000
  N   N48       1.0  0.5795678075224515  0.8726627525209381  0.8684887864179416  1.0000
