data_image0
_chemical_formula_structural       Ca2H34C30N6O22
_chemical_formula_sum              "Ca2 H34 C30 N6 O22"
_cell_length_a       8.602999212870376
_cell_length_b       8.793968186074187
_cell_length_c       13.12050692174796
_cell_angle_alpha    108.4611747780953
_cell_angle_beta     95.29043778429349
_cell_angle_gamma    100.53764923341635

_space_group_name_H-M_alt    "P 1"
_space_group_IT_number       1

loop_
  _space_group_symop_operation_xyz
  'x, y, z'

loop_
  _atom_site_type_symbol
  _atom_site_label
  _atom_site_symmetry_multiplicity
  _atom_site_fract_x
  _atom_site_fract_y
  _atom_site_fract_z
  _atom_site_occupancy
  Ca  Ca1       1.0  0.4983940488937932  0.854132000159943  0.3447185561637624  1.0000
  Ca  Ca2       1.0  0.5016061013315961  0.14586633141674102  0.6552811040180159  1.0000
  H   H1        1.0  0.19271599903082395  0.8663708837344897  0.12482275582731714  1.0000
  H   H2        1.0  0.8072863822781996  0.13363237563961408  0.8751773309303132  1.0000
  H   H3        1.0  0.8152146323831743  0.6105713533111227  0.8535919362089144  1.0000
  H   H4        1.0  0.1847852527245735  0.3894257480231503  0.14640744513387463  1.0000
  H   H5        1.0  0.20109563250947818  0.989234899913562  0.8354169865445725  1.0000
  H   H6        1.0  0.7989021859774609  0.010763429022716799  0.16458100545737855  1.0000
  H   H7        1.0  0.4696519156937242  0.3757671726873608  0.22644961988132192  1.0000
  H   H8        1.0  0.5303496726343155  0.6242323987133105  0.7735488689243153  1.0000
  H   H9        1.0  0.6102391937802024  0.2854009455439909  0.15303018062029136  1.0000
  H   H10       1.0  0.38976238743204306  0.7145986175952996  0.8469705924903932  1.0000
  H   H11       1.0  0.9795946672883247  0.6144814529301215  0.3060832551748334  1.0000
  H   H12       1.0  0.020407444159204098  0.38552057069399837  0.6939180756138438  1.0000
  H   H13       1.0  0.8295446768239001  0.48512940147387695  0.19450966854586937  1.0000
  H   H14       1.0  0.1704560036367582  0.5148713905876221  0.8054905493138944  1.0000
  H   H15       1.0  0.810441081618343  0.7386735849765457  0.5221435786091034  1.0000
  H   H16       1.0  0.18955582900121468  0.2613259646205606  0.4778561424469813  1.0000
  H   H17       1.0  0.9520481948514217  0.9105265699295941  0.5198475481799818  1.0000
  H   H18       1.0  0.04794961651972329  0.08947175074530378  0.4801527281270167  1.0000
  H   H19       1.0  0.34657072991167576  0.053067759332677204  0.18778724214909195  1.0000
  H   H20       1.0  0.6534282544444848  0.9469305709237971  0.812211583942769  1.0000
  H   H21       1.0  0.06855502724106086  0.7780176397806924  0.20329292820355954  1.0000
  H   H22       1.0  0.9314459159653053  0.22198437976942384  0.7967083299302118  1.0000
  H   H23       1.0  0.07201612493936692  0.9585119171220953  0.6993453332996821  1.0000
  H   H24       1.0  0.9279802530729809  0.0414851692363953  0.3006545915134352  1.0000
  H   H25       1.0  0.6803522704796805  0.49405210035488534  0.357374576889498  1.0000
  H   H26       1.0  0.3196455408914573  0.5059462203200125  0.6426256994175004  1.0000
  H   H27       1.0  0.31437047148447306  0.6855120167264985  0.47572011776910716  1.0000
  H   H28       1.0  0.6856276073762401  0.3144875369446041  0.5242796759418695  1.0000
  H   H29       1.0  0.2796324246682572  0.5428021228536294  0.36400430382579424  1.0000
  H   H30       1.0  0.7203665573159697  0.45719620464905825  0.6359952837010849  1.0000
  H   H31       1.0  0.34837404753968565  0.6135545642218361  0.09966079884547697  1.0000
  H   H32       1.0  0.6516254646798173  0.3864462237656666  0.9003393463593948  1.0000
  H   H33       1.0  0.49814091221764284  0.7480247942374091  0.10643797122106949  1.0000
  H   H34       1.0  0.5018583372561521  0.25197476626148324  0.8935611337097881  1.0000
  C   C1        1.0  0.21003487149930314  0.9402468790436912  0.9845807912978302  1.0000
  C   C2        1.0  0.7899673548346156  0.0597502359461615  0.01541721248471361  1.0000
  C   C3        1.0  0.137844235870439  0.8461698102147109  0.04243441272535616  1.0000
  C   C4        1.0  0.8621576175752423  0.15383099142837148  0.9575643549192703  1.0000
  C   C5        1.0  0.9954247401039851  0.727784721006408  0.9964667612064273  1.0000
  C   C6        1.0  0.004575679982899301  0.2722148463202743  0.0035316549443109853  1.0000
  C   C7        1.0  0.9280018370702905  0.699892966280906  0.8896377078235813  1.0000
  C   C8        1.0  0.0719983155270327  0.30010536804956445  0.11036119092317877  1.0000
  C   C9        1.0  0.0014116399497013114  0.7902892637977387  0.829392139417102  1.0000
  C   C10       1.0  0.9985905863842247  0.209707851192114  0.17060586436544153  1.0000
  C   C11       1.0  0.14249385316377067  0.9112086072109946  0.8772642897524745  1.0000
  C   C12       1.0  0.8575053963100316  0.08879095328789077  0.12273481517838286  1.0000
  C   C13       1.0  0.3495920574239406  0.08274550998729069  0.03695984604451037  1.0000
  C   C14       1.0  0.650409530904099  0.9172540614133877  0.9630386427611196  1.0000
  C   C15       1.0  0.5201896904667862  0.26545936893118227  0.20474047307904183  1.0000
  C   C16       1.0  0.4798116279997587  0.7345389667194979  0.7952592597576283  1.0000
  C   C17       1.0  0.6013918396961699  0.2508406053044965  0.30766547725052357  1.0000
  C   C18       1.0  0.39860650428217775  0.7491601786090171  0.6923345952994494  1.0000
  C   C19       1.0  0.9086896014983378  0.6372365513897549  0.061047668333159756  1.0000
  C   C20       1.0  0.09131224720348288  0.3627642447457474  0.938952622181503  1.0000
  C   C21       1.0  0.8913227188859095  0.6133562751227046  0.2392916067378649  1.0000
  C   C22       1.0  0.10867732119693581  0.38664697059583364  0.7607098575800105  1.0000
  C   C23       1.0  0.7680972550827503  0.7079852625957342  0.28829752572504214  1.0000
  C   C24       1.0  0.23190342063404756  0.2920155239581844  0.711704215004758  1.0000
  C   C25       1.0  0.9136484309372361  0.7648537073686157  0.7198267269390043  1.0000
  C   C26       1.0  0.08635108365420048  0.23514708337268783  0.28017265683084247  1.0000
  C   C27       1.0  0.8762815261576905  0.8637366597035906  0.5709860728225421  1.0000
  C   C28       1.0  0.12371538446186749  0.1362628898935228  0.42901364823353555  1.0000
  C   C29       1.0  0.7519738963109787  0.9684163289712799  0.6002670759297074  1.0000
  C   C30       1.0  0.24802768252934018  0.0315832314142241  0.3997344586159954  1.0000
  N   N1        1.0  0.39940285769756667  0.11994551549859979  0.1444050707661688  1.0000
  N   N2        1.0  0.600596126658594  0.8800528147578813  0.8555937553256922  1.0000
  N   N3        1.0  0.9734517556275719  0.6801070154702843  0.16711578343104347  1.0000
  N   N4        1.0  0.026549720186004298  0.319897467318448  0.8328852709457022  1.0000
  N   N5        1.0  0.9748665721065493  0.8617912180380144  0.6650844409632766  1.0000
  N   N6        1.0  0.02513214950390359  0.13820588472984943  0.33491334485456997  1.0000
  O   O1        1.0  0.41224904655056344  0.16726642129081173  0.98484199789614  1.0000
  O   O2        1.0  0.5877516410258892  0.8327343790320683  0.015155935658569285  1.0000
  O   O3        1.0  0.6888377924468827  0.38835000174964296  0.37984627234169455  1.0000
  O   O4        1.0  0.3111617126568333  0.6116507779764858  0.6201561571682247  1.0000
  O   O5        1.0  0.5885316490641229  0.1189325542410913  0.3245712423947395  1.0000
  O   O6        1.0  0.4114676004096722  0.8810670062577941  0.6754278625361181  1.0000
  O   O7        1.0  0.7835738106955857  0.528097675970727  0.019865714663843882  1.0000
  O   O8        1.0  0.21642660227550437  0.4719018830945743  0.9801349857919417  1.0000
  O   O9        1.0  0.665230473788135  0.6383800857245417  0.33440781601940006  1.0000
  O   O10       1.0  0.33476877331373334  0.3616194720205499  0.6655920503464755  1.0000
  O   O11       1.0  0.7678169328172758  0.848957370250545  0.28394511509151227  1.0000
  O   O12       1.0  0.2321828374040749  0.15104463971799484  0.716057593257403  1.0000
  O   O13       1.0  0.7825861697736158  0.6615843148974249  0.6817659101210508  1.0000
  O   O14       1.0  0.21741658442365258  0.33841525782344917  0.31823341277448947  1.0000
  O   O15       1.0  0.7550767581933683  0.05531979753781259  0.6989523742033156  1.0000
  O   O16       1.0  0.24492249128042692  0.94467976296108  0.301046730727542  1.0000
  O   O17       1.0  0.6477912207664146  0.963452417557292  0.5236650835970733  1.0000
  O   O18       1.0  0.35220855182686245  0.0365495951650416  0.47633686331682407  1.0000
  O   O19       1.0  0.31267583082174605  0.6646604593369785  0.3978233103707537  1.0000
  O   O20       1.0  0.6873231511624808  0.3353378681657091  0.6021762771561255  1.0000
  O   O21       1.0  0.43078773947978977  0.7048729598055841  0.15253627209294504  1.0000
  O   O22       1.0  0.5692129433528023  0.29512783500971546  0.8474631843318006  1.0000
