data_image0
_chemical_formula_structural       Na2H20C16N2O18
_chemical_formula_sum              "Na2 H20 C16 N2 O18"
_cell_length_a       6.817555710510299
_cell_length_b       7.474645000961962
_cell_length_c       12.921703807651285
_cell_angle_alpha    75.67779279892278
_cell_angle_beta     75.85925099732673
_cell_angle_gamma    68.31830318636217

_space_group_name_H-M_alt    "P 1"
_space_group_IT_number       1

loop_
  _space_group_symop_operation_xyz
  'x, y, z'

loop_
  _atom_site_type_symbol
  _atom_site_label
  _atom_site_symmetry_multiplicity
  _atom_site_fract_x
  _atom_site_fract_y
  _atom_site_fract_z
  _atom_site_occupancy
  Na  Na1       1.0  0.26349929121387566  0.4711948308593747  0.5074912163286244  1.0000
  Na  Na2       1.0  0.7365012073702318  0.528809672897367  0.4925125496969613  1.0000
  H   H1        1.0  0.5264418898105278  0.352353093641277  0.24063438831485945  1.0000
  H   H2        1.0  0.47352953087161614  0.6476367434447996  0.7593780489498202  1.0000
  H   H3        1.0  0.1951120188774311  0.2691231863710186  0.9202226981053558  1.0000
  H   H4        1.0  0.8049117954281118  0.7308630546999951  0.07977347517771699  1.0000
  H   H5        1.0  0.3531456041437621  0.9453659824024712  0.8613533235694678  1.0000
  H   H6        1.0  0.6469097978046534  0.05461896769867282  0.13864459105862187  1.0000
  H   H7        1.0  0.427942482973606  0.6435786984950055  0.001094973794415907  1.0000
  H   H8        1.0  0.572089308869856  0.3564158751758485  0.9989117147780179  1.0000
  H   H9        1.0  0.27494060573718565  0.8294980973919837  0.5721864619768056  1.0000
  H   H10       1.0  0.7250431989154934  0.1705114158582077  0.42781826508684884  1.0000
  H   H11       1.0  0.3470234150526537  0.8381720330535105  0.44866047998529984  1.0000
  H   H12       1.0  0.6529801862261877  0.16182801697588906  0.5513420266700564  1.0000
  H   H13       1.0  0.1444715605026588  0.39513078729569157  0.7356008679354106  1.0000
  H   H14       1.0  0.8555427536543052  0.6048616104215584  0.2643954112476763  1.0000
  H   H15       1.0  0.17923070623149326  0.19939500477080677  0.6966336396502656  1.0000
  H   H16       1.0  0.8207952475501517  0.8005940323770204  0.3033619518214082  1.0000
  H   H17       1.0  0.07369303805441517  0.18453424294040843  0.5434174120955364  1.0000
  H   H18       1.0  0.9263038516891912  0.8154732903256983  0.4565832006410703  1.0000
  H   H19       1.0  0.13430595527250944  0.19858814274637376  0.4189223812382111  1.0000
  H   H20       1.0  0.865683781360602  0.8014139150823993  0.5810781093824104  1.0000
  C   C1        1.0  0.28569735880839897  0.7943486563208071  0.1370650603387915  1.0000
  C   C2        1.0  0.7143032127332987  0.2056457519233703  0.8629408206637239  1.0000
  C   C3        1.0  0.17748960887033163  0.9766426972376651  0.17118743604621048  1.0000
  C   C4        1.0  0.8224933952530833  0.023356752678516585  0.8288140595600737  1.0000
  C   C5        1.0  0.1549941349564179  0.1428443253457843  0.08976091289529363  1.0000
  C   C6        1.0  0.8449867829506059  0.8571566524148653  0.9102413578489605  1.0000
  C   C7        1.0  0.21731505296001072  0.13458165701509023  0.9792623827237535  1.0000
  C   C8        1.0  0.782682379401436  0.8654157589221327  0.020736425352367884  1.0000
  C   C9        1.0  0.30645107357572227  0.953089676839639  0.9474077017532709  1.0000
  C   C10       1.0  0.6935765613325772  0.04688631982399018  0.0525972186798143  1.0000
  C   C11       1.0  0.34632870759053713  0.7846814432275053  0.026170312857274818  1.0000
  C   C12       1.0  0.6536975602859414  0.2153148011836805  0.9738405686792362  1.0000
  C   C13       1.0  0.3468517810856896  0.6162565342755357  0.2205093630553634  1.0000
  C   C14       1.0  0.6531509563699489  0.38376949745902783  0.7794789071258919  1.0000
  C   C15       1.0  0.10398930543337322  0.9972295183315082  0.28974268116568425  1.0000
  C   C16       1.0  0.8960005305951669  0.0027912713982872063  0.710242895422006  1.0000
  N   N1        1.0  0.07904333132766794  0.335143291352253  0.12026410150334499  1.0000
  N   N2        1.0  0.920936268593529  0.6648620572337195  0.8797245339889416  1.0000
  O   O1        1.0  0.2824588154954952  0.6104087597809739  0.3180937685574108  1.0000
  O   O2        1.0  0.7175690786007892  0.38961192812868023  0.6819113674387581  1.0000
  O   O3        1.0  0.48829092884871983  0.458036383328583  0.17901568997912423  1.0000
  O   O4        1.0  0.511656420455324  0.5419645380870008  0.8210053713822988  1.0000
  O   O5        1.0  0.9194486690484781  0.9842169247736974  0.33256784388153454  1.0000
  O   O6        1.0  0.0805338415165409  0.0157897531303064  0.6674304096461656  1.0000
  O   O7        1.0  0.23164569837334173  0.030397104127097  0.3325648818269898  1.0000
  O   O8        1.0  0.7683307539939437  0.9696228007896082  0.66743529984025  1.0000
  O   O9        1.0  0.9430901852518262  0.36537521038321324  0.2038407962140028  1.0000
  O   O10       1.0  0.05689213323539387  0.6346112754038133  0.7961392354867061  1.0000
  O   O11       1.0  0.15676095144637978  0.4594764813406512  0.061635745411955226  1.0000
  O   O12       1.0  0.843229451098161  0.5405269848887571  0.9383551882312491  1.0000
  O   O13       1.0  0.3734032252329628  0.7501684272357568  0.5182852499345432  1.0000
  O   O14       1.0  0.6265936477364562  0.24983622814337997  0.4817235017721232  1.0000
  O   O15       1.0  0.24716735612546614  0.2968510478435817  0.6935946304026217  1.0000
  O   O16       1.0  0.7528488563837925  0.703139830755724  0.30640244149746837  1.0000
  O   O17       1.0  0.08298071197288694  0.2808439947419785  0.47596833637715724  1.0000
  O   O18       1.0  0.9170153407693745  0.7191650167369801  0.52403526222178  1.0000
