data_image0
_chemical_formula_structural       Hg4H32C24S4N4O16
_chemical_formula_sum              "Hg4 H32 C24 S4 N4 O16"
_cell_length_a       7.571417831001101
_cell_length_b       10.385787266360449
_cell_length_c       11.994821537491154
_cell_angle_alpha    107.73990764976432
_cell_angle_beta     90.00005027389675
_cell_angle_gamma    90.00001533467223

_space_group_name_H-M_alt    "P 1"
_space_group_IT_number       1

loop_
  _space_group_symop_operation_xyz
  'x, y, z'

loop_
  _atom_site_type_symbol
  _atom_site_label
  _atom_site_symmetry_multiplicity
  _atom_site_fract_x
  _atom_site_fract_y
  _atom_site_fract_z
  _atom_site_occupancy
  Hg  Hg1       1.0  0.8812276798223593  0.4055411347208988  0.47489522970858633  1.0000
  Hg  Hg2       1.0  0.381227179471864  0.0944590589693846  0.0251032852762663  1.0000
  Hg  Hg3       1.0  0.11876949824868177  0.5944579965385515  0.5251043758694607  1.0000
  Hg  Hg4       1.0  0.6187699985989853  0.9055410627145762  0.9748957313359696  1.0000
  H   H1        1.0  0.6004281281635641  0.23530108369359223  0.3783907994220996  1.0000
  H   H2        1.0  0.1004265005123841  0.26469901001694035  0.12160835925342887  1.0000
  H   H3        1.0  0.39956904990711445  0.7646970368453339  0.6216085562421158  1.0000
  H   H4        1.0  0.8995719983159701  0.7353021426838281  0.8783917461527224  1.0000
  H   H5        1.0  0.6929936190106145  0.6262602513741837  0.6653018355670426  1.0000
  H   H6        1.0  0.19299363558720734  0.8737408408164451  0.8346979841806926  1.0000
  H   H7        1.0  0.3070035590605897  0.37374088103028663  0.33469743095902516  1.0000
  H   H8        1.0  0.8070035424836346  0.12625928086750798  0.16530103243155028  1.0000
  H   H9        1.0  0.7879161093736328  0.1485338277715655  0.372717342163959  1.0000
  H   H10       1.0  0.287913202164134  0.35146830679885  0.1272799300259919  1.0000
  H   H11       1.0  0.2120823894524904  0.8514672437451551  0.6272794077236838  1.0000
  H   H12       1.0  0.7120852966642132  0.6485328459019113  0.8727201753801593  1.0000
  H   H13       1.0  0.564663608260325  0.5135335753098074  0.6721447997546619  1.0000
  H   H14       1.0  0.0646649803685762  0.9864684726337455  0.8278551807029897  1.0000
  H   H15       1.0  0.43533356981107835  0.4864665666701598  0.32785505573721  1.0000
  H   H16       1.0  0.9353335184592169  0.013532659771009004  0.1721440858235326  1.0000
  H   H17       1.0  0.8506124916814242  0.029834131596970796  0.5091914480198837  1.0000
  H   H18       1.0  0.3506048271219697  0.4701686783614604  0.9908065370137321  1.0000
  H   H19       1.0  0.149391290171252  0.9701659494963691  0.4908058908353964  1.0000
  H   H20       1.0  0.6493923509497888  0.5298324743390238  0.009193568391957322  1.0000
  H   H21       1.0  0.4544966371309656  0.05280139621198999  0.7738950851799871  1.0000
  H   H22       1.0  0.9544875801736126  0.447199477394065  0.726104149996395  1.0000
  H   H23       1.0  0.5455097862354846  0.9471957136084014  0.22610402057362214  1.0000
  H   H24       1.0  0.04550827714139421  0.5527996741611076  0.273896294460819  1.0000
  H   H25       1.0  0.3000724523707348  0.23335809704442315  0.7154989786989531  1.0000
  H   H26       1.0  0.8000713268292258  0.2666417199939631  0.7845007381031053  1.0000
  H   H27       1.0  0.6999286879717488  0.7666410951039139  0.2845031435193519  1.0000
  H   H28       1.0  0.19992717199915688  0.7333564411372748  0.21550029532082962  1.0000
  H   H29       1.0  0.4168338472710573  0.3105834354909689  0.5540496987417569  1.0000
  H   H30       1.0  0.9168329046993547  0.18941434923105754  0.9459470827566675  1.0000
  H   H31       1.0  0.5831672930686694  0.6894126636077685  0.4459491570961944  1.0000
  H   H32       1.0  0.0831682356414518  0.8105847820292382  0.05405252282275803  1.0000
  C   C1        1.0  0.6417811006360097  0.17624234104929565  0.5225674430939762  1.0000
  C   C2        1.0  0.14176939927229174  0.3237593890345351  0.9774309857417831  1.0000
  C   C3        1.0  0.35822664348719957  0.8237567699164  0.4774313236081156  1.0000
  C   C4        1.0  0.8582290995557003  0.6762407529457093  0.02256886975054331  1.0000
  C   C5        1.0  0.7317312304555018  0.0760190951267035  0.5554558042525528  1.0000
  C   C6        1.0  0.23172216616670477  0.4239867975523595  0.9445470422838014  1.0000
  C   C7        1.0  0.26827387215671905  0.9239830885920028  0.44454538994934717  1.0000
  C   C8        1.0  0.7682763326622108  0.5760143754444227  0.055453902001978854  1.0000
  C   C9        1.0  0.6637043933071851  0.03369376886418959  0.6464628618314592  1.0000
  C   C10       1.0  0.16369126313901455  0.4663100326428521  0.8535377598299618  1.0000
  C   C11       1.0  0.3363046715748084  0.9663084148553694  0.3535383323718195  1.0000
  C   C12       1.0  0.8363059149323887  0.5336901093371154  0.14646209566190999  1.0000
  C   C13       1.0  0.5094519601973246  0.08978904359236847  0.7055258784664105  1.0000
  C   C14       1.0  0.0094453341022884  0.4102167335818193  0.794475974681049  1.0000
  C   C15       1.0  0.490554463172046  0.9102131604226358  0.29447615461557314  1.0000
  C   C16       1.0  0.9905531647262577  0.5897834286944458  0.2055247196909065  1.0000
  C   C17       1.0  0.42225956972680484  0.19021973910675166  0.6719516794580329  1.0000
  C   C18       1.0  0.9222505938546773  0.3097811409871554  0.828048372189471  1.0000
  C   C19       1.0  0.5777468536425941  0.8097794733387219  0.3280512816417414  1.0000
  C   C20       1.0  0.07774790497351351  0.6902180105685858  0.17195207226865963  1.0000
  C   C21       1.0  0.4877703658730041  0.23391577625233853  0.581000034474492  1.0000
  C   C22       1.0  0.9877654552725017  0.26608612232733714  0.9189994737462897  1.0000
  C   C23       1.0  0.5122347367384918  0.7660843860253336  0.4190006598997654  1.0000
  C   C24       1.0  0.012234364312277498  0.7339130292286882  0.08100097071229576  1.0000
  S   S1        1.0  0.7745147474336775  0.904684904476717  0.6884862485816399  1.0000
  S   S2        1.0  0.274513304485744  0.5953193156813228  0.8115168942126799  1.0000
  S   S3        1.0  0.22548639290785386  0.09531624822461278  0.3115138568254352  1.0000
  S   S4        1.0  0.7254838735856595  0.40468082629864455  0.1884829612791918  1.0000
  N   N1        1.0  0.7057400046684066  0.219180319067533  0.4271089567665883  1.0000
  N   N2        1.0  0.20573831901402434  0.28082083047198136  0.0728905250268284  1.0000
  N   N3        1.0  0.29425717340208013  0.7808187918959034  0.57288980993183  1.0000
  N   N4        1.0  0.7942601798148914  0.719180342524794  0.9271104192589518  1.0000
  O   O1        1.0  0.833090395474528  0.9687531235480764  0.8109921542809175  1.0000
  O   O2        1.0  0.3330861245092294  0.5312470179290898  0.689007512935163  1.0000
  O   O3        1.0  0.16691074486648458  0.031245017287709193  0.18900804026430512  1.0000
  O   O4        1.0  0.6669110535625294  0.4687541347713946  0.3109925924705337  1.0000
  O   O5        1.0  0.6407603834282937  0.7990840439863687  0.6842280194924512  1.0000
  O   O6        1.0  0.14075898713055324  0.7009231104498994  0.815774102309156  1.0000
  O   O7        1.0  0.35923943615625825  0.2009190895636905  0.3157709079825537  1.0000
  O   O8        1.0  0.859239511697993  0.29907705182635874  0.18422659206279954  1.0000
  O   O9        1.0  0.9209971563766146  0.8581014900402691  0.6066926169896548  1.0000
  O   O10       1.0  0.4209945186698505  0.6418976986660497  0.8933077002982798  1.0000
  O   O11       1.0  0.07900398396530761  0.1418976818120541  0.39330866634902145  1.0000
  O   O12       1.0  0.5790039801581414  0.3581024433142019  0.1066921551940467  1.0000
  O   O13       1.0  0.6922513360392485  0.5313951235394537  0.666307347141192  1.0000
  O   O14       1.0  0.19225138815026097  0.9686059480372292  0.8336916332109537  1.0000
  O   O15       1.0  0.3077471627881891  0.4686049981447836  0.33369166947150564  1.0000
  O   O16       1.0  0.8077471106775389  0.031395184367525496  0.1663076333155686  1.0000
