data_image0
_chemical_formula_structural       Na2Cd2H42C28S2N4O22
_chemical_formula_sum              "Na2 Cd2 H42 C28 S2 N4 O22"
_cell_length_a       8.857641179785332
_cell_length_b       10.356179138446375
_cell_length_c       12.91
_cell_angle_alpha    106.45900297296404
_cell_angle_beta     109.71219007912299
_cell_angle_gamma    98.52087971227796

_space_group_name_H-M_alt    "P 1"
_space_group_IT_number       1

loop_
  _space_group_symop_operation_xyz
  'x, y, z'

loop_
  _atom_site_type_symbol
  _atom_site_label
  _atom_site_symmetry_multiplicity
  _atom_site_fract_x
  _atom_site_fract_y
  _atom_site_fract_z
  _atom_site_occupancy
  Na  Na1       1.0  0.5100825007169192  0.6696277931069118  0.4707476096240128  1.0000
  Na  Na2       1.0  0.4899175342446895  0.3303712665006628  0.529252262192081  1.0000
  Cd  Cd1       1.0  0.1834674471757793  0.9460339403574166  0.37346286524793726  1.0000
  Cd  Cd2       1.0  0.816531724786131  0.053966164943950894  0.62653549533254  1.0000
  H   H1        1.0  0.7568462227287043  0.5855330987806013  0.3142077631385474  1.0000
  H   H2        1.0  0.2431551572180624  0.4144701436021236  0.6857933706037898  1.0000
  H   H3        1.0  0.2000177050970962  0.4425480674687705  0.39860879755699585  1.0000
  H   H4        1.0  0.7999845378493688  0.5574541292201616  0.6013938474209723  1.0000
  H   H5        1.0  0.7272278882934559  0.16731937142208858  0.3167983848215671  1.0000
  H   H6        1.0  0.2727743546530093  0.8326828252668433  0.6832003871897142  1.0000
  H   H7        1.0  0.28599293229461853  0.9841484331887995  0.1624222299046848  1.0000
  H   H8        1.0  0.7140031686827372  0.0158495807249963  0.8375764938383199  1.0000
  H   H9        1.0  0.3116508901550716  0.0269883109409079  0.020068235343522634  1.0000
  H   H10       1.0  0.6883498172991196  0.9730128400542455  0.9799322674356999  1.0000
  H   H11       1.0  0.1297319748254537  0.9866235903819174  0.888928865867605  1.0000
  H   H12       1.0  0.8702723303667028  0.013377560613235999  0.11107014572313287  1.0000
  H   H13       1.0  0.25644008519030587  0.868626457797042  0.8965183676931046  1.0000
  H   H14       1.0  0.7435594230178992  0.1313746931981115  0.10348340674228501  1.0000
  H   H15       1.0  0.9776650663522162  0.674252896725477  0.8631566565009122  1.0000
  H   H16       1.0  0.02233271585658508  0.32575034565724786  0.13683977168320638  1.0000
  H   H17       1.0  0.8769118610519513  0.8095949521503271  0.8556668914522021  1.0000
  H   H18       1.0  0.12308831964882928  0.19040829023239775  0.14433086638627657  1.0000
  H   H19       1.0  0.8879219018459424  0.7360178459306255  0.9667035713608951  1.0000
  H   H20       1.0  0.11207280937830429  0.2639833050645207  0.03329321998576518  1.0000
  H   H21       1.0  0.3177428253123011  0.5874927289368728  0.18946769891812207  1.0000
  H   H22       1.0  0.6822572096493005  0.41250633067070197  0.8105321728979789  1.0000
  H   H23       1.0  0.22353888349001488  0.5246475780500645  0.0012083269699373368  1.0000
  H   H24       1.0  0.7764611514715867  0.4753514815575102  0.9987915448461635  1.0000
  H   H25       1.0  0.3718117568860109  0.5380680121085533  0.9361227156042772  1.0000
  H   H26       1.0  0.6281870788296118  0.4619310474990214  0.06387765327465189  1.0000
  H   H27       1.0  0.2649588237118223  0.6690714840123846  0.9555102460040173  1.0000
  H   H28       1.0  0.7350424104957725  0.33092757559519004  0.04448990334258699  1.0000
  H   H29       1.0  0.5952252513012867  0.8751996889402278  0.14487594766533357  1.0000
  H   H30       1.0  0.4047756466600205  0.12479832497356108  0.8551238861997135  1.0000
  H   H31       1.0  0.6121385271846904  0.733015659069018  0.03584367131984572  1.0000
  H   H32       1.0  0.387863233776315  0.26698130915098517  0.9641568991874863  1.0000
  H   H33       1.0  0.7125752352534889  0.7603229066148671  0.18946909130526993  1.0000
  H   H34       1.0  0.2874253264615305  0.23967406160513596  0.8105304270782198  1.0000
  H   H35       1.0  0.18550418762121273  0.9905323937565953  0.6072895710020844  1.0000
  H   H36       1.0  0.8144965198329785  0.0094687572385581  0.39270938259045346  1.0000
  H   H37       1.0  0.3211413768780886  0.1276363379106584  0.6245830635498351  1.0000
  H   H38       1.0  0.6788589943298078  0.872363767390702  0.3754163491544843  1.0000
  H   H39       1.0  0.43855643342735834  0.1093220569304165  0.340282239539576  1.0000
  H   H40       1.0  0.5614439377805382  0.890678048370944  0.6597187223514211  1.0000
  H   H41       1.0  0.5448698804343833  0.0202801852992351  0.3999297417612055  1.0000
  H   H42       1.0  0.4551286190349444  0.9797178286145538  0.6000695370428274  1.0000
  C   C1        1.0  0.7240133101711806  0.37288603878647547  0.3117969400569578  1.0000
  C   C2        1.0  0.275987061036723  0.6271140665148849  0.6882040218340391  1.0000
  C   C3        1.0  0.816357213075463  0.5030456358044404  0.32656347343817776  1.0000
  C   C4        1.0  0.1836398966407558  0.49695551519070585  0.6734361967495132  1.0000
  C   C5        1.0  0.9885532564168569  0.5287195096554668  0.35804238819893186  1.0000
  C   C6        1.0  0.011447114791039294  0.47128059564589353  0.6419562499120487  1.0000
  C   C7        1.0  0.06655089225316858  0.42414176543530147  0.3757374491602121  1.0000
  C   C8        1.0  0.9334503419544261  0.5758572941722733  0.6242634747797382  1.0000
  C   C9        1.0  0.9730251955598562  0.2942948308595632  0.361948424585961  1.0000
  C   C10       1.0  0.026976711140321196  0.7057063201355901  0.6380523557237651  1.0000
  C   C11       1.0  0.8008863797796337  0.2686199113147437  0.3294228721210715  1.0000
  C   C12       1.0  0.1991143276745504  0.7313812396804025  0.6705784052514899  1.0000
  C   C13       1.0  0.08582729026112193  0.6687054911870405  0.3711163675323447  1.0000
  C   C14       1.0  0.9141742801927606  0.33129461411432  0.6288848718891628  1.0000
  C   C15       1.0  0.05386901655440111  0.1799356669586132  0.3750952799148664  1.0000
  C   C16       1.0  0.9461308279000918  0.8200665297303258  0.6249052608154031  1.0000
  C   C17       1.0  0.16681628003561844  0.902779862564408  0.1136701306204343  1.0000
  C   C18       1.0  0.8331796304346143  0.0972212884307453  0.8863292620367461  1.0000
  C   C19       1.0  0.20784843271441392  0.9422568943998613  0.947926772475867  1.0000
  C   C20       1.0  0.7921522747397702  0.0577442565952921  0.05207373030335563  1.0000
  C   C21       1.0  0.9545159182853525  0.7667936597669609  0.9162459250574173  1.0000
  C   C22       1.0  0.045479655938592586  0.23320644553440667  0.0837500537448435  1.0000
  C   C23       1.0  0.4365014416642836  0.6581628064295444  0.20706328804076424  1.0000
  C   C24       1.0  0.5634994562970235  0.3418352074842446  0.7929365458242897  1.0000
  C   C25       1.0  0.320523400389142  0.5971507567508212  0.9947020930420719  1.0000
  C   C26       1.0  0.6794766345724667  0.4028483028567535  0.005297778774028905  1.0000
  C   C27       1.0  0.6018817748359453  0.7659487391873085  0.12116737331754726  1.0000
  C   C28       1.0  0.398118786879067  0.2340482290327017  0.8788329196592811  1.0000
  S   S1        1.0  0.5050811015140156  0.340490445274547  0.2707793807760481  1.0000
  S   S2        1.0  0.4949185972013055  0.6595075686392419  0.7292209501518271  1.0000
  N   N1        1.0  0.1105934837799012  0.8714487853273383  0.9969454566350464  1.0000
  N   N2        1.0  0.8894036259363176  0.128552365667808  0.0030542135526445344  1.0000
  N   N3        1.0  0.45183840911114  0.6737405067699952  0.11146449612708403  1.0000
  N   N4        1.0  0.5481616258504687  0.3262585528375794  0.8885361502823557  1.0000
  O   O1        1.0  0.43917508039037756  0.3790493579652789  0.16729806454216598  1.0000
  O   O2        1.0  0.5608251450783469  0.6209465645609383  0.8326995891730888  1.0000
  O   O3        1.0  0.4436976787454086  0.1891158127120391  0.24467276488041284  1.0000
  O   O4        1.0  0.5563020199699125  0.8108822012017498  0.7553267914541236  1.0000
  O   O5        1.0  0.4847573662795313  0.42664620205444237  0.3753331255849162  1.0000
  O   O6        1.0  0.5152459301737552  0.5733518118593466  0.6246680379344909  1.0000
  O   O7        1.0  0.0021596787321271982  0.758062116648027  0.3569616015655938  1.0000
  O   O8        1.0  0.9978430909677485  0.24193798865334057  0.6430391407930856  1.0000
  O   O9        1.0  0.2399510962958472  0.6926612901465246  0.39373822711300477  1.0000
  O   O10       1.0  0.7600499474046315  0.3073409065424144  0.6062633657411141  1.0000
  O   O11       1.0  0.209907434503215  0.2037628455823324  0.406728973582645  1.0000
  O   O12       1.0  0.7900932729509763  0.796238305412821  0.5932715291965778  1.0000
  O   O13       1.0  0.9608354987979908  0.0572360494149535  0.347941589947105  1.0000
  O   O14       1.0  0.03916640790218642  0.9427651015801927  0.6520584157692892  1.0000
  O   O15       1.0  0.0925988324662725  0.8483891459430595  0.16483830153100598  1.0000
  O   O16       1.0  0.9073996670030553  0.1516088679707295  0.83516097727302  1.0000
  O   O17       1.0  0.5457801143132954  0.7166599625512616  0.310113519245931  1.0000
  O   O18       1.0  0.45422025689460105  0.2833401427501059  0.6898866680517343  1.0000
  O   O19       1.0  0.2739447668563031  0.024122064271566  0.5812810471763754  1.0000
  O   O20       1.0  0.7260552681052986  0.9758769953360087  0.4187180500463868  1.0000
  O   O21       1.0  0.4442665602569278  0.0553422979672433  0.393732431628159  1.0000
  O   O22       1.0  0.5557334747046809  0.9446567616403313  0.6062674401879348  1.0000
