data_image0
_chemical_formula_structural       Cd3H26C44Br4N8O18
_chemical_formula_sum              "Cd3 H26 C44 Br4 N8 O18"
_cell_length_a       8.670430686955843
_cell_length_b       10.216963370454504
_cell_length_c       14.758775731714605
_cell_angle_alpha    75.44749051754164
_cell_angle_beta     90.36308396639457
_cell_angle_gamma    72.27891718211472

_space_group_name_H-M_alt    "P 1"
_space_group_IT_number       1

loop_
  _space_group_symop_operation_xyz
  'x, y, z'

loop_
  _atom_site_type_symbol
  _atom_site_label
  _atom_site_symmetry_multiplicity
  _atom_site_fract_x
  _atom_site_fract_y
  _atom_site_fract_z
  _atom_site_occupancy
  Cd  Cd1       1.0  0.5000004864140806  9.288547743997476e-07  0.49999957203345974  1.0000
  Cd  Cd2       1.0  0.13821419122811548  0.5541505608575505  0.3992097674974816  1.0000
  Cd  Cd3       1.0  0.8617879185490904  0.44584965642079055  0.6007896231894565  1.0000
  H   H1        1.0  0.376262575674211  0.5839086245454298  0.05112660833450628  1.0000
  H   H2        1.0  0.623738739818087  0.4160905310417676  0.9488709351951317  1.0000
  H   H3        1.0  0.9733177671656108  0.14110445970261762  0.3580679053993876  1.0000
  H   H4        1.0  0.026680880213049867  0.8588957894663094  0.6419328299025866  1.0000
  H   H5        1.0  0.5097474595195166  0.1602070779915721  0.25243112735742573  1.0000
  H   H6        1.0  0.4902535013014387  0.83979315228013  0.7475696145518501  1.0000
  H   H7        1.0  0.809997567017831  0.6576047016181974  0.3781747002833812  1.0000
  H   H8        1.0  0.19000301583710663  0.3423965927037784  0.6218251764275635  1.0000
  H   H9        1.0  0.8374588953903267  0.8030278567451888  0.3819968228128303  1.0000
  H   H10       1.0  0.16254169134705174  0.19697343934915784  0.6180037311611033  1.0000
  H   H11       1.0  0.479533400824792  0.4914415962921056  0.600319944561548  1.0000
  H   H12       1.0  0.5204660291914465  0.5085597092508536  0.3996806061087384  1.0000
  H   H13       1.0  0.3101619469470975  0.5421507558492421  0.730660505111672  1.0000
  H   H14       1.0  0.6898359483819759  0.4578516231926102  0.2693391770566294  1.0000
  H   H15       1.0  0.39783212454163663  0.090818977569171  0.8463413610150001  1.0000
  H   H16       1.0  0.6021665189545757  0.9091812698273786  0.1536586970239782  1.0000
  H   H17       1.0  0.5701894408696192  0.04120912022038681  0.7179379606897175  1.0000
  H   H18       1.0  0.42981076790174905  0.9587932399242333  0.28206172808589264  1.0000
  H   H19       1.0  0.3548464047555412  0.820567269428466  0.044606169316502076  1.0000
  H   H20       1.0  0.6451545483005177  0.1794329572984878  0.9553932180667817  1.0000
  H   H21       1.0  0.2503397528131117  0.08289464720010642  0.014921584329037799  1.0000
  H   H22       1.0  0.7496600396393588  0.9171055872030891  0.9850771224876032  1.0000
  H   H23       1.0  0.86334282060983  0.0445791999335441  0.19137442528550255  1.0000
  H   H24       1.0  0.13665928916737596  0.9554210173447971  0.8086249654014355  1.0000
  H   H25       1.0  0.9696739477391885  0.7832256356042464  0.22421249583663896  1.0000
  H   H26       1.0  0.030327005316877386  0.21677459112270725  0.7757868915466448  1.0000
  C   C1        1.0  0.8205592740622052  0.03697735115269301  0.41428995389085094  1.0000
  C   C2        1.0  0.17944090412117933  0.9630218227449704  0.5857109726501124  1.0000
  C   C3        1.0  0.7683517211333565  0.1402190585267817  0.46990087537442105  1.0000
  C   C4        1.0  0.23164807908401014  0.8597811794211626  0.5300991859682115  1.0000
  C   C5        1.0  0.821813001077885  0.25413320910009674  0.47560876236281774  1.0000
  C   C6        1.0  0.17818679913947477  0.7458670288478403  0.524391298979815  1.0000
  C   C7        1.0  0.9379350703460005  0.31539356265699336  0.4218288377119564  1.0000
  C   C8        1.0  0.062063202949090485  0.6846077523345785  0.578171709654683  1.0000
  C   C9        1.0  0.6421711368175523  0.23366123110706385  0.5764914169413374  1.0000
  C   C10       1.0  0.3578309884894394  0.7663389932607602  0.4235106827975772  1.0000
  C   C11       1.0  0.5368811732624366  0.262556361329608  0.6508214462198796  1.0000
  C   C12       1.0  0.46311825287136094  0.7374449424409804  0.34917842718741815  1.0000
  C   C13       1.0  0.46348627162061706  0.4037631531479633  0.6550310163093089  1.0000
  C   C14       1.0  0.5365131583956212  0.5962381523949958  0.34496953436097755  1.0000
  C   C15       1.0  0.36830284233146676  0.4328137187716337  0.7277252863471306  1.0000
  C   C16       1.0  0.6316958011647529  0.5671865286249228  0.2722747716918477  1.0000
  C   C17       1.0  0.34689533285115465  0.3194451480893434  0.7964975495334061  1.0000
  C   C18       1.0  0.6531017837227964  0.680556176350848  0.20350299452957904  1.0000
  C   C19       1.0  0.4170924613319117  0.17851152943480034  0.7932178823217557  1.0000
  C   C20       1.0  0.5829054378796101  0.8214908513794229  0.20678247710954883  1.0000
  C   C21       1.0  0.5119462976712866  0.15075174226387134  0.720300928986582  1.0000
  C   C22       1.0  0.4880508189026641  0.8492495821763131  0.27969961507641017  1.0000
  C   C23       1.0  0.3611585531401573  0.29298704006277637  0.3453956237423769  1.0000
  C   C24       1.0  0.6388419952443483  0.707011066239865  0.6546048134709325  1.0000
  C   C25       1.0  0.3294784746708929  0.40722253543361125  0.25591602914918354  1.0000
  C   C26       1.0  0.6705228563511838  0.5927766272430688  0.7440842234324309  1.0000
  C   C27       1.0  0.3985635532047169  0.4079881849217841  0.1706290990443335  1.0000
  C   C28       1.0  0.6014369912973478  0.5920099196084934  0.8293706609059798  1.0000
  C   C29       1.0  0.5097367339022513  0.297764392840172  0.13288934932526794  1.0000
  C   C30       1.0  0.4902553209991609  0.7022284906552303  0.867120124987807  1.0000
  C   C31       1.0  0.24464685974297123  0.6278660156897616  0.16841123286104678  1.0000
  C   C32       1.0  0.7553536769942042  0.3721320852957746  0.831587172563275  1.0000
  C   C33       1.0  0.17331665257195533  0.7825266196519821  0.13956358405636843  1.0000
  C   C34       1.0  0.8266850486512495  0.21747147542967582  0.8604361791975922  1.0000
  C   C35       1.0  0.24840854194045653  0.8685015125967369  0.07800350657252858  1.0000
  C   C36       1.0  0.7515916245955838  0.13149765598381438  0.9219953881794541  1.0000
  C   C37       1.0  0.18991450487306594  0.0163005980593596  0.060697258005923516  1.0000
  C   C38       1.0  0.8100856616629812  0.9836985705211918  0.9393016367460592  1.0000
  C   C39       1.0  0.0542458700027595  0.07781202457565681  0.10389864265984983  1.0000
  C   C40       1.0  0.9457554532544279  0.9221871345562819  0.8961002553957728  1.0000
  C   C41       1.0  0.9720780287418975  0.9950039006302731  0.16068642080801246  1.0000
  C   C42       1.0  0.027922916549272304  0.004996322551939201  0.8393116120492865  1.0000
  C   C43       1.0  0.032924683764825574  0.8475357684478979  0.17888753642522207  1.0000
  C   C44       1.0  0.9670774260123807  0.15246444883044324  0.821111854261716  1.0000
  Br  Br1       1.0  0.21525879235661444  0.3571930167537403  0.8953362629195782  1.0000
  Br  Br2       1.0  0.7847394809384769  0.6428082982378314  0.1046642844470611  1.0000
  Br  Br3       1.0  0.9803710973443316  0.2784983662487264  0.0894976501112623  1.0000
  Br  Br4       1.0  0.01962832102456956  0.7215029339771206  0.9105008687700435  1.0000
  N   N1        1.0  0.6544925841535374  0.1294077267712552  0.5331336457252649  1.0000
  N   N2        1.0  0.34550838054986577  0.8705925052728176  0.46686777344700653  1.0000
  N   N3        1.0  0.741984445285361  0.31115870178002336  0.5433050274194289  1.0000
  N   N4        1.0  0.2580165155355942  0.6888415284916719  0.45669571448983975  1.0000
  N   N5        1.0  0.23402740540591785  0.5429377695546692  0.2527772631352434  1.0000
  N   N6        1.0  0.7659747043712883  0.45706244772366483  0.7472221275516946  1.0000
  N   N7        1.0  0.3431770654669393  0.5476240024990275  0.1177510357105476  1.0000
  N   N8        1.0  0.6568215435588485  0.4523730568782014  0.8822495828307952  1.0000
  O   O1        1.0  0.7561870848481363  0.9394620495059414  0.4228493267635473  1.0000
  O   O2        1.0  0.24381119621185118  0.06053926903037882  0.5771525751290769  1.0000
  O   O3        1.0  0.935074499945564  0.04605066047720642  0.358814940145905  1.0000
  O   O4        1.0  0.06492684272384958  0.9539485075165857  0.6411873442246974  1.0000
  O   O5        1.0  0.011260037486557873  0.2586277376010955  0.3599729335700631  1.0000
  O   O6        1.0  0.9887397666132498  0.7413725021192193  0.6400278050355581  1.0000
  O   O7        1.0  0.9542901356204112  0.4262929815997013  0.44043532100094046  1.0000
  O   O8        1.0  0.045711203166561666  0.5737061846217201  0.5595662861066658  1.0000
  O   O9        1.0  0.3185763894964282  0.32595839298239326  0.4204768130934796  1.0000
  O   O10       1.0  0.6814234184858279  0.6740418485102853  0.5795246027751375  1.0000
  O   O11       1.0  0.43835512070815236  0.16469525165251042  0.34309713464311653  1.0000
  O   O12       1.0  0.5616470045988392  0.8353049727153136  0.6569049650957909  1.0000
  O   O13       1.0  0.559383406247086  0.16539941114731962  0.18779549616370875  1.0000
  O   O14       1.0  0.44061560356781365  0.8345997668818442  0.8122033952846195  1.0000
  O   O15       1.0  0.5540999369022402  0.3280259325789957  0.05309882818200861  1.0000
  O   O16       1.0  0.4459009656820286  0.671974271107132  0.9468917547823568  1.0000
  O   O17       1.0  0.8802668383695575  0.7160364209337403  0.35795609947266643  1.0000
  O   O18       1.0  0.11973296184780934  0.28396381701420376  0.6420439618699663  1.0000
