data_image0
_chemical_formula_structural       Zn2H17C38I4N2O8F
_chemical_formula_sum              "Zn2 H17 C38 I4 N2 O8 F1"
_cell_length_a       10.792227907249817
_cell_length_b       13.497355618973048
_cell_length_c       13.541027943395292
_cell_angle_alpha    69.51943448669942
_cell_angle_beta     71.34865995497545
_cell_angle_gamma    55.968825830688075

_space_group_name_H-M_alt    "P 1"
_space_group_IT_number       1

loop_
  _space_group_symop_operation_xyz
  'x, y, z'

loop_
  _atom_site_type_symbol
  _atom_site_label
  _atom_site_symmetry_multiplicity
  _atom_site_fract_x
  _atom_site_fract_y
  _atom_site_fract_z
  _atom_site_occupancy
  Zn  Zn1       1.0  0.41947649347105204  0.6415699711928649  0.4801656599244169  1.0000
  Zn  Zn2       1.0  0.6022550562355845  0.39586345384604016  0.46947775658833274  1.0000
  H   H1        1.0  0.04447791713338493  0.6813914728096362  0.3454750796620302  1.0000
  H   H2        1.0  0.48942292616252525  0.5849522732656708  0.7888202543165548  1.0000
  H   H3        1.0  0.48122657217017917  0.7026435567010977  0.849317746267708  1.0000
  H   H4        1.0  0.4905768301234799  0.8367833518250191  0.9268389265576643  1.0000
  H   H5        1.0  0.4570513530183787  0.4251629614487128  0.26412682660511416  1.0000
  H   H6        1.0  0.12340622734674161  0.8172890815045118  0.5955910104237815  1.0000
  H   H7        1.0  0.12035286992455242  0.11518577747511922  0.7151829197451676  1.0000
  H   H8        1.0  0.047422490382331414  0.9859107616521564  0.6800642986042362  1.0000
  H   H9        1.0  0.520341673663701  0.8114956925359561  0.42925153905112967  1.0000
  H   H10       1.0  0.7881261056507256  0.7097474002872628  0.5088605023244952  1.0000
  H   H11       1.0  0.6606216025474364  0.8815246650116462  0.38850717883165237  1.0000
  H   H12       1.0  0.832194448382545  0.9600201645220844  0.3604495373549242  1.0000
  H   H13       1.0  0.988289573251343  0.5352447528166377  0.6568372006690595  1.0000
  H   H14       1.0  0.985627102307511  0.3466031833746399  0.6089602773142173  1.0000
  H   H15       1.0  0.24169168075628267  0.3187602533670527  0.44615797600618373  1.0000
  H   H16       1.0  0.040169786510816215  0.49367458875467896  0.2978669077924607  1.0000
  H   H17       1.0  0.5014959325894921  0.20714912424320167  0.028024356772966996  1.0000
  C   C1        1.0  0.5058116237187348  0.5843889380890414  0.2706771008593877  1.0000
  C   C2        1.0  0.13979247252011348  0.4050828998474002  0.46050132878607286  1.0000
  C   C3        1.0  0.030772969664653257  0.5025034895669619  0.37767196152299215  1.0000
  C   C4        1.0  0.8897082792608375  0.5183766883759587  0.46883559582023066  1.0000
  C   C5        1.0  0.5006695744032754  0.2904893473899576  0.9774996270385755  1.0000
  C   C6        1.0  0.5099025440788905  0.41738968502581736  0.7983371397371994  1.0000
  C   C7        1.0  0.49580708825512687  0.724734996450813  0.0870890253988961  1.0000
  C   C8        1.0  0.4895724375598645  0.7542345764315711  0.9775763991353156  1.0000
  C   C9        1.0  0.48414791910807525  0.6779521003380037  0.9345714339338115  1.0000
  C   C10       1.0  0.48326667383312827  0.5701845705939305  0.9984558146187438  1.0000
  C   C11       1.0  0.48341609473705194  0.5433292231128062  0.11012833939008003  1.0000
  C   C12       1.0  0.7590595115377139  0.5160989833668308  0.45738513986820806  1.0000
  C   C13       1.0  0.4861312890258702  0.4849720230897388  0.954217419768895  1.0000
  C   C14       1.0  0.4841049906551687  0.37731882503214115  0.022907869826902072  1.0000
  C   C15       1.0  0.4661489769666857  0.36321336531410947  0.13580553210633886  1.0000
  C   C16       1.0  0.46799937474348485  0.4405352375669409  0.1780394960882815  1.0000
  C   C17       1.0  0.4941252014832854  0.5023736319094211  0.844145798350979  1.0000
  C   C18       1.0  0.5175371848092424  0.30905570930086407  0.8684393164042702  1.0000
  C   C19       1.0  0.49384639789379015  0.6203074266983676  0.15392569809002776  1.0000
  C   C20       1.0  0.15318790300045743  0.9500955643029908  0.6246944503457995  1.0000
  C   C21       1.0  0.6801576775187428  0.07780814311175276  0.4742612398506977  1.0000
  C   C22       1.0  0.7269608272426066  0.9901529706364296  0.4168895477712126  1.0000
  C   C23       1.0  0.5157703089504508  0.44710593544915844  0.6795796362802378  1.0000
  C   C24       1.0  0.6305759734795232  0.9469406852448397  0.4335171507984087  1.0000
  C   C25       1.0  0.493524410956354  0.9889042141671065  0.5063068441378961  1.0000
  C   C26       1.0  0.4618125742927788  0.07522231711769217  0.5616654564095497  1.0000
  C   C27       1.0  0.3876137852453851  0.9474410629261737  0.5284167797837469  1.0000
  C   C28       1.0  0.2523062658953989  0.9950723083532362  0.6031587599278936  1.0000
  C   C29       1.0  0.22344311120137664  0.08151908883517216  0.6571246236158499  1.0000
  C   C30       1.0  0.32533253961205566  0.11860524049566826  0.6390965756096064  1.0000
  C   C31       1.0  0.41623280928601514  0.8560407039509453  0.4833379899357979  1.0000
  C   C32       1.0  0.1930898728910364  0.8583411378177953  0.5778613391464589  1.0000
  C   C33       1.0  0.27531541718475666  0.5081252480888239  0.49265242087582817  1.0000
  C   C34       1.0  0.8893956103719846  0.6230497663029124  0.49427554772625354  1.0000
  C   C35       1.0  0.0286979233822748  0.6075953236608168  0.4039117981904353  1.0000
  C   C36       1.0  0.1399015520021151  0.5085740257559621  0.48705509388723556  1.0000
  C   C37       1.0  0.9987683727602744  0.5258272306389099  0.5770783298292342  1.0000
  C   C38       1.0  0.0004886945763047166  0.42076835162309556  0.550770196014568  1.0000
  I   I1        1.0  0.5163324811967411  0.8440625419776349  0.14020908552991784  1.0000
  I   I2        1.0  0.81963607451393  0.1550835425042648  0.44376640302846226  1.0000
  I   I3        1.0  0.28954137709655464  0.2351397160013277  0.7261590876738779  1.0000
  I   I4        1.0  0.43405296680766975  0.2187413134867242  0.24193784595772874  1.0000
  N   N1        1.0  0.32421494450270677  0.8111091060007422  0.5087092158913578  1.0000
  N   N2        1.0  0.5567920352400787  0.11759819335050276  0.5435227700388056  1.0000
  O   O1        1.0  0.4067574187770476  0.663907274196077  0.3259536666710403  1.0000
  O   O2        1.0  0.611725289479068  0.47810022884767267  0.30395061959498537  1.0000
  O   O3        1.0  0.6391522583138636  0.61715722618338  0.43415948667624354  1.0000
  O   O4        1.0  0.778311007791096  0.4095504790393034  0.4724218991826846  1.0000
  O   O5        1.0  0.47694417063718914  0.5581161081312727  0.63264875532505  1.0000
  O   O6        1.0  0.5582551440689015  0.3621274820098959  0.634723714013589  1.0000
  O   O7        1.0  0.2541127193025901  0.5946193421958836  0.5262079306618543  1.0000
  O   O8        1.0  0.40384688827215565  0.421866929993392  0.4595026184079529  1.0000
  F   F1        1.0  0.5393518275826991  0.21882950100099655  0.8305202722910534  1.0000
