data_image0
_chemical_formula_structural       Zn4H40C80Br13N25
_chemical_formula_sum              "Zn4 H40 C80 Br13 N25"
_cell_length_a       18.998190402429223
_cell_length_b       19.096859099075957
_cell_length_c       20.498401801059
_cell_angle_alpha    106.08670267025818
_cell_angle_beta     107.63206036308576
_cell_angle_gamma    111.73722363929336

_space_group_name_H-M_alt    "P 1"
_space_group_IT_number       1

loop_
  _space_group_symop_operation_xyz
  'x, y, z'

loop_
  _atom_site_type_symbol
  _atom_site_label
  _atom_site_symmetry_multiplicity
  _atom_site_fract_x
  _atom_site_fract_y
  _atom_site_fract_z
  _atom_site_occupancy
  Zn  Zn1       1.0  0.8954639985707901  0.8980790326249205  0.49753200179795704  1.0000
  Zn  Zn2       1.0  0.11465100195040631  0.11636837965425428  0.5057882080467522  1.0000
  Zn  Zn3       1.0  0.10593264120109323  0.006036284479506504  0.6048793123149494  1.0000
  Zn  Zn4       1.0  0.9062817296310258  0.0008661158621167328  0.3949951339376768  1.0000
  H   H1        1.0  0.3159310057856572  0.17812209349168026  0.531477246050585  1.0000
  H   H2        1.0  0.8982585120850217  0.8670923088700419  0.2593069232412191  1.0000
  H   H3        1.0  0.17178750575229884  0.025451595542712407  0.3901389929162562  1.0000
  H   H4        1.0  0.8760701731128081  0.7429170891035853  0.3683089113987992  1.0000
  H   H5        1.0  0.7160256173588025  0.8678000160268411  0.24288638317962366  1.0000
  H   H6        1.0  0.3063299198251102  0.04926062673812483  0.6747484025847257  1.0000
  H   H7        1.0  0.48105309952326536  0.244970294479181  0.6159867897679591  1.0000
  H   H8        1.0  0.14681050172428203  0.28940482290305886  0.4776712793523786  1.0000
  H   H9        1.0  0.7473845426572441  0.3152363957661919  0.6061808259846515  1.0000
  H   H10       1.0  0.744260853577302  0.002234422272870498  0.6068132376011165  1.0000
  H   H11       1.0  0.49958790188426866  0.9502205752790616  0.6442425314613018  1.0000
  H   H12       1.0  0.1211014218216349  0.7242243160796845  0.40043249404850195  1.0000
  H   H13       1.0  0.8809116571371975  0.6183218119393957  0.406028032249843  1.0000
  H   H14       1.0  0.8113955011382644  0.3377969956486596  0.36630199099134597  1.0000
  H   H15       1.0  0.890954870182746  0.2659827956677816  0.37209649942873574  1.0000
  H   H16       1.0  0.10022517778446631  0.12413682693451733  0.7451751462468437  1.0000
  H   H17       1.0  0.1784943007843438  0.63171989129615  0.3615218706843848  1.0000
  H   H18       1.0  0.3803578944700874  0.5764510647493921  0.18704019224668397  1.0000
  H   H19       1.0  0.5213216562111926  0.6858715796801322  0.2974694701752085  1.0000
  H   H20       1.0  0.17666025487688594  0.3879134217317031  0.7286356115788449  1.0000
  H   H21       1.0  0.8619074313268485  0.13882460632940058  0.48074434713603154  1.0000
  H   H22       1.0  0.6240220181231068  0.7153074712861739  0.13971154263054347  1.0000
  H   H23       1.0  0.9627096021209242  0.9086418369585234  0.050083214318192494  1.0000
  H   H24       1.0  0.8464501831069529  0.8201310405075122  0.7326951982912534  1.0000
  H   H25       1.0  0.0817392636738035  0.7986571655408597  0.8995104445760164  1.0000
  H   H26       1.0  0.10987456725009542  0.7932100773049202  0.11720964189321856  1.0000
  H   H27       1.0  0.10504142684756353  0.2705399816113072  0.6164379427314229  1.0000
  H   H28       1.0  0.8686952673597191  0.010473389957837939  0.6251265549861672  1.0000
  H   H29       1.0  0.11220721156890083  0.9467049882257115  0.7482241849546654  1.0000
  H   H30       1.0  0.6942893191906452  0.7371317970784691  0.38419457687484754  1.0000
  H   H31       1.0  0.3840206479277056  0.9308629927777545  0.5868374336611382  1.0000
  H   H32       1.0  0.3209439169952618  0.9740762119635633  0.586089464332602  1.0000
  H   H33       1.0  0.0359767085505496  0.1825743621997162  0.795952903168839  1.0000
  H   H34       1.0  0.08371098764050801  0.22787836833753522  0.8930773483929498  1.0000
  H   H35       1.0  0.9818834142587393  0.006532441671879466  0.23725861613187507  1.0000
  H   H36       1.0  0.949719038079607  0.9975380810122514  0.14732523240431303  1.0000
  H   H37       1.0  0.8364181481470683  0.7926048213751999  0.8992493599193594  1.0000
  H   H38       1.0  0.7854436119029345  0.8056293300350748  0.8214382178534622  1.0000
  H   H39       1.0  0.13672198232244884  0.8687133391954092  0.3126396193756875  1.0000
  H   H40       1.0  0.16856889123958751  0.8231158709640669  0.25240220825899945  1.0000
  C   C1        1.0  0.9111915050766727  0.8403669728746195  0.6264581445017612  1.0000
  C   C2        1.0  0.015771113704062104  0.23590013344166036  0.38393705230130587  1.0000
  C   C3        1.0  0.10925038160915082  0.22850041367522783  0.7100830497960189  1.0000
  C   C4        1.0  0.8487530950351359  0.09326825184493974  0.5694180401908611  1.0000
  C   C5        1.0  0.7130069291622476  0.7797592035006815  0.35914535983236834  1.0000
  C   C6        1.0  0.29997296700917525  0.14444329650171986  0.5643955578203972  1.0000
  C   C7        1.0  0.07436882004962804  0.8383202486191622  0.4958356739469494  1.0000
  C   C8        1.0  0.9636109163282072  0.911075462670567  0.302433360519167  1.0000
  C   C9        1.0  0.10320079937684311  0.9915821279286235  0.36877303103243964  1.0000
  C   C10       1.0  0.9410411775939453  0.7822685974398668  0.41348598838231265  1.0000
  C   C11       1.0  0.7249958006718418  0.8457044481799233  0.28659877897424496  1.0000
  C   C12       1.0  0.08257027784868849  0.2376659690613536  0.4395955005707605  1.0000
  C   C13       1.0  0.2947100309548319  0.07755107979593844  0.6363808245844993  1.0000
  C   C14       1.0  0.6677348393778075  0.7745034265366401  0.2879278272806759  1.0000
  C   C15       1.0  0.34770276849152293  0.11756495669976635  0.6076341035590005  1.0000
  C   C16       1.0  0.006417137922980501  0.7626632034331069  0.43380251402253117  1.0000
  C   C17       1.0  0.03902056690365191  0.9307113107044171  0.29502960252708726  1.0000
  C   C18       1.0  0.4438548739275704  0.0562640176800997  0.6170058953530244  1.0000
  C   C19       1.0  0.4295958724528576  0.12404049035166761  0.615836524887861  1.0000
  C   C20       1.0  0.4921495539959367  0.19318216655630494  0.6171878778026567  1.0000
  C   C21       1.0  0.5680345325737833  0.19778170413810872  0.6181492459501641  1.0000
  C   C22       1.0  0.5840834281210264  0.13119685945301282  0.6223811666024374  1.0000
  C   C23       1.0  0.09810300022646598  0.14901030249727404  0.703495884830751  1.0000
  C   C24       1.0  0.5231545700303856  0.06253330661077426  0.6255691166936401  1.0000
  C   C25       1.0  0.631406470592829  0.26423497472188023  0.6141544029384252  1.0000
  C   C26       1.0  0.7021603105716283  0.26392840948725654  0.6107524772164724  1.0000
  C   C27       1.0  0.7168707455884871  0.19569003603870536  0.6111604578308842  1.0000
  C   C28       1.0  0.6578966821292838  0.13033110848786592  0.6199992326105247  1.0000
  C   C29       1.0  0.6721720475834942  0.062500241749035  0.6228951025298529  1.0000
  C   C30       1.0  0.6133143174624042  0.9994354157323999  0.6337965558909887  1.0000
  C   C31       1.0  0.541620691705532  0.9987422035482681  0.6345725493360135  1.0000
  C   C32       1.0  0.7842838191262019  0.1877508706718558  0.6003271712142961  1.0000
  C   C33       1.0  0.7937170907360812  0.1170902157382374  0.5958496968088058  1.0000
  C   C34       1.0  0.8696398130488208  0.1012878053242263  0.5105689002834313  1.0000
  C   C35       1.0  0.7387122102363934  0.057729602188381156  0.6105611439498022  1.0000
  C   C36       1.0  0.0677230295988309  0.6713842032793238  0.3959768963340479  1.0000
  C   C37       1.0  0.001998962876655201  0.6809660902221069  0.406932423265296  1.0000
  C   C38       1.0  0.9320584687921356  0.6111240086519771  0.3972741041175709  1.0000
  C   C39       1.0  0.9283916809404714  0.5334016210709224  0.381425566626362  1.0000
  C   C40       1.0  0.9979681466316779  0.5245256476620811  0.374500634644214  1.0000
  C   C41       1.0  0.0661931250830179  0.5942462524559032  0.3795586629739559  1.0000
  C   C42       1.0  0.8597222060995192  0.4622488995624394  0.3755086546291579  1.0000
  C   C43       1.0  0.8627169898108492  0.3905785663780677  0.36855209137612394  1.0000
  C   C44       1.0  0.9342726643075707  0.3834820840927832  0.36585034432711444  1.0000
  C   C45       1.0  0.10210530399318433  0.22435130555577842  0.6382518355509248  1.0000
  C   C46       1.0  0.0015994206242311002  0.44946510219887875  0.36563349076332224  1.0000
  C   C47       1.0  0.07205496143531323  0.4399541222450125  0.3595738379043212  1.0000
  C   C48       1.0  0.13202529261304363  0.5081716300844761  0.3527614127812981  1.0000
  C   C49       1.0  0.13046950719530065  0.5817097745284343  0.3652564955033881  1.0000
  C   C50       1.0  0.9405960392455059  0.31363193763029074  0.3677004935925013  1.0000
  C   C51       1.0  0.011427459612036702  0.3059291233991104  0.3698402297637742  1.0000
  C   C52       1.0  0.0752254100416536  0.3678763101808116  0.36349279741695983  1.0000
  C   C53       1.0  0.5829096036473446  0.7103881957005528  0.22651188081908907  1.0000
  C   C54       1.0  0.5701322074080437  0.6875564117444881  0.15082500075165942  1.0000
  C   C55       1.0  0.49104481233325  0.6278486826773317  0.0894091626054845  1.0000
  C   C56       1.0  0.8725626196977886  0.035349222893067675  0.5838764513777549  1.0000
  C   C57       1.0  0.4203178618105597  0.5878927255718693  0.10186185641321546  1.0000
  C   C58       1.0  0.43473197489371534  0.6092181999966186  0.17816501342495172  1.0000
  C   C59       1.0  0.5134401304495243  0.6695677547289379  0.23936902841241905  1.0000
  C   C60       1.0  0.1918034313957051  0.37304817125769313  0.9161361001517321  1.0000
  C   C61       1.0  0.1389281477556352  0.299284322652781  0.8470505620126829  1.0000
  C   C62       1.0  0.2430269331980881  0.45166338328560585  0.9198695913566084  1.0000
  C   C63       1.0  0.1400647308057259  0.30330675333321716  0.7788069620632072  1.0000
  C   C64       1.0  0.1794445464048309  0.3828024703590103  0.7808204320316534  1.0000
  C   C65       1.0  0.22778837774171026  0.4550477023014566  0.8488849807734765  1.0000
  C   C66       1.0  0.9646904608431515  0.8218309629964508  0.7507071936535895  1.0000
  C   C67       1.0  0.9491694754746122  0.15324722699912025  0.3544315869458715  1.0000
  C   C68       1.0  0.028429377518186503  0.8100217610493557  0.7963541382755038  1.0000
  C   C69       1.0  0.029782268579097607  0.8017349408120539  0.8615103752734399  1.0000
  C   C70       1.0  0.9649793161109771  0.8004854239285278  0.8818005440701598  1.0000
  C   C71       1.0  0.8932421769942424  0.7986678273810102  0.8306096047500233  1.0000
  C   C72       1.0  0.8964782994769324  0.8121817074989794  0.7674237646962183  1.0000
  C   C73       1.0  0.9945620376707752  0.8933530039755694  0.09328437031106054  1.0000
  C   C74       1.0  0.9988591300540294  0.9222487822732645  0.16547025297149534  1.0000
  C   C75       1.0  0.033198023004572995  0.8456985529278498  0.07605839778702264  1.0000
  C   C76       1.0  0.041319666716241016  0.9023416415712404  0.221512747220018  1.0000
  C   C77       1.0  0.08256487979281962  0.8566791496088372  0.20425317570073528  1.0000
  C   C78       1.0  0.048128119385531014  0.9163362599737466  0.7028016160446384  1.0000
  C   C79       1.0  0.07937787896934621  0.8294189692807592  0.13173638085210368  1.0000
  C   C80       1.0  0.9728935457979945  0.8532453337094879  0.6944203236975709  1.0000
  Br  Br1       1.0  0.7935126042816805  0.7640892494038455  0.5719528971224008  1.0000
  Br  Br2       1.0  0.1776581022172081  0.8551424185806554  0.5639535846431656  1.0000
  Br  Br3       1.0  0.6164999153473262  0.35704652670152365  0.6111002553676315  1.0000
  Br  Br4       1.0  0.8641650177432965  0.2756042109156168  0.5902741373773281  1.0000
  Br  Br5       1.0  0.6344563059564693  0.9125626338227237  0.6466728236948001  1.0000
  Br  Br6       1.0  0.7631789396040176  0.46803987489182225  0.3799917158107676  1.0000
  Br  Br7       1.0  0.1682753888522726  0.3502557188316829  0.36518732095069584  1.0000
  Br  Br8       1.0  0.21384541919623962  0.5032257718125024  0.31802883865461234  1.0000
  Br  Br9       1.0  0.18973951227249594  0.36188477710853567  0.005231532603929198  1.0000
  Br  Br10      1.0  0.48861034476452403  0.598298154980995  0.991807568032172  1.0000
  Br  Br11      1.0  0.27986068431575006  0.559409351677047  0.8456126089704483  1.0000
  Br  Br12      1.0  0.1150099956474264  0.8043118335954703  0.7692686430000109  1.0000
  Br  Br13      1.0  0.8374897142892764  0.09690915632183572  0.27554562766788854  1.0000
  N   N1        1.0  0.946226432427878  0.8907272797971189  0.5973272684297087  1.0000
  N   N2        1.0  0.22503585249256025  0.12145181634073773  0.5668292712816054  1.0000
  N   N3        1.0  0.051958467056771  0.8977997867740869  0.5104899687522462  1.0000
  N   N4        1.0  0.9818149976424451  0.9581116616946801  0.3739265184038985  1.0000
  N   N5        1.0  0.0675791173873677  0.007460053900707906  0.41519277272111305  1.0000
  N   N6        1.0  0.9689561540867687  0.8626008050632523  0.4596732282527754  1.0000
  N   N7        1.0  0.7980290374887178  0.8896913760297166  0.3516380327829367  1.0000
  N   N8        1.0  0.22151978702807182  0.07918431230077522  0.6112577898380209  1.0000
  N   N9        1.0  0.3386697255739506  0.5223377951896637  0.04661989444471706  1.0000
  N   N10       1.0  0.3143525450538577  0.523500630973267  0.9821719105497309  1.0000
  N   N11       1.0  0.967511670675826  0.8112547117116903  0.9523533397944419  1.0000
  N   N12       1.0  0.0574357807443917  0.1632841463516499  0.4422482977776809  1.0000
  N   N13       1.0  0.030261547577744408  0.816516021458611  0.0033780087272604403  1.0000
  N   N14       1.0  0.0873301607716428  0.10374299960432863  0.6345802897024057  1.0000
  N   N15       1.0  0.9011522711815445  0.050624724428558726  0.491280756632122  1.0000
  N   N16       1.0  0.08998227870755221  0.14982019269308472  0.5944906717629763  1.0000
  N   N17       1.0  0.9031285552160783  0.010175259723581598  0.5364130614854687  1.0000
  N   N18       1.0  0.9737667996143103  0.11008918951576172  0.3888553235555607  1.0000
  N   N19       1.0  0.0321508668816506  0.9384457183386702  0.645622069204741  1.0000
  N   N20       1.0  0.7910598351317192  0.848418357178659  0.39668902662912603  1.0000
  N   N21       1.0  0.38109843462513754  0.9835820431707915  0.6092423566782585  1.0000
  N   N22       1.0  0.0907406229212597  0.2229983233878272  0.8449999821743218  1.0000
  N   N23       1.0  0.959339954719532  0.9688877422447394  0.18136433927895734  1.0000
  N   N24       1.0  0.8255487144322514  0.7870963588841204  0.8458269019861929  1.0000
  N   N25       1.0  0.12259114431086722  0.8352205840148911  0.2580413262784943  1.0000
