data_image0
_chemical_formula_structural       Zn2H22C38N6O10
_chemical_formula_sum              "Zn2 H22 C38 N6 O10"
_cell_length_a       16.131010789950523
_cell_length_b       15.89946791494562
_cell_length_c       17.24972653262802
_cell_angle_alpha    87.67511819683172
_cell_angle_beta     88.9887195274152
_cell_angle_gamma    87.9867564509476

_space_group_name_H-M_alt    "P 1"
_space_group_IT_number       1

loop_
  _space_group_symop_operation_xyz
  'x, y, z'

loop_
  _atom_site_type_symbol
  _atom_site_label
  _atom_site_symmetry_multiplicity
  _atom_site_fract_x
  _atom_site_fract_y
  _atom_site_fract_z
  _atom_site_occupancy
  Zn  Zn1       1.0  0.4919008510007856  0.5873127117939204  0.5021983162691798  1.0000
  Zn  Zn2       1.0  0.5046681083253048  0.4123656919693062  0.49814115341833815  1.0000
  H   H1        1.0  0.9467515320899551  0.4278897935006043  0.3885272176134508  1.0000
  H   H2        1.0  0.04995765304875022  0.5721815073147808  0.6112928947430591  1.0000
  H   H3        1.0  0.5884008319778716  0.13011619824025897  0.3787768659879023  1.0000
  H   H4        1.0  0.410795619321469  0.8699403814023441  0.6223231625676322  1.0000
  H   H5        1.0  0.5816990587258531  0.2884930710343739  0.39046449729799815  1.0000
  H   H6        1.0  0.4156110422460202  0.7116440717822599  0.6102611630106767  1.0000
  H   H7        1.0  0.05327131753388411  0.5662203213338372  0.37987120322281254  1.0000
  H   H8        1.0  0.9433880963576798  0.43381559044390616  0.6198973757418076  1.0000
  H   H9        1.0  0.0456324421254308  0.3514406004679246  0.5084586593666175  1.0000
  H   H10       1.0  0.9510733091440429  0.6485802729104435  0.49131932888448676  1.0000
  H   H11       1.0  0.4808686925073857  0.6146085909902012  0.7478516655631399  1.0000
  H   H12       1.0  0.5488861980076436  0.3875135074656271  0.2536753782594872  1.0000
  H   H13       1.0  0.49457313675061  0.6109583520291295  0.8932142797553981  1.0000
  H   H14       1.0  0.5569240703537447  0.3933085451965112  0.10759963322080075  1.0000
  H   H15       1.0  0.5004581124171636  0.6592930637260322  0.10581665361835493  1.0000
  H   H16       1.0  0.5431824324002648  0.34372653237845435  0.8926291592924758  1.0000
  H   H17       1.0  0.4927530119803905  0.6533490053521405  0.2524108713909713  1.0000
  H   H18       1.0  0.5289068615503398  0.34760672100854606  0.7468092825317216  1.0000
  H   H19       1.0  0.5595665098262544  0.7288074133968931  0.4088749915502704  1.0000
  H   H20       1.0  0.43756582099706526  0.2702427407789402  0.5916533584692801  1.0000
  H   H21       1.0  0.5618019363569787  0.9550124757401689  0.4132925881383188  1.0000
  H   H22       1.0  0.43782227116769695  0.0440268422253709  0.5877815420172683  1.0000
  C   C1        1.0  0.5104640431252891  0.5146163721134726  0.3479859827543238  1.0000
  C   C2        1.0  0.4964565145706106  0.48518853834844583  0.652535201975681  1.0000
  C   C3        1.0  0.5384923978392421  0.44660589987600463  0.22047797386345291  1.0000
  C   C4        1.0  0.49450370070209004  0.5557607906602443  0.7804239307631493  1.0000
  C   C5        1.0  0.5429175614418542  0.449517636199694  0.1401015136808681  1.0000
  C   C6        1.0  0.5023191334806044  0.5540784621509757  0.8603314384987828  1.0000
  C   C7        1.0  0.5274266554297499  0.5266213456615602  0.09888724804383034  1.0000
  C   C8        1.0  0.5203122851359436  0.476972952138297  0.9006289509705427  1.0000
  C   C9        1.0  0.5112120525699098  0.6004377418240382  0.13942610068345834  1.0000
  C   C10       1.0  0.5295627437359798  0.4024802663431117  0.8597310113875027  1.0000
  C   C11       1.0  0.5068866772437347  0.5969878245221165  0.22011123101494692  1.0000
  C   C12       1.0  0.5215057485086304  0.40470242182805544  0.7794836346340548  1.0000
  C   C13       1.0  0.4701436031174779  0.2369632695859707  0.5455089539044239  1.0000
  C   C14       1.0  0.5275421917952842  0.7623536664573293  0.45516182688596996  1.0000
  C   C15       1.0  0.4699441745634659  0.1485098047775111  0.544398220993756  1.0000
  C   C16       1.0  0.528808169808613  0.8507340488429306  0.456565048237785  1.0000
  C   C17       1.0  0.5137934036729915  0.10873796412356998  0.48261402557682254  1.0000
  C   C18       1.0  0.4853957644787387  0.8907693035161444  0.518441298016157  1.0000
  C   C19       1.0  0.5547005179316143  0.15966973522028377  0.4263223580338862  1.0000
  C   C20       1.0  0.44405606844745193  0.8401284437169138  0.5746564685838254  1.0000
  C   C21       1.0  0.551523248488053  0.2460214311439941  0.4323593660577601  1.0000
  C   C22       1.0  0.4462173966750242  0.7538209906653464  0.5684052712775343  1.0000
  C   C23       1.0  0.6603515262038543  0.5048101222180605  0.5027053498949601  1.0000
  C   C24       1.0  0.3365617305628846  0.4951340768656535  0.4977344878539471  1.0000
  C   C25       1.0  0.027883924411654003  0.537030648364457  0.43320932338651386  1.0000
  C   C26       1.0  0.9688589709157541  0.4630029003849359  0.5665956656418913  1.0000
  C   C27       1.0  0.9706786978210573  0.459694544862458  0.4380530576404526  1.0000
  C   C28       1.0  0.026069530742262304  0.5403610654384677  0.5617614838241922  1.0000
  C   C29       1.0  0.7497267202351665  0.5076585966882661  0.5017168415790253  1.0000
  C   C30       1.0  0.2471284602292627  0.49226832169702556  0.498470268224189  1.0000
  C   C31       1.0  0.9727177700656781  0.5826151676356018  0.4951569620029235  1.0000
  C   C32       1.0  0.0240489113393849  0.41743163876077455  0.5046380278677631  1.0000
  C   C33       1.0  0.9130675680679163  0.5055096523493815  0.4999775024292534  1.0000
  C   C34       1.0  0.08371995545033428  0.49455295978956565  0.4998532188479318  1.0000
  C   C35       1.0  0.8253045953366681  0.5080635630867506  0.5006657955961915  1.0000
  C   C36       1.0  0.17151626369751938  0.4919494542201548  0.49932359410219385  1.0000
  C   C37       1.0  0.5192383058344135  0.5198470313403761  0.2612380471740182  1.0000
  C   C38       1.0  0.5039251203025615  0.48138905079832023  0.7391661842037112  1.0000
  N   N1        1.0  0.5242487555304933  0.5361883698928194  0.01723798705813101  1.0000
  N   N2        1.0  0.5279665765061452  0.46761491002612837  0.9820086563309761  1.0000
  N   N3        1.0  0.5097089867233963  0.2830764228884348  0.4913446069953198  1.0000
  N   N4        1.0  0.48745358145707474  0.7165476206544739  0.5091948398418185  1.0000
  N   N5        1.0  0.5188373335109944  0.022330223457480296  0.4743180620206149  1.0000
  N   N6        1.0  0.48081102081609123  0.9771570001571915  0.5267737172261349  1.0000
  O   O1        1.0  0.5010418491756072  0.583632421124463  0.3827059038409646  1.0000
  O   O2        1.0  0.5004204305592593  0.4157477697017669  0.6180268158936428  1.0000
  O   O3        1.0  0.5124315871334418  0.44110019213596263  0.3804334607933769  1.0000
  O   O4        1.0  0.4875609524624593  0.5582048861890031  0.6197709146384299  1.0000
  O   O5        1.0  0.6199336668078389  0.5750916671857951  0.5041887506617544  1.0000
  O   O6        1.0  0.3771197123525738  0.42485952124267357  0.49690287305648456  1.0000
  O   O7        1.0  0.6300719009638414  0.43182931619409703  0.5018999429469916  1.0000
  O   O8        1.0  0.36682356567327906  0.568151665497915  0.49805169440996644  1.0000
  O   O9        1.0  0.5698632524560949  0.8933831407657278  0.40055916394329233  1.0000
  O   O10       1.0  0.42930063097089294  0.10564476041299999  0.600527827009671  1.0000
