data_image0
_chemical_formula_structural       Cu8H44C28N20
_chemical_formula_sum              "Cu8 H44 C28 N20"
_cell_length_a       8.050245910990325
_cell_length_b       10.846869016591876
_cell_length_c       12.266892083409466
_cell_angle_alpha    80.0351557827966
_cell_angle_beta     70.83328491257483
_cell_angle_gamma    68.2245851864442

_space_group_name_H-M_alt    "P 1"
_space_group_IT_number       1

loop_
  _space_group_symop_operation_xyz
  'x, y, z'

loop_
  _atom_site_type_symbol
  _atom_site_label
  _atom_site_symmetry_multiplicity
  _atom_site_fract_x
  _atom_site_fract_y
  _atom_site_fract_z
  _atom_site_occupancy
  Cu  Cu1       1.0  0.8584458216830912  0.5604741619348345  0.5862331994303034  1.0000
  Cu  Cu2       1.0  0.5057229374114418  0.9392518447458899  0.9136307443046762  1.0000
  Cu  Cu3       1.0  0.141551776925965  0.43952368334484504  0.4137730580994941  1.0000
  Cu  Cu4       1.0  0.49427920484044563  0.060737005236489894  0.0863666468045636  1.0000
  Cu  Cu5       1.0  0.2788021793343634  0.8323970618126207  0.46866111575337743  1.0000
  Cu  Cu6       1.0  0.080093035223392  0.6675102240649622  0.03142375137066009  1.0000
  Cu  Cu7       1.0  0.7211997028868  0.16760572469651439  0.5313383775982317  1.0000
  Cu  Cu8       1.0  0.9199057000903113  0.3324826421249938  0.9685813798388664  1.0000
  H   H1        1.0  0.01824090405054341  0.04625689922973209  0.5754355417680586  1.0000
  H   H2        1.0  0.14035323739824443  0.45372852356103993  0.9245283806875833  1.0000
  H   H3        1.0  0.9817636581685608  0.9537458809906165  0.42456262075605605  1.0000
  H   H4        1.0  0.8596418018546291  0.5462692774420359  0.07546874998278957  1.0000
  H   H5        1.0  0.39527075433611697  0.9794525807092924  0.5975417534221635  1.0000
  H   H6        1.0  0.4727049801000622  0.5206245371699507  0.9021809204764466  1.0000
  H   H7        1.0  0.6047354103723351  0.0205472215008982  0.4024576757139684  1.0000
  H   H8        1.0  0.527291131235991  0.47937130555928326  0.0978226515403406  1.0000
  H   H9        1.0  0.29214422946829904  0.10324644239734934  0.5013292377348009  1.0000
  H   H10       1.0  0.3971845863296795  0.3968712618522048  0.9985794277744873  1.0000
  H   H11       1.0  0.7078631489619407  0.8967533666344352  0.49867158826689467  1.0000
  H   H12       1.0  0.6028115040095301  0.6031225652162034  0.0014187310362245456  1.0000
  H   H13       1.0  0.28800109588826933  0.19892254074981958  0.6745582578726896  1.0000
  H   H14       1.0  0.661677629395669  0.3009882761381419  0.8252826667956513  1.0000
  H   H15       1.0  0.7120082442008525  0.8010752808455949  0.32544296892784524  1.0000
  H   H16       1.0  0.3383177943241692  0.6990095355663613  0.17471667244439001  1.0000
  H   H17       1.0  0.05854517755318531  0.2352450220116963  0.6643049979356022  1.0000
  H   H18       1.0  0.4580682741086904  0.2648744023456828  0.8356546304243437  1.0000
  H   H19       1.0  0.9414634706191336  0.764757764092181  0.33569433491141604  1.0000
  H   H20       1.0  0.5419286719075985  0.7351263664989389  0.1643390911023985  1.0000
  H   H21       1.0  0.24575724511878158  0.026949599114764997  0.8187975460974498  1.0000
  H   H22       1.0  0.5918546212003265  0.47306692987305593  0.6811353496854623  1.0000
  H   H23       1.0  0.7542445853826867  0.9730472216106916  0.18120249845117084  1.0000
  H   H24       1.0  0.408145794744691  0.5269358697464597  0.31886687135921227  1.0000
  H   H25       1.0  0.0657047574897974  0.16645926698513588  0.855441549796531  1.0000
  H   H26       1.0  0.5877877063664275  0.3336444757715071  0.6444547079830514  1.0000
  H   H27       1.0  0.9342995564755298  0.8335405376340079  0.1445583984629835  1.0000
  H   H28       1.0  0.4122084874121795  0.6663612828642655  0.35554234843363736  1.0000
  H   H29       1.0  0.9689634906070601  0.9724141293661359  0.8916362752279172  1.0000
  H   H30       1.0  0.33342332646162753  0.5278551785309914  0.6083466430233742  1.0000
  H   H31       1.0  0.031036459553256228  0.027586669173821594  0.1083635528844695  1.0000
  H   H32       1.0  0.6665786844963791  0.4721585596731471  0.3916548223170578  1.0000
  H   H33       1.0  0.8656095064370959  0.096318143954008  0.7951661782389863  1.0000
  H   H34       1.0  0.2572775363967922  0.4039385369921717  0.7047049502893543  1.0000
  H   H35       1.0  0.13439218355058832  0.9036846372044209  0.2048322108277816  1.0000
  H   H36       1.0  0.7427187947198347  0.5960721822722305  0.2952894004697058  1.0000
  H   H37       1.0  0.9812908278430542  0.8725794706102543  0.7177908359214058  1.0000
  H   H38       1.0  0.07200491052167052  0.6275213831031153  0.7822708555087203  1.0000
  H   H39       1.0  0.018709648422834797  0.12742330372657312  0.2822061562797984  1.0000
  H   H40       1.0  0.927994454337018  0.37248539045107515  0.21773033739560785  1.0000
  H   H41       1.0  0.207761926604171  0.8444142794002754  0.7281862840194294  1.0000
  H   H42       1.0  0.2807247943529136  0.6556933635143096  0.7718656153835184  1.0000
  H   H43       1.0  0.7922383827256783  0.1555875097134702  0.27181267827978667  1.0000
  H   H44       1.0  0.7192737105280927  0.3443094637968542  0.22814235362800164  1.0000
  C   C1        1.0  0.04701860846284951  0.6417236015688133  0.516439645620018  1.0000
  C   C2        1.0  0.7053825753649227  0.857974688210483  0.9835995162811387  1.0000
  C   C3        1.0  0.9529777215289531  0.3582791921671812  0.4835614051017529  1.0000
  C   C4        1.0  0.2946092114901475  0.1420201074960445  0.016393293538989384  1.0000
  C   C5        1.0  0.6232378032290175  0.6531839822250305  0.559063401779305  1.0000
  C   C6        1.0  0.33571329657672105  0.8467688231058473  0.9406626624107944  1.0000
  C   C7        1.0  0.3767576371870834  0.34681884067349233  0.4409436894900409  1.0000
  C   C8        1.0  0.6642820248285447  0.15322498255970624  0.059331079260566404  1.0000
  C   C9        1.0  0.35923325818448876  0.9193230315608927  0.3257181843686253  1.0000
  C   C10       1.0  0.10464046683966916  0.5805588909341565  0.174308476914419  1.0000
  C   C11       1.0  0.6407623577688356  0.08067478549433099  0.6742822591562572  1.0000
  C   C12       1.0  0.8953608079581914  0.4194399293999851  0.8256936679857603  1.0000
  C   C13       1.0  0.262957852312127  0.0528563925549079  0.5873448864613096  1.0000
  C   C14       1.0  0.4035311833543529  0.44721518742037597  0.9125412766921174  1.0000
  C   C15       1.0  0.7370480345445289  0.9471444094596251  0.4126555928505978  1.0000
  C   C16       1.0  0.5964631628568996  0.552779652562755  0.08746065998743548  1.0000
  C   C17       1.0  0.18367433949382686  0.1555936935184974  0.6771981979997648  1.0000
  C   C18       1.0  0.5166338009240476  0.34441323527536116  0.8227174241524295  1.0000
  C   C19       1.0  0.8163329576186842  0.8444041251351634  0.3228024436393184  1.0000
  C   C20       1.0  0.48336225981712755  0.6555845671986019  0.1772799990986584  1.0000
  C   C21       1.0  0.9964679457705614  0.0213172529808077  0.8051193895472223  1.0000
  C   C22       1.0  0.32317576784485896  0.47885215959872357  0.6948395261876996  1.0000
  C   C23       1.0  0.0035346843876951444  0.9786835392703637  0.19487910773766975  1.0000
  C   C24       1.0  0.6768236530341126  0.5211575842059587  0.30515877669638763  1.0000
  C   C25       1.0  0.08155536167384314  0.9210057985260532  0.7126341129261177  1.0000
  C   C26       1.0  0.21556045756856454  0.5791071077422245  0.7873844341248245  1.0000
  C   C27       1.0  0.9184430969128813  0.07899599299664568  0.28736536849648087  1.0000
  C   C28       1.0  0.784437829781524  0.42089669409058683  0.2126193562190081  1.0000
  N   N1        1.0  0.12500284136586967  0.7199493623546971  0.4973141002301348  1.0000
  N   N2        1.0  0.8424309608917114  0.7798235179171087  0.002842049270959924  1.0000
  N   N3        1.0  0.8749957534340498  0.280049464268231  0.502689375497546  1.0000
  N   N4        1.0  0.15758502071231115  0.22016035604485754  0.9971547062129316  1.0000
  N   N5        1.0  0.4854110921291269  0.7192071663347335  0.5345495388859334  1.0000
  N   N6        1.0  0.2393274059063303  0.7807687745420608  0.9652105883200833  1.0000
  N   N7        1.0  0.5145890459640867  0.2807966330891318  0.4654537323345238  1.0000
  N   N8        1.0  0.7606658036002757  0.21923104453079392  0.0347924746797403  1.0000
  N   N9        1.0  0.4181291432267145  0.971612172891895  0.23630727635840995  1.0000
  N   N10       1.0  0.1262587275423358  0.5282901688970298  0.2637379009066336  1.0000
  N   N11       1.0  0.5818750980220672  0.028379650282737097  0.7636878098920405  1.0000
  N   N12       1.0  0.8737391446179293  0.4717096721114941  0.7362696452706174  1.0000
  N   N13       1.0  0.13676136006566966  0.9800133595855057  0.5946599564509399  1.0000
  N   N14       1.0  0.2117880859639529  0.5199907888262061  0.905324156276734  1.0000
  N   N15       1.0  0.8632415436438022  0.0199894283945099  0.4053398294813988  1.0000
  N   N16       1.0  0.7882080813923905  0.48000802415352684  0.09467652571981937  1.0000
  N   N17       1.0  0.12837635099793948  0.0925036980390672  0.7955812608048873  1.0000
  N   N18       1.0  0.5167070670463689  0.4075808407837939  0.7043474920272387  1.0000
  N   N19       1.0  0.8716261122242701  0.9074961089890292  0.20441920657800955  1.0000
  N   N20       1.0  0.48329009220024954  0.5924219490723672  0.2956527469904202  1.0000
