data_image0
_chemical_formula_structural       Cd2H58C48S8N10
_chemical_formula_sum              "Cd2 H58 C48 S8 N10"
_cell_length_a       9.567495069600547
_cell_length_b       11.055724697
_cell_length_c       12.989
_cell_angle_alpha    90.0
_cell_angle_beta     100.03166465118147
_cell_angle_gamma    90.0

_space_group_name_H-M_alt    "P 1"
_space_group_IT_number       1

loop_
  _space_group_symop_operation_xyz
  'x, y, z'

loop_
  _atom_site_type_symbol
  _atom_site_label
  _atom_site_symmetry_multiplicity
  _atom_site_fract_x
  _atom_site_fract_y
  _atom_site_fract_z
  _atom_site_occupancy
  Cd  Cd1       1.0  0.0772553568183909  0.11792985405595148  0.2842999937518798  1.0000
  Cd  Cd2       1.0  0.9227442485407309  0.6179296416320668  0.7157003405538732  1.0000
  H   H1        1.0  0.9509730655140346  0.5533748503759455  0.33818750068440556  1.0000
  H   H2        1.0  0.0490254784118491  0.0533732537822829  0.661811927549387  1.0000
  H   H3        1.0  0.0216787124595896  0.6771261229063867  0.2764461788439831  1.0000
  H   H4        1.0  0.978319831466294  0.1771254308214978  0.7235532493898091  1.0000
  H   H5        1.0  0.0665953828058718  0.6963912553004475  0.47597635430390994  1.0000
  H   H6        1.0  0.93340422255325  0.19639056321555867  0.5240247498840489  1.0000
  H   H7        1.0  0.22745665150757327  0.6907643062125359  0.42561443094562895  1.0000
  H   H8        1.0  0.7725408309850721  0.19076361412764697  0.5743848610984089  1.0000
  H   H9        1.0  0.1644584659463888  0.5595716399919652  0.4830829172737907  1.0000
  H   H10       1.0  0.8355400779794948  0.0595709479070763  0.5169149711955825  1.0000
  H   H11       1.0  0.3356814459206348  0.5136623926191817  0.23331986007772806  1.0000
  H   H12       1.0  0.6643170980052489  0.0136626050430664  0.7666803380382704  1.0000
  H   H13       1.0  0.2674525173609723  0.6588396690066389  0.2577236395138982  1.0000
  H   H14       1.0  0.7325470879981495  0.15883897692174997  0.7422759249096488  1.0000
  H   H15       1.0  0.2641599514556816  0.41728517364871454  0.05746593368979801  1.0000
  H   H16       1.0  0.7358396539034402  0.9172849612248228  0.942534400615955  1.0000
  H   H17       1.0  0.1407301259035876  0.44079697474037255  0.8726660033011768  1.0000
  H   H18       1.0  0.8592694794555343  0.940798571334035  0.12733510088678202  1.0000
  H   H19       1.0  0.9628664249494889  0.7670243455230974  0.9370574132592537  1.0000
  H   H20       1.0  0.0371331804096329  0.2670227489294348  0.06294061139987411  1.0000
  H   H21       1.0  0.0799789945079397  0.7580742311966445  0.12550248614689252  1.0000
  H   H22       1.0  0.9200227337176586  0.2580726346029749  0.8744958108917446  1.0000
  H   H23       1.0  0.4662303042021847  0.0013368639691294  0.5789947210354002  1.0000
  H   H24       1.0  0.5337682397236989  0.5013375560540183  0.42100316743397315  1.0000
  H   H25       1.0  0.5998286601774581  0.8915534955998581  0.5696940062839175  1.0000
  H   H26       1.0  0.4001709451816637  0.3915546125325164  0.4303047882574162  1.0000
  H   H27       1.0  0.46023851357183077  0.8297619786506871  0.7052588038448776  1.0000
  H   H28       1.0  0.5397600303540528  0.3297621910745717  0.2947390846244958  1.0000
  H   H29       1.0  0.43167534512845407  0.7257353289718935  0.5998224386065801  1.0000
  H   H30       1.0  0.5683231987974295  0.2257355413957782  0.4001754498627933  1.0000
  H   H31       1.0  0.2992488114482938  0.8367692081289134  0.6119334498750888  1.0000
  H   H32       1.0  0.700750793910828  0.33677032506157895  0.388063804901833  1.0000
  H   H33       1.0  0.4512502969096772  0.7822191884306448  0.3169548830606814  1.0000
  H   H34       1.0  0.548751431315921  0.2822194008545296  0.6830441838601616  1.0000
  H   H35       1.0  0.5523454442608937  0.7363388853386539  0.43857653647113193  1.0000
  H   H36       1.0  0.44765203823175176  0.2363409067800859  0.5614219856906999  1.0000
  H   H37       1.0  0.7978316007546908  0.7496613950824056  0.4299803047458398  1.0000
  H   H38       1.0  0.2021701274709073  0.24966251201506398  0.5700179922927973  1.0000
  H   H39       1.0  0.0025113510418819  0.8709623533419658  0.38575220417092754  1.0000
  H   H40       1.0  0.9974925000501926  0.37096437478339783  0.614247135129432  1.0000
  H   H41       1.0  0.7348684424903738  0.142463750063115  0.2506382880304727  1.0000
  H   H42       1.0  0.265131162868748  0.6424662511655512  0.7493643559219053  1.0000
  H   H43       1.0  0.5196076588911751  0.0347566541797377  0.2907406521051001  1.0000
  H   H44       1.0  0.4803951307676613  0.5347573462646267  0.7092639401809535  1.0000
  H   H45       1.0  0.3126823105125638  0.0249671557102786  0.7678182807349003  1.0000
  H   H46       1.0  0.6873130491136052  0.5249660387776202  0.2321822786940473  1.0000
  H   H47       1.0  0.3364690293834727  0.1118660272298229  0.09381971185888462  1.0000
  H   H48       1.0  0.6635348217086019  0.6118621967708364  0.9061819370880928  1.0000
  H   H49       1.0  0.498878929179888  0.28359877673607053  0.0677230071743224  1.0000
  H   H50       1.0  0.5011259833454247  0.7835922327507631  0.9322795478446154  1.0000
  H   H51       1.0  0.5599580434461799  0.3155822070123335  0.8889758777301395  1.0000
  H   H52       1.0  0.4400426233461801  0.8155810900796681  0.11102305300095588  1.0000
  H   H53       1.0  0.2639826921048822  0.8802308547571441  0.9935537450859684  1.0000
  H   H54       1.0  0.736019036120716  0.3802256401283799  0.0064499411281247095  1.0000
  H   H55       1.0  0.1705256183366615  0.9110547047841349  0.8655666669978929  1.0000
  H   H56       1.0  0.8294750484556985  0.4110522036816988  0.1344368830264457  1.0000
  H   H57       1.0  0.1208760171806773  0.9826682825186451  0.9765855845017344  1.0000
  H   H58       1.0  0.8791246496116827  0.4826648769074352  0.02341950528701632  1.0000
  C   C1        1.0  0.1166408985597585  0.3933373993276064  0.2818571077008372  1.0000
  C   C2        1.0  0.8833587067993632  0.8933371869037217  0.7181432266049157  1.0000
  C   C3        1.0  0.0495020619358542  0.5993483178717369  0.3287273380469173  1.0000
  C   C4        1.0  0.9504964819900295  0.099347625786848  0.6712720901868751  1.0000
  C   C5        1.0  0.1321855883350551  0.6390779612952215  0.4343135359716186  1.0000
  C   C6        1.0  0.8678118941575903  0.1390763647015589  0.5656857560724191  1.0000
  C   C7        1.0  0.2399794408533538  0.5698577137787808  0.2224425387970257  1.0000
  C   C8        1.0  0.7600191030725298  0.0698570216938919  0.7775561195545535  1.0000
  C   C9        1.0  0.1789321695842148  0.5845505543163227  0.10779934327865702  1.0000
  C   C10       1.0  0.8210663743416688  0.0845480532138865  0.8921993150729223  1.0000
  C   C11       1.0  0.1982587459876726  0.49622979500282577  0.0341654517038918  1.0000
  C   C12       1.0  0.8017408593714492  0.9962295825789411  0.965834882601861  1.0000
  C   C13       1.0  0.1293430701228147  0.5090584429555491  0.9313065840727219  1.0000
  C   C14       1.0  0.8706544123698308  0.0090577508706602  0.0686942477357277  1.0000
  C   C15       1.0  0.0304525196076  0.6909705342131857  0.9675973294626417  1.0000
  C   C16       1.0  0.9695470857515217  0.19096803311074947  0.03239992531428018  1.0000
  C   C17       1.0  0.0944909097423476  0.6846326412282976  0.072253994365461  1.0000
  C   C18       1.0  0.9055118799164888  0.184631044634628  0.9277452087451367  1.0000
  C   C19       1.0  0.3124679009984206  0.9501810408548366  0.3967429607194931  1.0000
  C   C20       1.0  0.6875317043607012  0.45018034876994756  0.603255063939642  1.0000
  C   C21       1.0  0.4847332084127062  0.9074420967376609  0.5573022630027324  1.0000
  C   C22       1.0  0.5152642740799394  0.4074423091615457  0.4426962591590993  1.0000
  C   C23       1.0  0.4138390209916025  0.8194867589691767  0.6222663719146411  1.0000
  C   C24       1.0  0.5861605843675193  0.3194869713930615  0.3777324226266927  1.0000
  C   C25       1.0  0.5163341987841719  0.8151478303765529  0.38945683506665324  1.0000
  C   C26       1.0  0.48366434514170453  0.3151489473092113  0.6105425931671391  1.0000
  C   C27       1.0  0.6424207917318014  0.8825156439222397  0.3630540345822126  1.0000
  C   C28       1.0  0.3575809364937967  0.3825158563461315  0.6369481118674686  1.0000
  C   C29       1.0  0.7796396964830024  0.8358873120735025  0.3891882226162977  1.0000
  C   C30       1.0  0.2203641546090722  0.3358884290061681  0.6108134263306795  1.0000
  C   C31       1.0  0.8930177492681396  0.9019408743694441  0.36433905502071445  1.0000
  C   C32       1.0  0.10698397895745869  0.4019428958108762  0.6356561624890915  1.0000
  C   C33       1.0  0.7434968332847305  0.0546269029441291  0.2897875640849819  1.0000
  C   C34       1.0  0.2565038335076295  0.5546294040465654  0.7102144461749448  1.0000
  C   C35       1.0  0.6248731774357807  0.994953320697725  0.3124724200798212  1.0000
  C   C36       1.0  0.3751274893565792  0.49495353312160967  0.6875295901800982  1.0000
  C   C37       1.0  0.3532640875135229  0.0802118381475836  0.8365836191615017  1.0000
  C   C38       1.0  0.6467365792788371  0.5802089121973708  0.16341762121621883  1.0000
  C   C39       1.0  0.3111750753141393  0.054133945661867196  0.9323619765103076  1.0000
  C   C40       1.0  0.6888234686117443  0.5541319242204352  0.06763745172348481  1.0000
  C   C41       1.0  0.3657476038294831  0.1284918030190738  0.017410075473719616  1.0000
  C   C42       1.0  0.6342541243961151  0.6284852590337593  0.9825920709759545  1.0000
  C   C43       1.0  0.4559747362534736  0.2236958741086497  0.0031273120193234098  1.0000
  C   C44       1.0  0.5440248691056482  0.7236938526672104  0.9968737921686356  1.0000
  C   C45       1.0  0.4902961800147736  0.2415843441474976  0.9039833904973378  1.0000
  C   C46       1.0  0.50970236391111  0.7415823227060585  0.0960191172652856  1.0000
  C   C47       1.0  0.2115086171017069  0.9517159922456386  0.9420214865372571  1.0000
  C   C48       1.0  0.7884920496906531  0.4517125866344286  0.0579820634870813  1.0000
  S   S1        1.0  0.23420205973714298  0.2988795479772222  0.23482851949550115  1.0000
  S   S2        1.0  0.7657975456219788  0.7988784310445638  0.765171044928046  1.0000
  S   S3        1.0  0.9789991487388221  0.3338858465788022  0.33487222236514924  1.0000
  S   S4        1.0  0.0210015180535379  0.833883825137363  0.6651305577769834  1.0000
  S   S5        1.0  0.2253306007312048  0.04632260788286399  0.46764128102391583  1.0000
  S   S6        1.0  0.7746679431946788  0.5463242044765266  0.5323573773276706  1.0000
  S   S7        1.0  0.2496130089244133  0.9271006904487535  0.26497892805283396  1.0000
  S   S8        1.0  0.7503887193011849  0.4270981893463102  0.735017829221384  1.0000
  N   N1        1.0  0.133493274084671  0.5146663973591856  0.2772236421734107  1.0000
  N   N2        1.0  0.8665042084079743  0.014665705274296698  0.7227741101062152  1.0000
  N   N3        1.0  0.0460279909468113  0.604220906641487  0.8980113603273594  1.0000
  N   N4        1.0  0.9539716144123105  0.10422473710047339  0.10198743421397441  1.0000
  N   N5        1.0  0.4306425705875583  0.8928514656916633  0.4449143466396706  1.0000
  N   N6        1.0  0.5693570347715635  0.3928516781155551  0.5550836780194572  1.0000
  N   N7        1.0  0.8752918141880813  0.0089953397651996  0.31507184603500354  1.0000
  N   N8        1.0  0.12470885260427879  0.5089960318500886  0.684927084696092  1.0000
  N   N9        1.0  0.44086417267264716  0.1708915563457083  0.8217297418749466  1.0000
  N   N10       1.0  0.55913224838676  0.6708904394130428  0.17827095374375554  1.0000
