data_image0
_chemical_formula_structural       Zn4H34C38N2O18
_chemical_formula_sum              "Zn4 H34 C38 N2 O18"
_cell_length_a       7.708306663929924
_cell_length_b       10.868921837905308
_cell_length_c       12.47074611659122
_cell_angle_alpha    107.94721398029465
_cell_angle_beta     91.54340423409641
_cell_angle_gamma    101.25183444425893

_space_group_name_H-M_alt    "P 1"
_space_group_IT_number       1

loop_
  _space_group_symop_operation_xyz
  'x, y, z'

loop_
  _atom_site_type_symbol
  _atom_site_label
  _atom_site_symmetry_multiplicity
  _atom_site_fract_x
  _atom_site_fract_y
  _atom_site_fract_z
  _atom_site_occupancy
  Zn  Zn1       1.0  0.1472881936505743  0.5016969256040439  0.10419952600356916  1.0000
  Zn  Zn2       1.0  0.8527121896420555  0.49829989838045213  0.8957989241482168  1.0000
  Zn  Zn3       1.0  0.5107751530129079  0.6509690712900988  0.0404344833849777  1.0000
  Zn  Zn4       1.0  0.4892245159190693  0.3490297248662344  0.9595653094463827  1.0000
  H   H1        1.0  0.2524554665571443  0.4788420921608533  0.9135230830695563  1.0000
  H   H2        1.0  0.7475426178188443  0.5211557165266995  0.08647641638982151  1.0000
  H   H3        1.0  0.7807580998732463  0.8042736546183209  0.38748363329618485  1.0000
  H   H4        1.0  0.21923867994581767  0.19572416684516716  0.6125150525765477  1.0000
  H   H5        1.0  0.8576216133892914  0.9342347497185411  0.5932954730829039  1.0000
  H   H6        1.0  0.14237730343434413  0.06576606997654719  0.4067016665586181  1.0000
  H   H7        1.0  0.6213157504914123  0.9839925693909423  0.7188057146919392  1.0000
  H   H8        1.0  0.37868476598728046  0.016009217226155704  0.2811933166693379  1.0000
  H   H9        1.0  0.225701724230575  0.7675564229594087  0.4385959090645883  1.0000
  H   H10       1.0  0.7742961906838061  0.232445378936184  0.561402294297288  1.0000
  H   H11       1.0  0.3765662276766975  0.0804776080206224  0.7681252585766317  1.0000
  H   H12       1.0  0.6234311423386388  0.9195221728387606  0.23187558356232066  1.0000
  H   H13       1.0  0.3800401818728929  0.9390866420240582  0.8120060281529148  1.0000
  H   H14       1.0  0.6199594795095464  0.060912164405657214  0.18799296550456293  1.0000
  H   H15       1.0  0.06828326449510772  0.7844820422973128  0.8026995561848622  1.0000
  H   H16       1.0  0.9317155644396847  0.21551375312485993  0.19730179729047143  1.0000
  H   H17       1.0  0.6768973022656155  0.0030743407308832984  0.9461730487375206  1.0000
  H   H18       1.0  0.32310526332881306  0.9969254198449065  0.05382865022635743  1.0000
  H   H19       1.0  0.14121325187551287  0.19729191362261383  0.8309585963896708  1.0000
  H   H20       1.0  0.8587910450879052  0.8027048720340632  0.16904229452204345  1.0000
  H   H21       1.0  0.029272066105313937  0.5788105143257384  0.3461131154300928  1.0000
  H   H22       1.0  0.9707301666432926  0.4211883179190181  0.6538835095312621  1.0000
  H   H23       1.0  0.5002584172431668  0.46304162654699604  0.29371699246836164  1.0000
  H   H24       1.0  0.4997426743327225  0.5369621400127755  0.70628259681137  1.0000
  H   H25       1.0  0.555026233366071  0.3286402497034757  0.3315938410094432  1.0000
  H   H26       1.0  0.444973576301507  0.6713634988120845  0.668407332205298  1.0000
  H   H27       1.0  0.6203126120486715  0.355269217028571  0.2024186349067847  1.0000
  H   H28       1.0  0.379687919529104  0.6447325490417696  0.7975819948022576  1.0000
  H   H29       1.0  0.9136191033438906  0.5977224902637913  0.5065912803242654  1.0000
  H   H30       1.0  0.08638429469818479  0.4022802813195411  0.4934080588217639  1.0000
  H   H31       1.0  0.7522769744556612  0.4542616244284191  0.5072254373906163  1.0000
  H   H32       1.0  0.2477267111350088  0.5457421371262469  0.49277418071464046  1.0000
  H   H33       1.0  0.6838889504048069  0.5999179493470236  0.500038569800175  1.0000
  H   H34       1.0  0.3161144400877234  0.4000848325096912  0.49995997017196464  1.0000
  C   C1        1.0  0.4454630171715975  0.6970343906126714  0.27931749670469236  1.0000
  C   C2        1.0  0.5545346177437196  0.30296641103820576  0.7206812268718394  1.0000
  C   C3        1.0  0.4982009676534318  0.7747617349790586  0.40149615548656925  1.0000
  C   C4        1.0  0.5017956502535625  0.22524006941909394  0.5985020334625376  1.0000
  C   C5        1.0  0.6773411026916635  0.8236168125762547  0.4443390657159797  1.0000
  C   C6        1.0  0.3226559495769195  0.17638201940533796  0.555658300768215  1.0000
  C   C7        1.0  0.7190237436355104  0.8967163223392376  0.5585678874078753  1.0000
  C   C8        1.0  0.2809746131900042  0.10328249686641301  0.4414302926629574  1.0000
  C   C9        1.0  0.5853521761495274  0.9244512711626741  0.6304836884946853  1.0000
  C   C10       1.0  0.4146448912181313  0.07554754027214731  0.3695152763372747  1.0000
  C   C11       1.0  0.4067153464359592  0.8766273327375984  0.5868510849523432  1.0000
  C   C12       1.0  0.5932820084803011  0.12337246866855615  0.41314815883883677  1.0000
  C   C13       1.0  0.36440279150727406  0.8012809701253116  0.47273039620259993  1.0000
  C   C14       1.0  0.6355938263997203  0.19872083427284082  0.5272677927465139  1.0000
  C   C15       1.0  0.3007112653283883  0.9824876805744651  0.7641920903324007  1.0000
  C   C16       1.0  0.6992871065962021  0.0175111180844212  0.2358076880861972  1.0000
  C   C17       1.0  0.12476241970382773  0.9902048702611737  0.8110386941588814  1.0000
  C   C18       1.0  0.8752392907943474  0.009791910127226801  0.18896296710119737  1.0000
  C   C19       1.0  0.021951930816548844  0.876964129886268  0.8257096327102432  1.0000
  C   C20       1.0  0.9780474656659023  0.1230336557519607  0.1742914795096553  1.0000
  C   C21       1.0  0.8603709581801694  0.8803313514418676  0.8737656664728846  1.0000
  C   C22       1.0  0.13962974285921348  0.11966642142041907  0.126236259333659  1.0000
  C   C23       1.0  0.8009474580421807  0.9986799583212546  0.906889539653662  1.0000
  C   C24       1.0  0.19905324299719504  0.0013178145410322002  0.09311238615288889  1.0000
  C   C25       1.0  0.9016806875493585  0.11275657836788608  0.8908895426851516  1.0000
  C   C26       1.0  0.09832028593955047  0.8872422050125054  0.10911106373286132  1.0000
  C   C27       1.0  0.0631841150934704  0.10803220403473551  0.8425542136028668  1.0000
  C   C28       1.0  0.9368150013899238  0.8919645813587704  0.15744741883169408  1.0000
  C   C29       1.0  0.8322419388800029  0.23763915128419902  0.9246355874471773  1.0000
  C   C30       1.0  0.16776032406674804  0.7623596398670216  0.07536423420970813  1.0000
  C   C31       1.0  0.762376202843022  0.7580351128202665  0.894932587505636  1.0000
  C   C32       1.0  0.23762349628710672  0.24196364224253133  0.1050704020212621  1.0000
  C   C33       1.0  0.9065881289649269  0.5192802910435574  0.29311891890846203  1.0000
  C   C34       1.0  0.09341369962023555  0.4807214725242233  0.706881725213343  1.0000
  C   C35       1.0  0.6014854696185951  0.40389134995636067  0.290882135029925  1.0000
  C   C36       1.0  0.3985143324994453  0.5961124088325818  0.7091182390109338  1.0000
  C   C37       1.0  0.7807521761886066  0.5371535164940512  0.47285737421598384  1.0000
  C   C38       1.0  0.2192512218534688  0.4628492550892815  0.5271419649300455  1.0000
  N   N1        1.0  0.7699791042818092  0.48684799923666583  0.3497543052593457  1.0000
  N   N2        1.0  0.2300229967528793  0.5131547748492196  0.6502450194739211  1.0000
  O   O1        1.0  0.3200744295311821  0.482612065929608  0.982899470858385  1.0000
  O   O2        1.0  0.6799262488595872  0.5173857377528321  0.017100057426510797  1.0000
  O   O3        1.0  0.2837151738738299  0.6372544112365118  0.2523362697425497  1.0000
  O   O4        1.0  0.7162821734928925  0.3627454004430319  0.7476621748747477  1.0000
  O   O5        1.0  0.5664817636243386  0.6969613607738552  0.21117343680148795  1.0000
  O   O6        1.0  0.433516600750714  0.3030374481584133  0.7888255424432273  1.0000
  O   O7        1.0  0.2646469210888823  0.8972365456740191  0.6476449139458681  1.0000
  O   O8        1.0  0.7353520259329045  0.10276423292754086  0.3523554223911916  1.0000
  O   O9        1.0  0.6669230150044995  0.2228932232497556  0.9336256703937734  1.0000
  O   O10       1.0  0.33307666147701553  0.7771055626331888  0.06637492161146956  1.0000
  O   O11       1.0  0.9426258188733456  0.34833285260617686  0.9396693659945967  1.0000
  O   O12       1.0  0.05737485951742371  0.6516649510762633  0.06033016229029902  1.0000
  O   O13       1.0  0.6380970644813289  0.7707559208511299  0.9604121065076473  1.0000
  O   O14       1.0  0.36190580376077713  0.22924480914922185  0.039591469763230705  1.0000
  O   O15       1.0  0.812003659521018  0.6513651976617041  0.8453319631158395  1.0000
  O   O16       1.0  0.18799574451097095  0.3486325777031354  0.15466994827794883  1.0000
  O   O17       1.0  0.9018705065842312  0.48513775540660486  0.1867918090389864  1.0000
  O   O18       1.0  0.09812942724773423  0.5148620615412157  0.8132058652299534  1.0000
