data_image0
_chemical_formula_structural       Zn6H84C132N6O24
_chemical_formula_sum              "Zn6 H84 C132 N6 O24"
_cell_length_a       15.265921180406027
_cell_length_b       15.311884197544327
_cell_length_c       18.224604189752068
_cell_angle_alpha    84.16721850319749
_cell_angle_beta     74.24783161702722
_cell_angle_gamma    80.12970507423486

_space_group_name_H-M_alt    "P 1"
_space_group_IT_number       1

loop_
  _space_group_symop_operation_xyz
  'x, y, z'

loop_
  _atom_site_type_symbol
  _atom_site_label
  _atom_site_symmetry_multiplicity
  _atom_site_fract_x
  _atom_site_fract_y
  _atom_site_fract_z
  _atom_site_occupancy
  Zn  Zn1       1.0  0.7317889149694422  0.3236991473500056  0.41228493173896646  1.0000
  Zn  Zn2       1.0  0.26821528114116683  0.6762983284829716  0.587715767367456  1.0000
  Zn  Zn3       1.0  0.781936621034745  0.3333834239907674  0.24726586513997256  1.0000
  Zn  Zn4       1.0  0.2180610954225912  0.6666169450292472  0.7527311358856676  1.0000
  Zn  Zn5       1.0  0.9763142420026224  0.9952561873830987  0.08283226140271441  1.0000
  Zn  Zn6       1.0  0.0236728287071912  0.004736539217425699  0.9171732482746365  1.0000
  H   H1        1.0  0.43003892074255384  0.3444741153047771  0.4595672804950652  1.0000
  H   H2        1.0  0.5699712607238749  0.6555245785451619  0.5404220871270481  1.0000
  H   H3        1.0  0.27074660774717774  0.3409713701020323  0.4539114798791601  1.0000
  H   H4        1.0  0.7292585949499111  0.6590234533627566  0.5460864576923824  1.0000
  H   H5        1.0  0.3616006973784707  0.3596953100402516  0.20725267377622456  1.0000
  H   H6        1.0  0.6383999166600844  0.6403036304307789  0.7927454294149142  1.0000
  H   H7        1.0  0.5184559594900193  0.36869112145901534  0.2155902633933309  1.0000
  H   H8        1.0  0.4815453330333808  0.6313078834996517  0.7843978037441631  1.0000
  H   H9        1.0  0.15518168797587606  0.31115371551488386  0.4472359005512914  1.0000
  H   H10       1.0  0.8448189980818482  0.6888557615755602  0.5527657401303044  1.0000
  H   H11       1.0  0.9999129624503025  0.2964376093417442  0.43911525940254137  1.0000
  H   H12       1.0  8.86516719944776e-05  0.7035698359247178  0.5608885268331463  1.0000
  H   H13       1.0  0.08098455956640287  0.3463069466415547  0.19606537936086002  1.0000
  H   H14       1.0  0.9190115959998406  0.6536894481778504  0.8039388757509798  1.0000
  H   H15       1.0  0.23458791576568655  0.36719224210820295  0.20276578403579046  1.0000
  H   H16       1.0  0.7654083554760547  0.632808781319227  0.7972375288853327  1.0000
  H   H17       1.0  0.8311512508321709  0.6161553754250804  0.2049357236628141  1.0000
  H   H18       1.0  0.1688457011824127  0.383845674175049  0.7950619455107316  1.0000
  H   H19       1.0  0.8263485933660843  0.7780187543851512  0.21101076440393018  1.0000
  H   H20       1.0  0.17364502272416615  0.22198172101381178  0.7889899020029674  1.0000
  H   H21       1.0  0.6668083993747657  0.7623624253169792  0.44598418906153375  1.0000
  H   H22       1.0  0.3331974090052654  0.237632987392324  0.5540196003105038  1.0000
  H   H23       1.0  0.6776256870197342  0.5990451280389237  0.43936239197865484  1.0000
  H   H24       1.0  0.32237867013869687  0.40095103965449397  0.5606361794854351  1.0000
  H   H25       1.0  0.7520454283077597  0.9098016199218789  0.21338570994819853  1.0000
  H   H26       1.0  0.2479528150246253  0.09019996367624832  0.7866215009286536  1.0000
  H   H27       1.0  0.7545322627513114  0.06907765491674671  0.2189127775495692  1.0000
  H   H28       1.0  0.24545845747373113  0.9309242202950045  0.7810900809213877  1.0000
  H   H29       1.0  0.736799949887185  0.03314206263359412  0.4591173849264152  1.0000
  H   H30       1.0  0.26319692474950057  0.9668595883532874  0.5408873874891356  1.0000
  H   H31       1.0  0.7367912651899644  0.8716530900244094  0.4544476525671967  1.0000
  H   H32       1.0  0.26320902761096215  0.12834845235766315  0.545556353023386  1.0000
  H   H33       1.0  0.7513512222293028  0.4584533089433052  0.5089220182439859  1.0000
  H   H34       1.0  0.2486502713555011  0.5415495891343696  0.49107337653202876  1.0000
  H   H35       1.0  0.7676844748940963  0.46642165340828273  0.640894992971802  1.0000
  H   H36       1.0  0.23233129188261603  0.5335814857032446  0.3590933036161559  1.0000
  H   H37       1.0  0.7190162859379681  0.19326252224065138  0.6843473808437467  1.0000
  H   H38       1.0  0.2809988026398997  0.8067405475938683  0.3156515008361183  1.0000
  H   H39       1.0  0.7062431945478592  0.19735154300857255  0.5498342468774737  1.0000
  H   H40       1.0  0.29375174429377165  0.8026548113279546  0.4501689453658316  1.0000
  H   H41       1.0  0.6852497459020765  0.46632950427100883  0.7680733162414197  1.0000
  H   H42       1.0  0.3147686289377986  0.5336801483527651  0.23191551808282904  1.0000
  H   H43       1.0  0.6952872126898199  0.4678079329009607  0.9004607026046899  1.0000
  H   H44       1.0  0.3047185460278853  0.5321934883964303  0.099536036645091  1.0000
  H   H45       1.0  0.8377635285576658  0.19815807170927258  0.8882547735944897  1.0000
  H   H46       1.0  0.1622314207906966  0.8018370584124953  0.11174766060500467  1.0000
  H   H47       1.0  0.8255633475912701  0.19623682647169013  0.756832678044084  1.0000
  H   H48       1.0  0.17444960756214553  0.8037669961210768  0.24316388428412233  1.0000
  H   H49       1.0  0.7757123605862333  0.4752635695301207  0.9837979117816926  1.0000
  H   H50       1.0  0.22428029142985653  0.5247336693831173  0.016198840325891677  1.0000
  H   H51       1.0  0.7819551756976959  0.46784635424160836  0.11956028454895322  1.0000
  H   H52       1.0  0.21804201703061207  0.5321527475172728  0.8804325460463217  1.0000
  H   H53       1.0  0.7806211299588454  0.19647872646002176  0.14279857809569307  1.0000
  H   H54       1.0  0.2193653733656119  0.8035186408907576  0.8572072408324587  1.0000
  H   H55       1.0  0.7681232324749344  0.19239321195566814  0.009808786134698226  1.0000
  H   H56       1.0  0.23185422028667801  0.8076057842221401  0.9901967618746496  1.0000
  H   H57       1.0  0.6757529800235458  0.9918137918026773  0.13179263671207758  1.0000
  H   H58       1.0  0.32424208013830474  0.008186048346345799  0.8681995216463108  1.0000
  H   H59       1.0  0.5208050492374524  0.9765866527514148  0.1251426008903422  1.0000
  H   H60       1.0  0.47918650087151343  0.023425188655067996  0.8748504990432197  1.0000
  H   H61       1.0  0.6001611795170873  0.0370380068650249  0.8812783009664146  1.0000
  H   H62       1.0  0.3998368961894769  0.9629649950280949  0.11871840967283019  1.0000
  H   H63       1.0  0.7557914978799756  0.0491035314688588  0.8895997520467418  1.0000
  H   H64       1.0  0.24420670343681647  0.9508928843962606  0.11039416028146579  1.0000
  H   H65       1.0  0.027696714752614995  0.2950312604046985  0.8689671324253538  1.0000
  H   H66       1.0  0.9722953738821258  0.7049705522076619  0.13103761546864942  1.0000
  H   H67       1.0  0.020813069101109187  0.45579978125384457  0.8747818845805639  1.0000
  H   H68       1.0  0.9791893562662678  0.5442010227380791  0.12522279324689828  1.0000
  H   H69       1.0  0.9899069083500573  0.41834896211541656  0.11886287356016823  1.0000
  H   H70       1.0  0.010089975935365184  0.5816414790248102  0.8811394936967928  1.0000
  H   H71       1.0  0.9987671373665562  0.2596125675883911  0.11092181948438917  1.0000
  H   H72       1.0  0.0012190829425903923  0.7403815846599997  0.8890749904351195  1.0000
  H   H73       1.0  0.9819619256795348  0.13374503352603279  0.184810464441881  1.0000
  H   H74       1.0  0.01803169470071709  0.8662553700324337  0.8151984375389035  1.0000
  H   H75       1.0  0.9954438597421529  0.13913482781676126  0.31737696428879053  1.0000
  H   H76       1.0  0.004557082112029296  0.8608614005878009  0.6826278643828587  1.0000
  H   H77       1.0  0.9756385577408789  0.8585607976113323  0.34894308704406285  1.0000
  H   H78       1.0  0.02436877952467139  0.14143325393774828  0.6510593660321717  1.0000
  H   H79       1.0  0.9672666768944393  0.8646150638500244  0.2136284085580017  1.0000
  H   H80       1.0  0.032735829568842696  0.13538507649338524  0.7863763035248111  1.0000
  H   H81       1.0  0.07098621031943958  0.8668954269001077  0.425738568863629  1.0000
  H   H82       1.0  0.9290230519484195  0.1331051503034502  0.5742656733903998  1.0000
  H   H83       1.0  0.08269068535193466  0.8679562698539768  0.5577474377144256  1.0000
  H   H84       1.0  0.9173154837073196  0.1320417517815997  0.4422588064625045  1.0000
  C   C1        1.0  0.5813029302215255  0.3540879436452827  0.34140126631396583  1.0000
  C   C2        1.0  0.418700662494146  0.6459089046282502  0.658597973298029  1.0000
  C   C3        1.0  0.48384751563212786  0.35695244511098406  0.33807759482051847  1.0000
  C   C4        1.0  0.5161567119120675  0.6430503756615661  0.661916088418991  1.0000
  C   C5        1.0  0.41313298491742484  0.34934255608894205  0.40474353812593483  1.0000
  C   C6        1.0  0.5868697134552645  0.650661630633202  0.5952509323711226  1.0000
  C   C7        1.0  0.3239935789596656  0.3465315194337889  0.4007172347847288  1.0000
  C   C8        1.0  0.6760089232136155  0.6534686927501169  0.5992792417242041  1.0000
  C   C9        1.0  0.3023881364314959  0.3492537430313617  0.329937849748319  1.0000
  C   C10       1.0  0.6976136010130317  0.6507471545220297  0.6700587458702573  1.0000
  C   C11       1.0  0.374261358655012  0.3583129355579331  0.2634219333104327  1.0000
  C   C12       1.0  0.6257445622545176  0.6416871584424301  0.7365748744500494  1.0000
  C   C13       1.0  0.4630478537949684  0.36280305378600275  0.2673210046945655  1.0000
  C   C14       1.0  0.5369581816460495  0.6372016879798466  0.7326726647221662  1.0000
  C   C15       1.0  0.20870143435982405  0.34054695894725745  0.3255913337805723  1.0000
  C   C16       1.0  0.7913021937934346  0.6594551672147092  0.6744085765001272  1.0000
  C   C17       1.0  0.1402146104580382  0.3202289686223665  0.39157709263775325  1.0000
  C   C18       1.0  0.8597866429850426  0.6797758677178221  0.6084242387930416  1.0000
  C   C19       1.0  0.05275739762771538  0.3108688142244347  0.3876102964948913  1.0000
  C   C20       1.0  0.9472446194001234  0.6891353559037441  0.6123887196732268  1.0000
  C   C21       1.0  0.03037334665133777  0.3197142213754631  0.3172740428009533  1.0000
  C   C22       1.0  0.969626343898646  0.6802866742896897  0.6827306994482285  1.0000
  C   C23       1.0  0.09771945921727367  0.33927740070475926  0.2510472523687851  1.0000
  C   C24       1.0  0.9022768925483786  0.6607229686528839  0.7489549967311718  1.0000
  C   C25       1.0  0.18468984464311683  0.35041837050193436  0.2554057198233863  1.0000
  C   C26       1.0  0.8153073529471938  0.6495806498377094  0.7445964444222781  1.0000
  C   C27       1.0  0.9348020708567544  0.31128944145144993  0.3149114789170613  1.0000
  C   C28       1.0  0.06519271687179899  0.6887070063886184  0.6850919848482419  1.0000
  C   C29       1.0  0.7604528405894226  0.49945423623972823  0.32024351066278456  1.0000
  C   C30       1.0  0.239551190183377  0.5005446195733256  0.6797510805120909  1.0000
  C   C31       1.0  0.7560112750303033  0.5975587363043928  0.32236907072830684  1.0000
  C   C32       1.0  0.24398958086597122  0.4024382371679208  0.6776263900376023  1.0000
  C   C33       1.0  0.7963795900097921  0.6486738916701354  0.2577947312603754  1.0000
  C   C34       1.0  0.20361897170021587  0.35132513791062087  0.7422010868344556  1.0000
  C   C35       1.0  0.7926926025038624  0.7395952347529829  0.2614312691994129  1.0000
  C   C36       1.0  0.20730503342957005  0.2604057883368185  0.7385667956474008  1.0000
  C   C37       1.0  0.7471875544653555  0.782194304762598  0.3294383261619984  1.0000
  C   C38       1.0  0.25281213494062627  0.2178066100600162  0.6705642199341497  1.0000
  C   C39       1.0  0.7053507634331381  0.7304054385144596  0.39354159943201944  1.0000
  C   C40       1.0  0.294652749616624  0.2695920494607478  0.6064603511159136  1.0000
  C   C41       1.0  0.7103382934611913  0.639438213103503  0.39013714377139047  1.0000
  C   C42       1.0  0.2896652175865739  0.3605593083972778  0.60986096350873  1.0000
  C   C43       1.0  0.7438128164363318  0.8783967824895456  0.3335902924910954  1.0000
  C   C44       1.0  0.256184463393886  0.1216015550441227  0.6664141021629533  1.0000
  C   C45       1.0  0.7481085312161678  0.9359138618818433  0.2678575373591628  1.0000
  C   C46       1.0  0.2518827121659085  0.06408929016977542  0.7321483934656499  1.0000
  C   C47       1.0  0.7490910693199166  0.026002517565210315  0.2707685760877609  1.0000
  C   C48       1.0  0.25089522701240685  0.9740021042514542  0.7292394578578225  1.0000
  C   C49       1.0  0.7454091529528809  0.06155739548216128  0.33960394610155487  1.0000
  C   C50       1.0  0.2545772236173461  0.9384465770540941  0.6604024749846076  1.0000
  C   C51       1.0  0.7392360152589175  0.005176209294745607  0.40582229328708047  1.0000
  C   C52       1.0  0.2607570343039781  0.9948288924863674  0.5941803294853969  1.0000
  C   C53       1.0  0.7386591362061664  0.9149221291559115  0.4028125975802793  1.0000
  C   C54       1.0  0.26133934841193707  0.0850774970222332  0.5971908727948261  1.0000
  C   C55       1.0  0.7508088189730556  0.15786646360388804  0.34160819881065413  1.0000
  C   C56       1.0  0.24918362862490528  0.8421379866709418  0.6583957096586914  1.0000
  C   C57       1.0  0.7445503963501778  0.40177518861310807  0.5503663040407432  1.0000
  C   C58       1.0  0.255453588764297  0.5982296087368936  0.4496289235474933  1.0000
  C   C59       1.0  0.7533431436979255  0.4053053341949565  0.623775253612635  1.0000
  C   C60       1.0  0.24666948421185003  0.5947011908855373  0.376215681311578  1.0000
  C   C61       1.0  0.7454336300648021  0.3297474084605696  0.674380549132799  1.0000
  C   C62       1.0  0.2545840288506369  0.6702569353127004  0.3256138073085779  1.0000
  C   C63       1.0  0.7281333656527946  0.25332067359858  0.6472482586585073  1.0000
  C   C64       1.0  0.2718809570523176  0.7466831007628868  0.3527485459779669  1.0000
  C   C65       1.0  0.7197386590986097  0.2550996010957505  0.5730896516732855  1.0000
  C   C66       1.0  0.28026412351598395  0.7449038692948448  0.42691089249996844  1.0000
  C   C67       1.0  0.7540955600690326  0.3310051063791661  0.7528414009212056  1.0000
  C   C68       1.0  0.24592177360478462  0.6690019063562644  0.24715117138399018  1.0000
  C   C69       1.0  0.7197059657750414  0.4078408974262189  0.7939875512771052  1.0000
  C   C70       1.0  0.2803076721532206  0.5921629178136812  0.20600721057132884  1.0000
  C   C71       1.0  0.7256299751887308  0.40860894962316513  0.8686521919597537  1.0000
  C   C72       1.0  0.27437594600679194  0.5913911395878273  0.13134516483898298  1.0000
  C   C73       1.0  0.7667987234745368  0.3332162191873991  0.904565233052452  1.0000
  C   C74       1.0  0.23320076687203775  0.6667807689906412  0.09543382867298791  1.0000
  C   C75       1.0  0.8027515119202205  0.2567962771045699  0.8628657508482149  1.0000
  C   C76       1.0  0.1972491035483301  0.7432026394196284  0.13713509753421957  1.0000
  C   C77       1.0  0.7959148734155548  0.2557616652454228  0.7884358813794918  1.0000
  C   C78       1.0  0.20409554426386475  0.7442462044013279  0.21156093551159216  1.0000
  C   C79       1.0  0.7711492666378276  0.33367113122142916  0.9843400202465276  1.0000
  C   C80       1.0  0.22884765337117577  0.6663245830178682  0.015663566717407207  1.0000
  C   C81       1.0  0.7743239317133398  0.4119866234130427  0.017020157387207732  1.0000
  C   C82       1.0  0.22566904583038644  0.5880079417486711  0.9829789278948127  1.0000
  C   C83       1.0  0.779185759258027  0.40862445534707353  0.0921634573619058  1.0000
  C   C84       1.0  0.22080790163254688  0.5913700928830395  0.9078349255168588  1.0000
  C   C85       1.0  0.7783560507234951  0.2565630421399376  0.10543220134714194  1.0000
  C   C86       1.0  0.22163881810096334  0.7434327420516168  0.8945712966735189  1.0000
  C   C87       1.0  0.7723049114207041  0.25495646792661836  0.031055529903333906  1.0000
  C   C88       1.0  0.22768987459184584  0.7450400086496458  0.9689446396324257  1.0000
  C   C89       1.0  0.8226352270288757  0.025668251639025603  0.013401452350549866  1.0000
  C   C90       1.0  0.17735895558873693  0.974327597377787  0.9865972576907749  1.0000
  C   C91       1.0  0.7261391018523398  0.021509965207968697  0.011041779819194577  1.0000
  C   C92       1.0  0.2738570845754892  0.9784917841297442  0.9889543613492219  1.0000
  C   C93       1.0  0.6585353183550993  0.0016439465750864007  0.07700864871274858  1.0000
  C   C94       1.0  0.3414547508146768  0.9983632761397346  0.9229895434093293  1.0000
  C   C95       1.0  0.5708410688779323  0.9932342617154079  0.07258509636381666  1.0000
  C   C96       1.0  0.4291500417439166  0.006775596098386001  0.9274099068155764  1.0000
  C   C97       1.0  0.5465800022512538  0.005056738110262405  0.002451618723064489  1.0000
  C   C98       1.0  0.4534139693702172  0.9949464324235748  0.9975416198000816  1.0000
  C   C99       1.0  0.6150679648384664  0.0265954481575363  0.9369237316817021  1.0000
  C   C100      1.0  0.38492830268527456  0.9734056375316555  0.06307244374205817  1.0000
  C   C101      1.0  0.7029831674785638  0.0341691440723721  0.9409552505626307  1.0000
  C   C102      1.0  0.2970149870359008  0.9658332324871708  0.05903710202589708  1.0000
  C   C103      1.0  0.01225077877068509  0.16946358901383013  0.9863896497011523  1.0000
  C   C104      1.0  0.9877438915663743  0.8305282589544162  0.01361146202531673  1.0000
  C   C105      1.0  0.01407508089660328  0.2662478499980808  0.9892446750702747  1.0000
  C   C106      1.0  0.9859312117708824  0.7337436191350547  0.010754927527798885  1.0000
  C   C107      1.0  0.020800685312586605  0.32299355100800387  0.9232550846188516  1.0000
  C   C108      1.0  0.9791909641210308  0.677006273222304  0.0767521155592306  1.0000
  C   C109      1.0  0.01641105474586619  0.4138238439403281  0.9272481054642157  1.0000
  C   C110      1.0  0.9835782182615699  0.5861787192043976  0.07275722163441149  1.0000
  C   C111      1.0  0.004741301285939384  0.45148633501784025  0.9974051763810081  1.0000
  C   C112      1.0  0.9952517494209584  0.5485187476058117  0.002599642544510151  1.0000
  C   C113      1.0  0.0005098312574886942  0.3932101034983617  0.06282943959828909  1.0000
  C   C114      1.0  0.9994884568752124  0.6067855529309085  0.9371754877504301  1.0000
  C   C115      1.0  0.005105453672228982  0.30244903692149455  0.0588890014661629  1.0000
  C   C116      1.0  0.9948960053329895  0.6975485688996342  0.9411073697559118  1.0000
  C   C117      1.0  0.9817741230510674  0.07441618960601913  0.22321165927130693  1.0000
  C   C118      1.0  0.018225405021098588  0.9255860381455249  0.7767924654289118  1.0000
  C   C119      1.0  0.9885133128732589  0.07673970697397442  0.2973309126596745  1.0000
  C   C120      1.0  0.011493098043715086  0.9232563476628856  0.7026726890920115  1.0000
  C   C121      1.0  0.9874714141744431  0.9988099878123933  0.34507663399287475  1.0000
  C   C122      1.0  0.012536365438229795  0.0011859994357052994  0.6549294062201199  1.0000
  C   C123      1.0  0.9797962044639515  0.9207678249076424  0.3142987782361502  1.0000
  C   C124      1.0  0.020209360914357394  0.0792295739578464  0.6857054574080905  1.0000
  C   C125      1.0  0.9736997253951993  0.9235392690754762  0.23955267367801272  1.0000
  C   C126      1.0  0.02630270054417849  0.07646152533771301  0.7604531022259664  1.0000
  C   C127      1.0  0.9936665212494443  0.99934547362222  0.424233970764341  1.0000
  C   C128      1.0  0.006346760861603698  0.0006556512721686988  0.575767669929597  1.0000
  C   C129      1.0  0.038591597794834266  0.9250284459874933  0.4585597055777484  1.0000
  C   C130      1.0  0.9614190317387283  0.07497208777413529  0.5414442299462933  1.0000
  C   C131      1.0  0.045103368616089774  0.9254280111451578  0.533132314282085  1.0000
  C   C132      1.0  0.9549050934854291  0.07456797353944469  0.46687137641288257  1.0000
  N   N1        1.0  0.7280201141709951  0.327997666579435  0.5252426827259171  1.0000
  N   N2        1.0  0.2719794104691714  0.6720046186445146  0.47475485351520064  1.0000
  N   N3        1.0  0.7819530003576884  0.33212103530184583  0.13557203300968718  1.0000
  N   N4        1.0  0.21804291020482938  0.6678773791993109  0.8644288251065504  1.0000
  N   N5        1.0  0.9746875289620359  0.999036480747904  0.19458354777066936  1.0000
  N   N6        1.0  0.02531163986091659  0.0009631141305420002  0.8054208673159522  1.0000
  O   O1        1.0  0.5983291474766828  0.3368918304964907  0.40652656870525306  1.0000
  O   O2        1.0  0.4016746862387137  0.6631030651464231  0.5934683813667263  1.0000
  O   O3        1.0  0.6396970362310838  0.3671049626103624  0.27830138831937756  1.0000
  O   O4        1.0  0.36030426144031935  0.6328939561397036  0.7216965615067679  1.0000
  O   O5        1.0  0.9192811525763176  0.3093902791582224  0.24974370046743388  1.0000
  O   O6        1.0  0.08071440274098755  0.6906054354187035  0.7502651345708173  1.0000
  O   O7        1.0  0.8759190374545225  0.3069022780419673  0.3791951574213143  1.0000
  O   O8        1.0  0.12408206630547616  0.6930926278549306  0.6208091907227811  1.0000
  O   O9        1.0  0.7337753335594994  0.4572874863524419  0.384323985922748  1.0000
  O   O10       1.0  0.26622544152687055  0.5427101459790221  0.6156719896260653  1.0000
  O   O11       1.0  0.7904670020851938  0.4655023023491011  0.2554482105817043  1.0000
  O   O12       1.0  0.20953683306020565  0.5344925693469736  0.7445494846815706  1.0000
  O   O13       1.0  0.765356759991576  0.20264625724855986  0.2776621189917917  1.0000
  O   O14       1.0  0.23462382313223165  0.7973605436494607  0.722345391992924  1.0000
  O   O15       1.0  0.7413788343621447  0.18806867035655014  0.40642217151916066  1.0000
  O   O16       1.0  0.2586211808574673  0.8119295659251619  0.5935832567896852  1.0000
  O   O17       1.0  0.8405036370814682  0.016483735885337594  0.07849077988538515  1.0000
  O   O18       1.0  0.15948745204153172  0.9835095623528644  0.9215093830405863  1.0000
  O   O19       1.0  0.8801647231239115  0.03789779723647511  0.9494755907366823  1.0000
  O   O20       1.0  0.11983151153624047  0.9620979674599824  0.05052485536269559  1.0000
  O   O21       1.0  0.9930591924356447  0.12520267957534514  0.05037228125590331  1.0000
  O   O22       1.0  0.006936079866349556  0.8747898198991921  0.9496275447737048  1.0000
  O   O23       1.0  0.028622199946504195  0.13844772349549572  0.9209149269902143  1.0000
  O   O24       1.0  0.9713636171711071  0.8615497086805489  0.07908610395860893  1.0000
