data_image0
_chemical_formula_structural       Hg8H24C48S16N32
_chemical_formula_sum              "Hg8 H24 C48 S16 N32"
_cell_length_a       10.437985156532884
_cell_length_b       11.665174874
_cell_length_c       16.0828
_cell_angle_alpha    90.0
_cell_angle_beta     104.39419486787757
_cell_angle_gamma    90.0

_space_group_name_H-M_alt    "P 1"
_space_group_IT_number       1

loop_
  _space_group_symop_operation_xyz
  'x, y, z'

loop_
  _atom_site_type_symbol
  _atom_site_label
  _atom_site_symmetry_multiplicity
  _atom_site_fract_x
  _atom_site_fract_y
  _atom_site_fract_z
  _atom_site_occupancy
  Hg  Hg1       1.0  0.5126544163695996  0.2173580788446898  0.997499449202415  1.0000
  Hg  Hg2       1.0  0.4873456220070267  0.7173582985585014  0.5025016140191382  1.0000
  Hg  Hg3       1.0  0.4873446329186137  0.7826423605829265  0.002501454439730795  1.0000
  Hg  Hg4       1.0  0.5126544163695996  0.2826421408691147  0.4974994492024152  1.0000
  Hg  Hg5       1.0  0.1516015377180366  0.9594738288018549  0.2067006500899211  1.0000
  Hg  Hg6       1.0  0.8483994897470096  0.4594761808454635  0.2932993291464853  1.0000
  Hg  Hg7       1.0  0.8483985006585968  0.040524038868341  0.7932985477848006  1.0000
  Hg  Hg8       1.0  0.1516025268064496  0.5405259730870996  0.7067008096693215  1.0000
  H   H1        1.0  0.6175492209553326  0.700661592156429  0.843249612373917  1.0000
  H   H2        1.0  0.3824527955981267  0.2006613724426174  0.6567511482241669  1.0000
  H   H3        1.0  0.3824518065097138  0.2993388472711871  0.1567509886447596  1.0000
  H   H4        1.0  0.6175492209553326  0.7993382097325252  0.34324961237391693  1.0000
  H   H5        1.0  0.6903471173864588  0.5206111409041867  0.7763785304271025  1.0000
  H   H6        1.0  0.3096548991670005  0.0206109211903822  0.7236222301709816  1.0000
  H   H7        1.0  0.3096548991670005  0.4793892985234294  0.22362223017098157  1.0000
  H   H8        1.0  0.6903461282980459  0.9793886609847677  0.2763777490654249  1.0000
  H   H9        1.0  0.6429915422539239  0.3309911803041885  0.8367418935052271  1.0000
  H   H10       1.0  0.3570104742995355  0.830991400017993  0.6632576235283025  1.0000
  H   H11       1.0  0.3570094852111225  0.6690092591234276  0.1632580857311794  1.0000
  H   H12       1.0  0.6429905531655109  0.1690090394096231  0.3367411121435424  1.0000
  H   H13       1.0  0.0208034966323254  0.7087772013112501  0.116921235770576  1.0000
  H   H14       1.0  0.9791975308327211  0.2087769815974383  0.3830799870303778  1.0000
  H   H15       1.0  0.9791965417443008  0.2912215236114264  0.8830798274509702  1.0000
  H   H16       1.0  0.0208025075439124  0.7912226005777043  0.6169210761911754  1.0000
  H   H17       1.0  0.9053472443280484  0.6209774031030975  0.9738828011005936  1.0000
  H   H18       1.0  0.094653783136998  0.1209780406417593  0.5261171781358058  1.0000
  H   H19       1.0  0.0946527940485851  0.3790221790720524  0.0261170185563984  1.0000
  H   H20       1.0  0.9053472443280484  0.8790223987858568  0.47388342288287083  1.0000
  H   H21       1.0  0.8483282753811352  0.7566967572577142  0.844849134726175  1.0000
  H   H22       1.0  0.1516727520839112  0.2566965375439096  0.6551520880747788  1.0000
  H   H23       1.0  0.1516737411723312  0.2433036821699019  0.1551522476541862  1.0000
  H   H24       1.0  0.8483272862927151  0.7433039018837064  0.34484835336449754  1.0000
  C   C1        1.0  0.605717745335312  0.6143542705024673  0.8665577255479634  1.0000
  C   C2        1.0  0.3942813039529085  0.11435490804112901  0.6334419345296282  1.0000
  C   C3        1.0  0.3942813039529085  0.3856461689251489  0.13344255631190546  1.0000
  C   C4        1.0  0.605717745335312  0.8856455313864873  0.3665577255479633  1.0000
  C   C5        1.0  0.6441814156171475  0.5161997196819712  0.8299512525616919  1.0000
  C   C6        1.0  0.3558206009363118  0.016200357220640203  0.6700482644718448  1.0000
  C   C7        1.0  0.3558196118478918  0.4837998624931714  0.17004872667471457  1.0000
  C   C8        1.0  0.6441804265287345  0.9838009394594494  0.3299504712000072  1.0000
  C   C9        1.0  0.6173059052052423  0.4113894606669035  0.8631409649382462  1.0000
  C   C10       1.0  0.382694133171384  0.9113896803807152  0.6368588547187528  1.0000
  C   C11       1.0  0.3826931440829711  0.5886109787607126  0.1368593169216226  1.0000
  C   C12       1.0  0.6173049161168294  0.088610759046901  0.36313956179429147  1.0000
  C   C13       1.0  0.5297122351743937  0.5035338144044346  0.9624260525961787  1.0000
  C   C14       1.0  0.47028384684858077  0.003534451943096401  0.5375718851786502  1.0000
  C   C15       1.0  0.47028384684858077  0.4964666250231815  0.03757188517865019  1.0000
  C   C16       1.0  0.5297122351743937  0.9964668447369931  0.46242605259617864  1.0000
  C   C17       1.0  0.9910863735808063  0.759868591405052  0.05832864606339429  1.0000
  C   C18       1.0  0.0089126757074069  0.2598683716912475  0.4416722575787516  1.0000
  C   C19       1.0  0.0089136647958199  0.24013184802256404  0.941671795375882  1.0000
  C   C20       1.0  0.9910863735808063  0.7401320677363757  0.5583292678456714  1.0000
  C   C21       1.0  0.9289320575833031  0.7119318904091402  0.9793748673254042  1.0000
  C   C22       1.0  0.0710669917049103  0.2119325279478019  0.5206235491876399  1.0000
  C   C23       1.0  0.0710660026164973  0.288068549018476  0.0206233896082324  1.0000
  C   C24       1.0  0.9289330466717232  0.7880679114798141  0.4793768922516364  1.0000
  C   C25       1.0  0.8964592958310149  0.7858450558192658  0.9094162640488221  1.0000
  C   C26       1.0  0.1035407425456185  0.28584655061040115  0.5905847991727242  1.0000
  C   C27       1.0  0.1035417316340315  0.2141553836083503  0.0905837151875772  1.0000
  C   C28       1.0  0.8964592958310149  0.7141547460696884  0.40941688583109936  1.0000
  C   C29       1.0  0.9839461443130517  0.9376130335069348  0.995549935547608  1.0000
  C   C30       1.0  0.0160529049751688  0.4376128137931233  0.5044509680945383  1.0000
  C   C31       1.0  0.0160529049751688  0.0623874059206813  0.0044509680945382  1.0000
  C   C32       1.0  0.9839471334014647  0.5623867683820194  0.49555009512701526  1.0000
  C   C33       1.0  0.7594527467644596  0.19294352843492396  0.160863513128696  1.0000
  C   C34       1.0  0.2405472916121667  0.6929437481487355  0.3391375500928575  1.0000
  C   C35       1.0  0.2405472916121667  0.8070543392352719  0.8391363065283028  1.0000
  C   C36       1.0  0.7594527467644596  0.30705497677394084  0.6608647566932504  1.0000
  C   C37       1.0  0.2863757142319727  0.2637568689053822  0.8281385607084601  1.0000
  C   C38       1.0  0.7136243241446607  0.7637570886191938  0.6718625025130932  1.0000
  C   C39       1.0  0.7136233350562478  0.7362427132697605  0.1718623429336859  1.0000
  C   C40       1.0  0.2863757142319727  0.2362433508084223  0.3281385607084601  1.0000
  C   C41       1.0  0.4056380171337324  0.029270028412604204  0.1432821591976889  1.0000
  C   C42       1.0  0.594362021242894  0.5292693908739423  0.3567170386770329  1.0000
  C   C43       1.0  0.5943630103313069  0.9707304110150121  0.8567178200387175  1.0000
  C   C44       1.0  0.4056380171337324  0.47073019130120036  0.6432821591976888  1.0000
  C   C45       1.0  0.0971541986500739  0.9710193050981601  0.3876610679231618  1.0000
  C   C46       1.0  0.9028468288149725  0.4710190853843487  0.1123389113132447  1.0000
  C   C47       1.0  0.9028468288149725  0.0289811343294559  0.6123376677486903  1.0000
  C   C48       1.0  0.0971541986500739  0.5289804967907941  0.8876610679231618  1.0000
  S   S1        1.0  0.7433078565667017  0.1542488663423711  0.0595868254467931  1.0000
  S   S2        1.0  0.2566921818099317  0.6542482288037093  0.4404148595570305  1.0000
  S   S3        1.0  0.2566911927215116  0.8457507158327715  0.9404134564130756  1.0000
  S   S4        1.0  0.7433088456551147  0.3457496388664936  0.5595869850262005  1.0000
  S   S5        1.0  0.3100089928195615  0.1487204451488111  0.890401572147958  1.0000
  S   S6        1.0  0.6899910455570648  0.6487198076101492  0.6095994910735881  1.0000
  S   S7        1.0  0.6899910455570648  0.8512791370263315  0.1095994910735882  1.0000
  S   S8        1.0  0.3100089928195615  0.3512806318174668  0.3904015721479581  1.0000
  S   S9        1.0  0.3650013196041755  0.9036083996900715  0.1764061189037349  1.0000
  S   S10       1.0  0.6349997078608709  0.403608179976267  0.3235938603326716  1.0000
  S   S11       1.0  0.6349997078608709  0.0963911824850712  0.8235938603326716  1.0000
  S   S12       1.0  0.3650023086925955  0.5963905449464093  0.6764062784831352  1.0000
  S   S13       1.0  0.9885810126256587  0.9624544956478829  0.2926876567400001  1.0000
  S   S14       1.0  0.0114200148393877  0.4624542759340713  0.20731232249640638  1.0000
  S   S15       1.0  0.0114210039278007  0.0375459437797332  0.7073124820758137  1.0000
  S   S16       1.0  0.9885810126256587  0.5375453062410713  0.7926882785222701  1.0000
  N   N1        1.0  0.5500745983736337  0.6079488800297952  0.9330503343718846  1.0000
  N   N2        1.0  0.44992247273774666  0.10794951756845711  0.566948384764622  1.0000
  N   N3        1.0  0.44992247273774666  0.3920515593978209  0.0669483847646219  1.0000
  N   N4        1.0  0.5500755874620538  0.8920517791116326  0.43304987216900764  1.0000
  N   N5        1.0  0.5587508819498623  0.4053921223710263  0.9282360728374924  1.0000
  N   N6        1.0  0.4412471782499381  0.9053923420848307  0.571761562313867  1.0000
  N   N7        1.0  0.4412461891615251  0.594608317056597  0.07176202451673667  1.0000
  N   N8        1.0  0.5587508819498623  0.09460809734278541  0.42823545105521527  1.0000
  N   N9        1.0  0.01853156054311  0.8721918110869497  0.0660616085322587  1.0000
  N   N10       1.0  0.9814694669219292  0.372191591373138  0.43393961426870226  1.0000
  N   N11       1.0  0.9814694669219292  0.1278077710882002  0.9339396142687021  1.0000
  N   N12       1.0  0.0185305714546971  0.6278079908020047  0.566060827170574  1.0000
  N   N13       1.0  0.9230974250233216  0.8982737175552418  0.9174478591512808  1.0000
  N   N14       1.0  0.0769026133533046  0.398275212346377  0.5825525822879953  1.0000
  N   N15       1.0  0.0769026133533046  0.10172500736742762  0.08255258228799527  1.0000
  N   N16       1.0  0.9230984141117347  0.6017260843337127  0.4174486405129656  1.0000
  N   N17       1.0  0.776289998852711  0.2185822353750666  0.2337668167329667  1.0000
  N   N18       1.0  0.22371102861233544  0.7185824550888782  0.2662344060679871  1.0000
  N   N19       1.0  0.2237120177007483  0.7814156322951292  0.7662339438651173  1.0000
  N   N20       1.0  0.7762890097642909  0.2814171270862715  0.7337672789358436  1.0000
  N   N21       1.0  0.266855065273873  0.34244664509090234  0.7806715698017398  1.0000
  N   N22       1.0  0.7331439840143403  0.8424468648047139  0.7193293338404059  1.0000
  N   N23       1.0  0.7331439840143403  0.6575529370842403  0.2193293338404061  1.0000
  N   N24       1.0  0.266855065273873  0.1575535746229022  0.2806715698017399  1.0000
  N   N25       1.0  0.4364411976415354  0.1192643929497237  0.12115591254735848  1.0000
  N   N26       1.0  0.5635578516466779  0.6192637554110618  0.378843747530233  1.0000
  N   N27       1.0  0.5635588407350909  0.8807360464778926  0.8788445288919178  1.0000
  N   N28       1.0  0.4364411976415354  0.38073582676408085  0.6211565343296357  1.0000
  N   N29       1.0  0.1689600394009787  0.9781970800483322  0.4566821078019743  1.0000
  N   N30       1.0  0.8310390098872347  0.4781960030820542  0.0433181740579016  1.0000
  N   N31       1.0  0.8310390098872347  0.0218033593792839  0.5433169304933472  1.0000
  N   N32       1.0  0.1689610284893917  0.5218035790930884  0.9566822673813745  1.0000
