data_image0
_chemical_formula_structural       K2H20C20O6F10
_chemical_formula_sum              "K2 H20 C20 O6 F10"
_cell_length_a       4.336772138631018
_cell_length_b       12.07910460369595
_cell_length_c       12.250365377542028
_cell_angle_alpha    86.45436864372124
_cell_angle_beta     81.79864342235511
_cell_angle_gamma    88.87200632802596

_space_group_name_H-M_alt    "P 1"
_space_group_IT_number       1

loop_
  _space_group_symop_operation_xyz
  'x, y, z'

loop_
  _atom_site_type_symbol
  _atom_site_label
  _atom_site_symmetry_multiplicity
  _atom_site_fract_x
  _atom_site_fract_y
  _atom_site_fract_z
  _atom_site_occupancy
  K   K1        1.0  0.20668015134202727  0.37735578800098313  0.08755694391932421  1.0000
  K   K2        1.0  0.7933354187036412  0.6226401881808455  0.9124437805735965  1.0000
  H   H1        1.0  0.613225818365116  0.0169350079573221  0.1319181544374501  1.0000
  H   H2        1.0  0.3867687582404925  0.983061803497023  0.8680843884865367  1.0000
  H   H3        1.0  0.6013264424783102  0.1197051533533013  0.02045987612265069  1.0000
  H   H4        1.0  0.3986728411223978  0.8802899977700916  0.9795425317313119  1.0000
  H   H5        1.0  0.24631325116595798  0.062461355083833284  0.092622201243131  1.0000
  H   H6        1.0  0.7536813254396577  0.9375354563705114  0.9073803416808488  1.0000
  H   H7        1.0  0.4399086596981618  0.07349534308024629  0.3170332309629842  1.0000
  H   H8        1.0  0.5600835135402916  0.9265039574582017  0.6829700973719426  1.0000
  H   H9        1.0  0.0770865602648882  0.119530091201753  0.2757918479224628  1.0000
  H   H10       1.0  0.9229102723871633  0.880469208032828  0.7242112467944322  1.0000
  H   H11       1.0  0.21689665781194378  0.21061019950915488  0.4403302110663105  1.0000
  H   H12       1.0  0.7830978259188013  0.7893899301077949  0.5596713183376991  1.0000
  H   H13       1.0  0.5489662891378798  0.2713975828162276  0.3555867137699096  1.0000
  H   H14       1.0  0.4510281968809834  0.7286025469091656  0.6444139992101583  1.0000
  H   H15       1.0  0.93667230469088  0.38149074261926336  0.47216608577681995  1.0000
  H   H16       1.0  0.06332222662135932  0.6185077279706092  0.527835542175204  1.0000
  H   H17       1.0  0.9316794754903839  0.478983083840802  0.3560295776391484  1.0000
  H   H18       1.0  0.0683126739573225  0.5210170462111918  0.6439737014217712  1.0000
  H   H19       1.0  0.29031587763565614  0.4464012002414463  0.408696243221101  1.0000
  H   H20       1.0  0.7096809595926316  0.5535980992100277  0.5913052186479035  1.0000
  C   C1        1.0  0.9231701201344148  0.23674596954584357  0.844885387007956  1.0000
  C   C2        1.0  0.0768382535384902  0.7632574745389958  0.15511279517411225  1.0000
  C   C3        1.0  0.9116982759947233  0.17745904378168834  0.7520134640776703  1.0000
  C   C4        1.0  0.08831949016573049  0.8225419092632364  0.24798358226641423  1.0000
  C   C5        1.0  0.7337332580059767  0.216241915435745  0.6711082168031837  1.0000
  C   C6        1.0  0.2662775021076911  0.7837598694038661  0.3288866814220981  1.0000
  C   C7        1.0  0.570229058109014  0.315964507238128  0.6858618842105102  1.0000
  C   C8        1.0  0.4297815569720526  0.6840422545742654  0.3141335347946849  1.0000
  C   C9        1.0  0.5838283592802254  0.37429102838505185  0.7792079667602893  1.0000
  C   C10       1.0  0.4161754377919067  0.625709929005275  0.2207865147421018  1.0000
  C   C11       1.0  0.7592597506283242  0.33855995949511447  0.8650087605019152  1.0000
  C   C12       1.0  0.24073703124454224  0.6614418292561125  0.1349868385774542  1.0000
  C   C13       1.0  0.4832560245958533  0.0888301443355886  0.1012009510933467  1.0000
  C   C14       1.0  0.5167385282190152  0.911167496632295  0.898801542556633  1.0000
  C   C15       1.0  0.31734355939511255  0.14508128134220039  0.2813162389882464  1.0000
  C   C16       1.0  0.6826509458382616  0.8549180186527607  0.7186861561137192  1.0000
  C   C17       1.0  0.311296984246816  0.2402599302220736  0.35527471467817406  1.0000
  C   C18       1.0  0.688697499483922  0.7597401993948765  0.6447268147258427  1.0000
  C   C19       1.0  0.0673010683333501  0.41304001854133077  0.39288454134881323  1.0000
  C   C20       1.0  0.9326934131092698  0.586960110967169  0.6071178044791452  1.0000
  O   O1        1.0  0.4727947547670013  0.17774674787838754  0.1733243507049025  1.0000
  O   O2        1.0  0.5271998218386075  0.8222500635759571  0.8266781922190843  1.0000
  O   O3        1.0  0.11670419348958919  0.32741085345798376  0.3169884249602006  1.0000
  O   O4        1.0  0.8832879628224716  0.6725892769193534  0.6830124048288794  1.0000
  O   O5        1.0  0.7681665549528347  0.3932388372848194  0.9522735371074731  1.0000
  O   O6        1.0  0.23183492705077668  0.6067612908101124  0.047724376173718476  1.0000
  F   F1        1.0  0.10405523688254449  0.195957479863992  0.9213662027318748  1.0000
  F   F2        1.0  0.8959484060045212  0.8040484540653309  0.07863206524620375  1.0000
  F   F3        1.0  0.07946410683562279  0.0817892771707278  0.7378556526344014  1.0000
  F   F4        1.0  0.9205396243500701  0.9182133383790966  0.2621452617115382  1.0000
  F   F5        1.0  0.7221045113910164  0.15877475579230793  0.5797489124791682  1.0000
  F   F6        1.0  0.2779014872817172  0.841230348079989  0.4202484715399564  1.0000
  F   F7        1.0  0.3962225885092536  0.35558035908245966  0.6076705923668371  1.0000
  F   F8        1.0  0.603771882871328  0.6444206005902657  0.39232680564344247  1.0000
  F   F9        1.0  0.41726935072726695  0.4716467441798144  0.790432840546572  1.0000
  F   F10       1.0  0.5827320768304957  0.5283550426168518  0.20956742345843793  1.0000
