data_image0
_chemical_formula_structural       K4H16C24N8O22
_chemical_formula_sum              "K4 H16 C24 N8 O22"
_cell_length_a       7.221831899560805
_cell_length_b       12.071995884104245
_cell_length_c       12.0719304376434
_cell_angle_alpha    60.557428448095216
_cell_angle_beta     73.41417026685184
_cell_angle_gamma    73.41368712890998

_space_group_name_H-M_alt    "P 1"
_space_group_IT_number       1

loop_
  _space_group_symop_operation_xyz
  'x, y, z'

loop_
  _atom_site_type_symbol
  _atom_site_label
  _atom_site_symmetry_multiplicity
  _atom_site_fract_x
  _atom_site_fract_y
  _atom_site_fract_z
  _atom_site_occupancy
  K   K1        1.0  0.2500003002700453  0.37365403733950586  0.6263585836732588  1.0000
  K   K2        1.0  0.7499919436028862  0.6263535667305999  0.3736477493798845  1.0000
  K   K3        1.0  0.7500147811766666  0.1466697543261546  0.8533298922451563  1.0000
  K   K4        1.0  0.24995321976711446  0.8533311610952908  0.1466664536807514  1.0000
  H   H1        1.0  0.5966644208939584  0.6819124884019699  0.8171035094474064  1.0000
  H   H2        1.0  0.903338919958358  0.18290135870393698  0.3180825114696759  1.0000
  H   H3        1.0  0.40333405702781994  0.31808262838137574  0.18289954151129004  1.0000
  H   H4        1.0  0.09667953646731321  0.8171054080395592  0.6819106214132732  1.0000
  H   H5        1.0  0.8014263186691791  0.41755912037754683  0.17647171765035813  1.0000
  H   H6        1.0  0.6985703709623933  0.8235355723717035  0.5824372486158821  1.0000
  H   H7        1.0  0.19857535507611596  0.5824456309295981  0.8235310716937648  1.0000
  H   H8        1.0  0.3014434214561348  0.1764616005778166  0.4175505791454412  1.0000
  H   H9        1.0  0.9658935958409387  0.2577409932120461  0.08845242213357099  1.0000
  H   H10       1.0  0.5341200734818017  0.9115541009164828  0.7422567475157961  1.0000
  H   H11       1.0  0.03410965563114137  0.7422579312064455  0.9115570713786597  1.0000
  H   H12       1.0  0.465890694431316  0.08843822002211969  0.257735614512967  1.0000
  H   H13       1.0  0.6549476494319321  0.9162037405856507  0.14870563034204312  1.0000
  H   H14       1.0  0.8450232824248973  0.8512895064293597  0.08379685031992797  1.0000
  H   H15       1.0  0.3450375488574551  0.08379235643805318  0.8512934225872542  1.0000
  H   H16       1.0  0.15496837954055556  0.14870946078207933  0.9162054975390462  1.0000
  C   C1        1.0  0.8872157575358771  0.3781078182989717  0.8992857081697778  1.0000
  C   C2        1.0  0.6127946726596675  0.1007183343039557  0.6218915254582741  1.0000
  C   C3        1.0  0.11277108025524295  0.621893020507791  0.10072318414858467  1.0000
  C   C4        1.0  0.38721439473019376  0.8992749429517697  0.3781014916452534  1.0000
  C   C5        1.0  0.773749388840372  0.5029044528877336  0.8247148447165314  1.0000
  C   C6        1.0  0.7262569108026612  0.17528549032409294  0.4970991997620473  1.0000
  C   C7        1.0  0.22625108371921948  0.4970993606629077  0.17528446457739488  1.0000
  C   C8        1.0  0.27374825620314175  0.8247115936394989  0.5028992626159764  1.0000
  C   C9        1.0  0.6812878692075869  0.5906771014662268  0.8750051670562017  1.0000
  C   C10       1.0  0.818707995849138  0.12499907192214005  0.4093214782070831  1.0000
  C   C11       1.0  0.31870300216155567  0.4093247823344867  0.12499341329387194  1.0000
  C   C12       1.0  0.18130570782121677  0.8750038494467914  0.5906701972205043  1.0000
  C   C13       1.0  0.6939937014902854  0.5602766632191702  0.9996275914309078  1.0000
  C   C14       1.0  0.8060023537281892  0.00037608566714909906  0.43972172260831144  1.0000
  C   C15       1.0  0.30599702282157176  0.4397203940393411  0.000372532214171831  1.0000
  C   C16       1.0  0.19402131727622432  0.9996220196762521  0.5602714133319395  1.0000
  C   C17       1.0  0.795362355111685  0.4388092525487436  0.07869824592467721  1.0000
  C   C18       1.0  0.704633337745044  0.9213071679511413  0.5611910598543802  1.0000
  C   C19       1.0  0.2046275175823382  0.5611964193992234  0.9213086046753319  1.0000
  C   C20       1.0  0.29537784768911735  0.0786889947534419  0.4388026764150723  1.0000
  C   C21       1.0  0.8865778650744928  0.3519053329669646  0.029879219832153563  1.0000
  C   C22       1.0  0.6134252784748142  0.9701319946533359  0.6480918964346429  1.0000
  C   C23       1.0  0.11340859678555401  0.6480915885949797  0.9701382684418647  1.0000
  C   C24       1.0  0.3865859034935184  0.029864174341149408  0.35190100898510934  1.0000
  N   N1        1.0  0.7462073636151915  0.5407153192171775  0.6965736211818694  1.0000
  N   N2        1.0  0.7537940948223324  0.3034283623057377  0.45928906009150683  1.0000
  N   N3        1.0  0.253785906659509  0.4592884463864521  0.30343108841891114  1.0000
  N   N4        1.0  0.2462068909381471  0.6965735320116622  0.540709437476231  1.0000
  N   N5        1.0  0.5967156124932841  0.6522026148569395  0.04877317600044511  1.0000
  N   N6        1.0  0.9032718511576687  0.951233741394617  0.34779473871984135  1.0000
  N   N7        1.0  0.4032776404522593  0.3478011821962069  0.9512273793518561  1.0000
  N   N8        1.0  0.0967389646670611  0.04876917337531949  0.652197435131086  1.0000
  O   O1        1.0  0.9771018362899112  0.2954901612327276  0.857132462607666  1.0000
  O   O2        1.0  0.5229106447283627  0.1428719190063248  0.7045113396864338  1.0000
  O   O3        1.0  0.022883694848204166  0.7045048377964774  0.14288446315184442  1.0000
  O   O4        1.0  0.4770917093166674  0.8571194350984753  0.29548045004989365  1.0000
  O   O5        1.0  0.8501930730889738  0.47894059293553676  0.6357651942108759  1.0000
  O   O6        1.0  0.6498114011362545  0.3642406046732346  0.5210544656226546  1.0000
  O   O7        1.0  0.14980318825286792  0.5210467237980935  0.3642503127726399  1.0000
  O   O8        1.0  0.35019602118364906  0.6357535282611549  0.4789525001507684  1.0000
  O   O9        1.0  0.616331852627809  0.635759150634662  0.6488474138735043  1.0000
  O   O10       1.0  0.883670644502253  0.35115418764853956  0.3642412510524337  1.0000
  O   O11       1.0  0.38366533536010655  0.3642407768115845  0.3511560047012523  1.0000
  O   O12       1.0  0.11632615308124628  0.648852529602479  0.6357556200056322  1.0000
  O   O13       1.0  0.5085139307982374  0.7590993397312145  0.976542081306967  1.0000
  O   O14       1.0  0.9914834004260273  0.023460941533969  0.24090162352212013  1.0000
  O   O15       1.0  0.49148941920949346  0.24090449928813476  0.023454237014519215  1.0000
  O   O16       1.0  0.0085234872879952  0.976545830263056  0.7590893488057519  1.0000
  O   O17       1.0  0.5993427846939737  0.6222497340192275  0.16385897366777186  1.0000
  O   O18       1.0  0.9006282906111239  0.8361542587736606  0.37774205020421914  1.0000
  O   O19       1.0  0.40064655400417587  0.37775789490139994  0.8361437035602393  1.0000
  O   O20       1.0  0.09937567806478849  0.16385256303349385  0.6222419428997341  1.0000
  O   O21       1.0  0.7500035411207194  0.9323746489478139  0.067633453286156  1.0000
  O   O22       1.0  0.2499979786356263  0.06762528839692551  0.9323692176535802  1.0000
