data_image0
_chemical_formula_structural       Zn4H32C20S4N8O32
_chemical_formula_sum              "Zn4 H32 C20 S4 N8 O32"
_cell_length_a       7.81049151304956
_cell_length_b       11.162227782341699
_cell_length_c       11.16627715477584
_cell_angle_alpha    94.023566133857
_cell_angle_beta     89.99966772711734
_cell_angle_gamma    89.99977365188755

_space_group_name_H-M_alt    "P 1"
_space_group_IT_number       1

loop_
  _space_group_symop_operation_xyz
  'x, y, z'

loop_
  _atom_site_type_symbol
  _atom_site_label
  _atom_site_symmetry_multiplicity
  _atom_site_fract_x
  _atom_site_fract_y
  _atom_site_fract_z
  _atom_site_occupancy
  Zn  Zn1       1.0  0.9999988254851142  0.5000005418960002  0.5000007991135433  1.0000
  Zn  Zn2       1.0  0.4999991339786261  0.49999974883975556  1.7453544601202308e-06  1.0000
  Zn  Zn3       1.0  0.49999328980205593  9.723199959000275e-06  0.5000069074221045  1.0000
  Zn  Zn4       1.0  2.5606289781999997e-06  4.4650630429e-06  3.926819545100001e-06  1.0000
  H   H1        1.0  0.979878960994604  0.9369458079246795  0.6925035258747699  1.0000
  H   H2        1.0  0.4798778298554324  0.06305769213979322  0.80749481166437  1.0000
  H   H3        1.0  0.020117603370870492  0.0630577482262993  0.30749395343014646  1.0000
  H   H4        1.0  0.5201225755134046  0.9369359599551574  0.1925054857457767  1.0000
  H   H5        1.0  0.017982807864456194  0.24928117239593925  0.5988071147479205  1.0000
  H   H6        1.0  0.5179870500332552  0.750713906578703  0.9011861140081835  1.0000
  H   H7        1.0  0.9820201581552722  0.7507196895357925  0.40119015666026314  1.0000
  H   H8        1.0  0.4820171963192479  0.24927973918983787  0.09881507848209743  1.0000
  H   H9        1.0  0.6955169275029432  0.40891897124035387  0.3584410994802668  1.0000
  H   H10       1.0  0.1955155152196325  0.5910921489689045  0.14156078702635005  1.0000
  H   H11       1.0  0.30447835650297617  0.5910845343483047  0.6415635405322534  1.0000
  H   H12       1.0  0.8044797688081999  0.408914101393492  0.8584369001646694  1.0000
  H   H13       1.0  0.5112832894335071  0.22048425719419382  0.3408749152260171  1.0000
  H   H14       1.0  0.011285786384441098  0.7795283248499559  0.15912780602010912  1.0000
  H   H15       1.0  0.48871839622578506  0.7795192610257403  0.6591279345969668  1.0000
  H   H16       1.0  0.9887146189646924  0.22047522497460653  0.840870568364949  1.0000
  H   H17       1.0  0.9813558845335988  0.45765777213168235  0.24371830542822445  1.0000
  H   H18       1.0  0.4813512079478456  0.5423443654798349  0.25628535018481813  1.0000
  H   H19       1.0  0.018647081462454192  0.5423457587273646  0.7562827542158601  1.0000
  H   H20       1.0  0.5186504777313344  0.45765647749225036  0.7437146064903789  1.0000
  H   H21       1.0  0.8879745597416143  0.5845612717196643  0.28127850265785537  1.0000
  H   H22       1.0  0.3879606762413985  0.41544475658130864  0.2187240279563412  1.0000
  H   H23       1.0  0.11203224723625031  0.41544405527314165  0.7187226955672159  1.0000
  H   H24       1.0  0.6120358881107248  0.584556971827361  0.7812777882002141  1.0000
  H   H25       1.0  0.6775592450845592  0.6162086903684526  0.47141289960894295  1.0000
  H   H26       1.0  0.17755484352690587  0.38379527495676774  0.02859208751102221  1.0000
  H   H27       1.0  0.32244372092377194  0.3837921526016714  0.5285870570635965  1.0000
  H   H28       1.0  0.8224430011562306  0.6162046509897721  0.9714104851420232  1.0000
  H   H29       1.0  0.7517024513345802  0.6464963193816686  0.6050241250897842  1.0000
  H   H30       1.0  0.25170021707457824  0.35350873907120217  0.8949806003016435  1.0000
  H   H31       1.0  0.2482966736928205  0.35350002060416597  0.394977275294572  1.0000
  H   H32       1.0  0.7483014685912578  0.6464902761585662  0.10502369322518491  1.0000
  C   C1        1.0  0.8194028216202225  0.0380127729953657  0.6118764129862129  1.0000
  C   C2        1.0  0.3194061780023461  0.961994943143779  0.8881040716166527  1.0000
  C   C3        1.0  0.18059886407706927  0.9619908084299169  0.38811748595560414  1.0000
  C   C4        1.0  0.6805980683589041  0.0380068421379463  0.11188968873088363  1.0000
  C   C5        1.0  0.7985053117970579  0.14344198808621664  0.5368776877525931  1.0000
  C   C6        1.0  0.2985073425194713  0.856560315096772  0.9631149991446792  1.0000
  C   C7        1.0  0.20149125259871434  0.8565580073881592  0.463115038933829  1.0000
  C   C8        1.0  0.7014969038198727  0.1434387254112224  0.0368857140243577  1.0000
  C   C9        1.0  0.9031847120277801  0.2444160233244831  0.5431819171785222  1.0000
  C   C10       1.0  0.40318352476428726  0.7555805647958492  0.9568108141251488  1.0000
  C   C11       1.0  0.09681313266587209  0.7555866284341877  0.4568163879173782  1.0000
  C   C12       1.0  0.596814319963201  0.24440769888410335  0.04318906752344281  1.0000
  C   C13       1.0  0.7252103229384588  0.3317391405075796  0.4090647932477226  1.0000
  C   C14       1.0  0.22521018765883125  0.6682664940958817  0.09093744920748752  1.0000
  C   C15       1.0  0.2747849610722355  0.668265275791974  0.5909381258830352  1.0000
  C   C16       1.0  0.7747825357256203  0.331728947829923  0.9090638818956908  1.0000
  C   C17       1.0  0.6238866879889924  0.2287064041051181  0.3988295439214938  1.0000
  C   C18       1.0  0.1238871649613884  0.7712896807501936  0.10116967200784902  1.0000
  C   C19       1.0  0.37611243706597  0.7712908845148122  0.6011647650524099  1.0000
  C   C20       1.0  0.8761132403762558  0.2287102388718907  0.8988337957279955  1.0000
  S   S1        1.0  0.38322450732838576  0.23613071927737647  0.6917528455637127  1.0000
  S   S2        1.0  0.883223066340875  0.7638757518065165  0.8082487867033736  1.0000
  S   S3        1.0  0.6167861406349999  0.7638727989288442  0.30825000424064813  1.0000
  S   S4        1.0  0.11677477835648628  0.2361232950318026  0.19175103139084373  1.0000
  N   N1        1.0  0.660545048473395  0.1372689857213061  0.4648702225072868  1.0000
  N   N2        1.0  0.1605481338814485  0.8627288020534608  0.03512629443323333  1.0000
  N   N3        1.0  0.3394451142585737  0.8627318825505483  0.5351261538393786  1.0000
  N   N4        1.0  0.8394522714958654  0.1372621558320262  0.9648737950934747  1.0000
  N   N5        1.0  0.8617763034962136  0.33907947199115546  0.48131278830979346  1.0000
  N   N6        1.0  0.3617768258028633  0.6609185791104935  0.018685647120101106  1.0000
  N   N7        1.0  0.1382202608863068  0.6609223069817887  0.5186818671418152  1.0000
  N   N8        1.0  0.6382222992017432  0.33907772295213334  0.9813211237929595  1.0000
  O   O1        1.0  0.6934400550923454  0.9727547864349403  0.6281069591797604  1.0000
  O   O2        1.0  0.1934257733211381  0.0272478003586798  0.871891534804796  1.0000
  O   O3        1.0  0.30656035024919964  0.027248750748562103  0.3718932053815324  1.0000
  O   O4        1.0  0.8065682303925567  0.9727512528060557  0.1281073882092869  1.0000
  O   O5        1.0  0.9716120504903714  0.022837074327355798  0.6552260322410035  1.0000
  O   O6        1.0  0.4716348959381307  0.9771628966418363  0.8447666918890352  1.0000
  O   O7        1.0  0.028379392585776497  0.9771565967429153  0.3447715799234103  1.0000
  O   O8        1.0  0.5283783127403723  0.022833493886722105  0.15522754776112896  1.0000
  O   O9        1.0  0.9710282890646834  0.5245878727639663  0.3074693863997667  1.0000
  O   O10       1.0  0.4710142908584132  0.47541611156639624  0.19253176546630613  1.0000
  O   O11       1.0  0.028978517916009097  0.47541655615902567  0.6925317425308252  1.0000
  O   O12       1.0  0.5289848341605108  0.5245829226288948  0.8074698428014886  1.0000
  O   O13       1.0  0.335657106314187  0.1428474610274719  0.5967413692481217  1.0000
  O   O14       1.0  0.8356530488328314  0.8571537545608547  0.9032618350666085  1.0000
  O   O15       1.0  0.6643535416339998  0.8571560318966149  0.4032650609087157  1.0000
  O   O16       1.0  0.16433967456009665  0.1428389931555003  0.09673928815313813  1.0000
  O   O17       1.0  0.5044573709817541  0.18466951593454442  0.7782314693696081  1.0000
  O   O18       1.0  0.0044488891786827  0.8153372477535612  0.7217671918771702  1.0000
  O   O19       1.0  0.4955494360131566  0.8153340338802266  0.2217669050021556  1.0000
  O   O20       1.0  0.995542553865306  0.1846617864534821  0.27823441640658336  1.0000
  O   O21       1.0  0.46911532172617143  0.3404419905464451  0.6385098496044536  1.0000
  O   O22       1.0  0.969117855695785  0.6595642493006295  0.8614869503549941  1.0000
  O   O23       1.0  0.5308902049650257  0.6595534766419109  0.3614879011196593  1.0000
  O   O24       1.0  0.0308825496552103  0.34043749806376417  0.13851218052922581  1.0000
  O   O25       1.0  0.22502535305756766  0.28255906857002344  0.7556955546675044  1.0000
  O   O26       1.0  0.7250259994622111  0.7174442753730544  0.7443091429668769  1.0000
  O   O27       1.0  0.774985294954142  0.7174400161719134  0.24429889287141296  1.0000
  O   O28       1.0  0.2749731255547587  0.2825529500415343  0.2556941168881935  1.0000
  O   O29       1.0  0.7609161695602396  0.5905347389616011  0.5318838342483049  1.0000
  O   O30       1.0  0.26091299605351276  0.40946668637757694  0.9681223658622786  1.0000
  O   O31       1.0  0.23908167513137354  0.40946249277548236  0.4681185305213092  1.0000
  O   O32       1.0  0.7390848486314777  0.5905314371087871  0.03188096328993592  1.0000
