data_image0
_chemical_formula_structural       Al4H44C80Cl8O36
_chemical_formula_sum              "Al4 H44 C80 Cl8 O36"
_cell_length_a       6.904904543968371
_cell_length_b       25.404788708920442
_cell_length_c       28.686080658946807
_cell_angle_alpha    89.99317429196059
_cell_angle_beta     90.06921385752514
_cell_angle_gamma    89.99869174896891

_space_group_name_H-M_alt    "P 1"
_space_group_IT_number       1

loop_
  _space_group_symop_operation_xyz
  'x, y, z'

loop_
  _atom_site_type_symbol
  _atom_site_label
  _atom_site_symmetry_multiplicity
  _atom_site_fract_x
  _atom_site_fract_y
  _atom_site_fract_z
  _atom_site_occupancy
  Al  Al1       1.0  0.654585796214178  0.7477707941699518  0.75051883125213  1.0000
  Al  Al2       1.0  0.3468732876445983  0.25141755812250466  0.2503546615275597  1.0000
  Al  Al3       1.0  0.1545885135631195  0.751296874278033  0.7500121370335365  1.0000
  Al  Al4       1.0  0.8468528352638457  0.24802218376496643  0.24999576479780225  1.0000
  H   H1        1.0  0.33780542813909875  0.4247334428146417  0.4279861051141794  1.0000
  H   H2        1.0  0.6540781824306522  0.5748626026399037  0.5730934724408527  1.0000
  H   H3        1.0  0.6681710000818486  0.5762184213033875  0.9298514261056713  1.0000
  H   H4        1.0  0.34842451516626477  0.4197069575413506  0.06964797447582781  1.0000
  H   H5        1.0  0.8400977854413083  0.07546544955565788  0.0720481428243716  1.0000
  H   H6        1.0  0.1573742707365682  0.9243341978238463  0.9274769198593165  1.0000
  H   H7        1.0  0.16005321037919631  0.9246974657607364  0.5728384092537981  1.0000
  H   H8        1.0  0.8436058582369483  0.0746377481878966  0.4273929772979629  1.0000
  H   H9        1.0  0.7645330914919838  0.34555509534094847  0.3517585188806436  1.0000
  H   H10       1.0  0.2313567829809244  0.6532872292503951  0.6480285018329328  1.0000
  H   H11       1.0  0.2390791252679065  0.6507059319430367  0.8491631639802011  1.0000
  H   H12       1.0  0.7704396966698042  0.3512961533070466  0.15143189553129596  1.0000
  H   H13       1.0  0.2659617341434454  0.15310712048611919  0.14877271704915535  1.0000
  H   H14       1.0  0.7333941229811816  0.8455419299212534  0.8525661914285368  1.0000
  H   H15       1.0  0.7350026680084626  0.8464551942783486  0.6490509363459582  1.0000
  H   H16       1.0  0.2676270264691141  0.1534428715700145  0.3521085498812512  1.0000
  H   H17       1.0  0.8185010925019468  0.5098373743447195  0.42575338519399264  1.0000
  H   H18       1.0  0.16983547403826546  0.4887926811366654  0.5750799013558351  1.0000
  H   H19       1.0  0.151116984023723  0.4828490006872101  0.9219384912793915  1.0000
  H   H20       1.0  0.8719583375248091  0.5165427067139632  0.07811112201396503  1.0000
  H   H21       1.0  0.3239685508360708  0.9891252071459746  0.0748863991380162  1.0000
  H   H22       1.0  0.6718496153893979  0.010390601230952298  0.9253174785382614  1.0000
  H   H23       1.0  0.6769735743062101  0.010636088426188897  0.5750885060393147  1.0000
  H   H24       1.0  0.3271788025479622  0.9890309457352583  0.4256201719102536  1.0000
  H   H25       1.0  0.4087194145582131  0.33381980907599024  0.3350219562622813  1.0000
  H   H26       1.0  0.5871202389322008  0.6661199192192765  0.6658191317229625  1.0000
  H   H27       1.0  0.5945148646842641  0.666135763886295  0.8359621739660243  1.0000
  H   H28       1.0  0.41494208887709755  0.3309550504589963  0.16429480396410415  1.0000
  H   H29       1.0  0.91052190124239  0.16666159700122307  0.16475037028971684  1.0000
  H   H30       1.0  0.08902844219525721  0.8329841635817202  0.8347841265896321  1.0000
  H   H31       1.0  0.09074663191859858  0.8335509552014245  0.6656301885676115  1.0000
  H   H32       1.0  0.9118068965059508  0.16547604510574837  0.33430995230855853  1.0000
  H   H33       1.0  0.5905203510663597  0.39256723442436947  0.39989602024863313  1.0000
  H   H34       1.0  0.40235714005859785  0.6060865128711795  0.5998552898972138  1.0000
  H   H35       1.0  0.41465812998178825  0.6032701899159959  0.8973720104282493  1.0000
  H   H36       1.0  0.6004158129293202  0.39901261194552967  0.10308209961025483  1.0000
  H   H37       1.0  0.0926639359808661  0.10645039568559157  0.10028542583839342  1.0000
  H   H38       1.0  0.9052615640782379  0.8928378993443218  0.900665886009101  1.0000
  H   H39       1.0  0.907819587738203  0.8934048594140406  0.600788048824086  1.0000
  H   H40       1.0  0.09566159435431838  0.10636568155950239  0.4003179101705072  1.0000
  H   H41       1.0  0.3919842775496321  0.6790231795108924  0.7502202054624618  1.0000
  H   H42       1.0  0.6093247608117238  0.3202273748755289  0.25023284317762773  1.0000
  H   H43       1.0  0.8916390301978723  0.8200426830377905  0.7506074357375926  1.0000
  H   H44       1.0  0.10925468379642918  0.17922953036420342  0.24929893299665914  1.0000
  C   C1        1.0  0.4116008359461959  0.8126588398450991  0.6871550581130708  1.0000
  C   C2        1.0  0.5899967908019265  0.1869786465942411  0.3135291295749029  1.0000
  C   C3        1.0  0.5899234397479063  0.18709404039093158  0.18667000465778477  1.0000
  C   C4        1.0  0.41111237618394364  0.8117668158178116  0.8139824302561041  1.0000
  C   C5        1.0  0.9134980284643033  0.6862153707220029  0.8132764000570207  1.0000
  C   C6        1.0  0.0916211386119841  0.31275732592273187  0.1870452077333624  1.0000
  C   C7        1.0  0.08869487944919288  0.31227858846644807  0.3137222267624368  1.0000
  C   C8        1.0  0.9099520133228153  0.6872329154829726  0.6866282015973655  1.0000
  C   C9        1.0  0.23722713879242718  0.371776809990699  0.3746541011804255  1.0000
  C   C10       1.0  0.7572119513603327  0.6278916972436477  0.626104150726235  1.0000
  C   C11       1.0  0.7669523273128079  0.6277185969935528  0.8751242043918313  1.0000
  C   C12       1.0  0.24501397707411599  0.3697639062738531  0.12495120167502455  1.0000
  C   C13       1.0  0.73905142336271  0.1281861868993772  0.1254521677261806  1.0000
  C   C14       1.0  0.25961349872643064  0.8712044840583528  0.8744959883389644  1.0000
  C   C15       1.0  0.2616805269354002  0.8718594876375432  0.6261625764692982  1.0000
  C   C16       1.0  0.7413241963156736  0.12757215457436635  0.3742070839636115  1.0000
  C   C17       1.0  0.21176179867038067  0.40715005302998714  0.41130593886735073  1.0000
  C   C18       1.0  0.7808801879685134  0.5923464192299546  0.5895165099667496  1.0000
  C   C19       1.0  0.7934806435140161  0.5925324465617549  0.9119221023420966  1.0000
  C   C20       1.0  0.22162354055135577  0.4047717825229923  0.08790460875108151  1.0000
  C   C21       1.0  0.713871682523532  0.09273763154304498  0.08883729436062993  1.0000
  C   C22       1.0  0.28389519937813656  0.9067738747518631  0.9110618927617724  1.0000
  C   C23       1.0  0.28646819322199235  0.9073024141707715  0.5895247736775888  1.0000
  C   C24       1.0  0.7170536886676828  0.0922020524280995  0.4109185242923985  1.0000
  C   C25       1.0  0.027601697100834596  0.4210892195281062  0.4271218800637868  1.0000
  C   C26       1.0  0.964144777196303  0.5779718998262382  0.5734111131099057  1.0000
  C   C27       1.0  0.9782402298274208  0.5772352980109756  0.9262819948803058  1.0000
  C   C28       1.0  0.03874499366468599  0.4217383190519968  0.07361357107379973  1.0000
  C   C29       1.0  0.5298560354993497  0.07836561204070588  0.0731330768537219  1.0000
  C   C30       1.0  0.46744823028614496  0.9210403876968837  0.9271557758630209  1.0000
  C   C31       1.0  0.47026999278099163  0.9215524186237258  0.5736760273535425  1.0000
  C   C32       1.0  0.5334609695383391  0.07814531366942387  0.42704826255231876  1.0000
  C   C33       1.0  0.8635945620576351  0.3988388215360032  0.40488002745434676  1.0000
  C   C34       1.0  0.12936479319673566  0.600049911612693  0.5952686819669213  1.0000
  C   C35       1.0  0.14157922406652554  0.5980473508806624  0.9029250800625307  1.0000
  C   C36       1.0  0.8735440136109247  0.4025920643924364  0.09737614334323302  1.0000
  C   C37       1.0  0.36564109970154857  0.10031394012671767  0.09543295450269801  1.0000
  C   C38       1.0  0.6322781455408447  0.8989074442054913  0.9052858450230447  1.0000
  C   C39       1.0  0.6347399168516786  0.89951243195636  0.59590546879204  1.0000
  C   C40       1.0  0.3686830436062253  0.10028724030446767  0.4050613858288799  1.0000
  C   C41       1.0  0.8894097026708891  0.36339117734399184  0.368597076329067  1.0000
  C   C42       1.0  0.1054886656337999  0.6356475494448118  0.6314759586173297  1.0000
  C   C43       1.0  0.11480449030644019  0.6336633225940815  0.8667751524831362  1.0000
  C   C44       1.0  0.8966634994212369  0.3669323609988737  0.13358261670776986  1.0000
  C   C45       1.0  0.3911230435661395  0.1356770877984133  0.13180421493606792  1.0000
  C   C46       1.0  0.6077915977728878  0.863266008012509  0.869104070034716  1.0000
  C   C47       1.0  0.6096633934187067  0.8640557336502821  0.6322218128152457  1.0000
  C   C48       1.0  0.3932005331911411  0.13573369871510008  0.36873867173101627  1.0000
  C   C49       1.0  0.07432751328796168  0.3493188955229625  0.3527051830194595  1.0000
  C   C50       1.0  0.9215504224596458  0.650109130154611  0.6476799850631565  1.0000
  C   C51       1.0  0.9292762559697253  0.6489558273227445  0.8520854502206138  1.0000
  C   C52       1.0  0.08031641865403572  0.35001849150843606  0.1481752242845431  1.0000
  C   C53       1.0  0.5758760182582349  0.15016444507220678  0.14760406607121723  1.0000
  C   C54       1.0  0.42355050833233315  0.8488739231864174  0.8529274608975614  1.0000
  C   C55       1.0  0.42513619849105305  0.8496793657605151  0.6481426056693493  1.0000
  C   C56       1.0  0.5774549069757383  0.14992309848168617  0.3525288576138054  1.0000
  C   C57       1.0  0.8955901789865948  0.5048359190383209  0.45858682404123396  1.0000
  C   C58       1.0  0.09303885175391709  0.49382996038571747  0.5422106038108438  1.0000
  C   C59       1.0  0.09018263296204762  0.49057911642860563  0.9562736294251055  1.0000
  C   C60       1.0  0.9323712699995355  0.5087665320285096  0.043746615653724105  1.0000
  C   C61       1.0  0.400142848100515  0.9941904381771421  0.041972637907989  1.0000
  C   C62       1.0  0.5957709038449579  0.005325371167550898  0.9582319534073778  1.0000
  C   C63       1.0  0.6004326266617284  0.005500091950388299  0.5421967678151207  1.0000
  C   C64       1.0  0.40383848393658883  0.9941748162225958  0.4585018204432886  1.0000
  C   C65       1.0  0.8824803916338694  0.5439846340150253  0.49239448296572885  1.0000
  C   C66       1.0  0.1060661035998862  0.4546800635019252  0.5084099028182367  1.0000
  C   C67       1.0  0.101550745301914  0.4518966811795337  0.9905899684908662  1.0000
  C   C68       1.0  0.9212914484199786  0.5474540862745697  0.009474598071932402  1.0000
  C   C69       1.0  0.3874711896229002  0.9549091962361302  0.0082651373335025  1.0000
  C   C70       1.0  0.608312174755973  0.044620782841825184  0.991918862877576  1.0000
  C   C71       1.0  0.6135812181506851  0.0445740340381633  0.50830851009691  1.0000
  C   C72       1.0  0.39092013317058155  0.9550839509890277  0.4923733863473886  1.0000
  C   C73       1.0  0.9809632304825584  0.5391575220084873  0.5352597955241764  1.0000
  C   C74       1.0  0.008441838095215799  0.45961425341877754  0.4654408455769784  1.0000
  C   C75       1.0  0.022619742420118896  0.4603377531891295  0.03522162203415751  1.0000
  C   C76       1.0  0.9985611253282016  0.5388260273362063  0.9647311224955433  1.0000
  C   C77       1.0  0.48482434187349815  0.9598397665265564  0.9653157636109669  1.0000
  C   C78       1.0  0.5113849123197127  0.03965439572323959  0.034915722663335216  1.0000
  C   C79       1.0  0.5158042847568679  0.039541596624793784  0.46537026023154493  1.0000
  C   C80       1.0  0.48842341891079843  0.9601313424736799  0.5353478423967604  1.0000
  Cl  Cl1       1.0  0.7475695773218335  0.5995183884863379  0.47896141644542223  1.0000
  Cl  Cl2       1.0  0.2402167315266723  0.39904002054363724  0.5219010641192555  1.0000
  Cl  Cl3       1.0  0.2092735530052252  0.3925235277487643  0.9760228775454041  1.0000
  Cl  Cl4       1.0  0.815538299541096  0.6070335192357845  0.024085585190441308  1.0000
  Cl  Cl5       1.0  0.25436700508289073  0.899146732098529  0.021849095482011208  1.0000
  Cl  Cl6       1.0  0.740838247012654  0.10045094783538387  0.9782145321139314  1.0000
  Cl  Cl7       1.0  0.7481048866304434  0.10018979599215068  0.5216437907977465  1.0000
  Cl  Cl8       1.0  0.25703497597463343  0.8993839618060162  0.4789482835595608  1.0000
  O   O1        1.0  0.24023025080334998  0.7993973123461515  0.7981924521108399  1.0000
  O   O2        1.0  0.7615874100171637  0.20000402016973595  0.20171127563239824  1.0000
  O   O3        1.0  0.7607342358331904  0.19908837111200478  0.2975810603663973  1.0000
  O   O4        1.0  0.24013652214409117  0.8000464640917215  0.7024156038932361  1.0000
  O   O5        1.0  0.7392870654746558  0.6996205446078461  0.7024671638114272  1.0000
  O   O6        1.0  0.2601046664896884  0.3001495735331047  0.2981263454865797  1.0000
  O   O7        1.0  0.26250645175517207  0.29954387066062077  0.20230297275207937  1.0000
  O   O8        1.0  0.7415156746626721  0.698919060647874  0.7983189842749356  1.0000
  O   O9        1.0  0.5692725489146752  0.7953428273504386  0.7041807505640209  1.0000
  O   O10       1.0  0.4316588086966108  0.20477603925351665  0.2972252343276055  1.0000
  O   O11       1.0  0.4324105263697575  0.20403996418076528  0.2039613673950811  1.0000
  O   O12       1.0  0.5693889326684669  0.7942139063704515  0.7975345170651809  1.0000
  O   O13       1.0  0.07055938134254089  0.7036664172742775  0.7961555172035446  1.0000
  O   O14       1.0  0.9331368916230003  0.2958014544035165  0.20387088689316366  1.0000
  O   O15       1.0  0.931121188131172  0.29448357451456525  0.297073010045331  1.0000
  O   O16       1.0  0.06847524361109689  0.7047909829846901  0.7030025555761485  1.0000
  O   O17       1.0  0.402648780617973  0.7170590390597623  0.7499486145514425  1.0000
  O   O18       1.0  0.598888339396332  0.28218522882041697  0.2501422772345094  1.0000
  O   O19       1.0  0.9024369190654298  0.7820058715990468  0.7505773427614032  1.0000
  O   O20       1.0  0.09876243995864088  0.21726081551993554  0.25006637047494  1.0000
  O   O21       1.0  0.4218734634458415  0.35981556775895734  0.360983714316987  1.0000
  O   O22       1.0  0.5730468162604083  0.6400513270969129  0.6399774892167472  1.0000
  O   O23       1.0  0.5820227589353378  0.640676380502242  0.862365608221765  1.0000
  O   O24       1.0  0.42902672548468956  0.35583464658542846  0.13756470533851944  1.0000
  O   O25       1.0  0.923714540837814  0.1405767546953953  0.13887228288645304  1.0000
  O   O26       1.0  0.0752680177593277  0.8590780543101812  0.8606279526674002  1.0000
  O   O27       1.0  0.07720309108066908  0.8596398594264086  0.6397468680657853  1.0000
  O   O28       1.0  0.9255968066009572  0.13954341067570647  0.3602919559173544  1.0000
  O   O29       1.0  0.6828215399998783  0.41207345576298565  0.4197330778253488  1.0000
  O   O30       1.0  0.30973333255973046  0.5865857947610634  0.5801848077300491  1.0000
  O   O31       1.0  0.3222404868654322  0.5832611011887038  0.9167386632556075  1.0000
  O   O32       1.0  0.6936914824542838  0.41892841207780407  0.08402934337235021  1.0000
  O   O33       1.0  0.18489277832527054  0.0868579019528681  0.08057492679552782  1.0000
  O   O34       1.0  0.8128588311870287  0.912386306475099  0.9203223257461491  1.0000
  O   O35       1.0  0.8153679057626703  0.9129361566959983  0.5810361653798922  1.0000
  O   O36       1.0  0.18817566870971095  0.08698199302636311  0.42014334654314217  1.0000
