data_image0
_chemical_formula_structural       Sm2H26C30N8O16
_chemical_formula_sum              "Sm2 H26 C30 N8 O16"
_cell_length_a       9.30301023503999
_cell_length_b       10.020425015355894
_cell_length_c       12.203580679191708
_cell_angle_alpha    100.07612311966095
_cell_angle_beta     91.720838287192
_cell_angle_gamma    110.8587940078153

_space_group_name_H-M_alt    "P 1"
_space_group_IT_number       1

loop_
  _space_group_symop_operation_xyz
  'x, y, z'

loop_
  _atom_site_type_symbol
  _atom_site_label
  _atom_site_symmetry_multiplicity
  _atom_site_fract_x
  _atom_site_fract_y
  _atom_site_fract_z
  _atom_site_occupancy
  Sm  Sm1       1.0  0.1925882077655956  0.4432999313159343  0.016442506971252192  1.0000
  Sm  Sm2       1.0  0.8074178389583436  0.5566990929397446  0.9835568719975001  1.0000
  H   H1        1.0  0.19391792860290738  0.3113103825617785  0.23911800055089566  1.0000
  H   H2        1.0  0.8060838267788525  0.6886886787847643  0.7608837394051378  1.0000
  H   H3        1.0  0.0748631241825777  0.19626599582335302  0.14249510736723886  1.0000
  H   H4        1.0  0.9251500926264171  0.8037380798393057  0.8574975575165382  1.0000
  H   H5        1.0  0.4015536586835892  0.5339440817281372  0.2253599606274932  1.0000
  H   H6        1.0  0.5984505676195582  0.46605891669243243  0.7746364818877183  1.0000
  H   H7        1.0  0.2784686728502023  0.6083065821969883  0.2603228857049231  1.0000
  H   H8        1.0  0.7215375558836142  0.391692956672216  0.7396831153645209  1.0000
  H   H9        1.0  0.11645766526735456  0.2926160751465403  0.7774871852408652  1.0000
  H   H10       1.0  0.8835845152899395  0.7073512919691325  0.22252801923277593  1.0000
  H   H11       1.0  0.24344182267058298  0.4475402279859821  0.7658862783494129  1.0000
  H   H12       1.0  0.756560383417522  0.5524358014855508  0.2341066359155377  1.0000
  H   H13       1.0  0.7766256057798628  0.7566203795825787  0.4918997980733764  1.0000
  H   H14       1.0  0.2233445669837479  0.2433776223505362  0.5081158383502  1.0000
  H   H15       1.0  0.8241316590253119  0.8993066126172026  0.33817248511658693  1.0000
  H   H16       1.0  0.1758575349634555  0.10069951925369482  0.6618435982349808  1.0000
  H   H17       1.0  0.3711637466961477  0.919858040362854  0.3535839979687481  1.0000
  H   H18       1.0  0.6288357573678381  0.0801711206893216  0.6464222948661487  1.0000
  H   H19       1.0  0.3230503196524238  0.776173641056559  0.503539446320012  1.0000
  H   H20       1.0  0.6769204720349079  0.22384129580590437  0.4964606360828299  1.0000
  H   H21       1.0  0.6605147246343747  0.2232935862671042  0.17206791610355046  1.0000
  H   H22       1.0  0.33948312741735975  0.7767035699284008  0.8279384655415639  1.0000
  H   H23       1.0  0.19766409332769538  0.0573149516865641  0.005616152674775795  1.0000
  H   H24       1.0  0.8023488634751742  0.9426731989040035  0.9943634442808218  1.0000
  H   H25       1.0  0.3637514540507496  0.7812160006760465  0.16638934142994088  1.0000
  H   H26       1.0  0.6362633771767676  0.2187865576771557  0.833610601306269  1.0000
  C   C1        1.0  0.5096503057715865  0.6683166565322339  0.5936769073830845  1.0000
  C   C2        1.0  0.4903283527876781  0.3316870725904693  0.4063263677730689  1.0000
  C   C3        1.0  0.5457313381375996  0.7555931406213006  0.507125251985876  1.0000
  C   C4        1.0  0.45424743123595596  0.24441393947389403  0.4928799978619551  1.0000
  C   C5        1.0  0.6881962046567764  0.7928523185410015  0.46147400956094486  1.0000
  C   C6        1.0  0.3117699451368736  0.2071495152857139  0.5385378014962612  1.0000
  C   C7        1.0  0.7144249626503268  0.8703146373882119  0.37499731781088735  1.0000
  C   C8        1.0  0.28556379782382624  0.12969330807121077  0.6250148293137059  1.0000
  C   C9        1.0  0.5988140881587043  0.9124346833669676  0.3335454034782969  1.0000
  C   C10       1.0  0.4011831341187032  0.0875819607509953  0.6664653458784642  1.0000
  C   C11       1.0  0.4581958524443975  0.8803068735099017  0.3809584223093978  1.0000
  C   C12       1.0  0.5417904877107844  0.1197155038898217  0.6190485208162285  1.0000
  C   C13       1.0  0.4320235380056801  0.8012812310205959  0.4659312868195684  1.0000
  C   C14       1.0  0.5679574478426374  0.19873514368970996  0.5340691873398952  1.0000
  C   C15       1.0  0.5184716363271633  0.004044794598030398  0.18386280248581946  1.0000
  C   C16       1.0  0.48153633574809607  0.9959596651433383  0.8161371593856329  1.0000
  C   C17       1.0  0.548558615620557  0.1351910419387252  0.1485879639868983  1.0000
  C   C18       1.0  0.45145675405210267  0.8648191124765248  0.8514135614254387  1.0000
  C   C19       1.0  0.43336169963301063  0.15278222630218607  0.08241034792612817  1.0000
  C   C20       1.0  0.5666418972200588  0.8472129187495697  0.9175812008625995  1.0000
  C   C21       1.0  0.4707009794004263  0.29186402420123875  0.0400468815235442  1.0000
  C   C22       1.0  0.5293062423436582  0.7081413550115842  0.9599515108281622  1.0000
  C   C23       1.0  0.2878100990220887  0.041251467856511695  0.05469583853513169  1.0000
  C   C24       1.0  0.7122000443497214  0.9587348165553209  0.9452884306846698  1.0000
  C   C25       1.0  0.26313383653901906  0.9065668053013877  0.08492892544436607  1.0000
  C   C26       1.0  0.7368885144081502  0.0934296390897842  0.9150574653638371  1.0000
  C   C27       1.0  0.11099139671913602  0.7846162739428095  0.0533022334625883  1.0000
  C   C28       1.0  0.8890212163328995  0.21537698333868596  0.9466885295785586  1.0000
  C   C29       1.0  0.3799581592281029  0.8870440222573848  0.14703236367001438  1.0000
  C   C30       1.0  0.6200469125941978  0.1129522488638131  0.8529593322743737  1.0000
  N   N1        1.0  0.3624654509575791  0.6014193928609187  0.6165513317389539  1.0000
  N   N2        1.0  0.6375128739176503  0.3985773191399388  0.3834578106043551  1.0000
  N   N3        1.0  0.37462382328341454  0.5294688220745416  0.6957919498999772  1.0000
  N   N4        1.0  0.6253696990486048  0.4705191480847332  0.3042076741875874  1.0000
  N   N5        1.0  0.521530269838621  0.5513965108723653  0.7209699111578658  1.0000
  N   N6        1.0  0.4784670618766069  0.44859613647022917  0.2790195960690127  1.0000
  N   N7        1.0  0.6109206038834641  0.6388477105996697  0.6585319631029803  1.0000
  N   N8        1.0  0.389062823334335  0.3611542900404316  0.3414605874346037  1.0000
  O   O1        1.0  0.6121624916962317  0.36945871609744774  0.04131187103062927  1.0000
  O   O2        1.0  0.3878363036802667  0.630550216922984  0.9586948735124778  1.0000
  O   O3        1.0  0.11769667126245759  0.2997882806776672  0.17607969140908608  1.0000
  O   O4        1.0  0.8823190678541479  0.7002138020343125  0.8239136598015547  1.0000
  O   O5        1.0  0.3594001431701912  0.3230185855795257  0.0032946636503367933  1.0000
  O   O6        1.0  0.640596215344118  0.6769713150851757  0.9967011159356146  1.0000
  O   O7        1.0  0.3274916697880172  0.5813598742639173  0.19521165847198324  1.0000
  O   O8        1.0  0.6725172940563482  0.4186534616167136  0.8047924859438993  1.0000
  O   O9        1.0  0.0984520783069343  0.6491040303609665  0.038245066508032693  1.0000
  O   O10       1.0  0.901557245238834  0.35088601633788835  0.9617469411664245  1.0000
  O   O11       1.0  0.1592113620876958  0.3945341037808632  0.8142271825588311  1.0000
  O   O12       1.0  0.8407944789582229  0.6054400360389776  0.18576727637069718  1.0000
  O   O13       1.0  0.9902249525532766  0.8145600521520038  0.04264852276560296  1.0000
  O   O14       1.0  0.009790746944624083  0.18543584322850384  0.9573475011623813  1.0000
  O   O15       1.0  0.6356072565382433  0.991863896547095  0.24954101656123126  1.0000
  O   O16       1.0  0.3643961912582938  0.0081490579485575  0.7504744470747227  1.0000
