data_image0
_chemical_formula_structural       Cd8H8C16O24
_chemical_formula_sum              "Cd8 H8 C16 O24"
_cell_length_a       5.911641280109902
_cell_length_b       6.96349859414545
_cell_length_c       15.850236160040348
_cell_angle_alpha    90.0002555885209
_cell_angle_beta     90.00002783007223
_cell_angle_gamma    90.00069692178631

_space_group_name_H-M_alt    "P 1"
_space_group_IT_number       1

loop_
  _space_group_symop_operation_xyz
  'x, y, z'

loop_
  _atom_site_type_symbol
  _atom_site_label
  _atom_site_symmetry_multiplicity
  _atom_site_fract_x
  _atom_site_fract_y
  _atom_site_fract_z
  _atom_site_occupancy
  Cd  Cd1       1.0  0.027641679892035097  0.6017644136216163  0.6921839657092974  1.0000
  Cd  Cd2       1.0  0.9723507117884012  0.8982297869191241  0.19218675542057184  1.0000
  Cd  Cd3       1.0  0.5276469456865414  0.3982305350914216  0.8078155356953475  1.0000
  Cd  Cd4       1.0  0.47235195300310556  0.10177039062060088  0.30781322771939307  1.0000
  Cd  Cd5       1.0  0.9723505821149986  0.398230277346812  0.3078116756745928  1.0000
  Cd  Cd6       1.0  0.0276415502518788  0.1017692122511207  0.8078133023054904  1.0000
  Cd  Cd7       1.0  0.47235039111875204  0.6017727722972025  0.1921870456571355  1.0000
  Cd  Cd8       1.0  0.5276403090354336  0.8982286085335076  0.692183675479541  1.0000
  H   H1        1.0  0.2961061779700813  0.7291952249368234  0.8215720952711509  1.0000
  H   H2        1.0  0.7038812813522312  0.7708089154389551  0.3215644864265101  1.0000
  H   H3        1.0  0.7961010205616431  0.2707967559915261  0.6784255696121022  1.0000
  H   H4        1.0  0.20388251153223538  0.22919135764165327  0.1784335477973755  1.0000
  H   H5        1.0  0.703875934637459  0.27080808237952425  0.17843174789059907  1.0000
  H   H6        1.0  0.2961059060212321  0.22920013606839257  0.6784248459165527  1.0000
  H   H7        1.0  0.20388278354570127  0.7291964988605173  0.3215675481477973  1.0000
  H   H8        1.0  0.7961029841291847  0.7707975891076728  0.8215728189724631  1.0000
  C   C1        1.0  0.5842837401187282  0.5697984315903427  0.5485672052812732  1.0000
  C   C2        1.0  0.41574232531660027  0.9302187130125075  0.0485655243365315  1.0000
  C   C3        1.0  0.08428645461393809  0.43020715537085147  0.951439878855709  1.0000
  C   C4        1.0  0.9157227515655748  0.06980241983051629  0.4514287688227229  1.0000
  C   C5        1.0  0.4157355872957282  0.4302192364868347  0.45143095974950154  1.0000
  C   C6        1.0  0.5842770020308096  0.06978890269164849  0.9514414733604399  1.0000
  C   C7        1.0  0.9157464052409735  0.5697846637428866  0.048566487921881715  1.0000
  C   C8        1.0  0.0842779684113069  0.9302037596563649  0.5485662416677997  1.0000
  C   C9        1.0  0.3715890531605909  0.4593556874949626  0.5419886247230252  1.0000
  C   C10       1.0  0.628394328969236  0.0406468270880112  0.04198749232501341  1.0000
  C   C11       1.0  0.8716100540171752  0.5406385102950607  0.9580103177771451  1.0000
  C   C12       1.0  0.1284215362444598  0.9593454851064749  0.45800674065927194  1.0000
  C   C13       1.0  0.6284015173592009  0.540651927983042  0.4580032312407028  1.0000
  C   C14       1.0  0.3716080826284269  0.959365096665955  0.9580113036038258  1.0000
  C   C15       1.0  0.12840419843952594  0.4593475644512138  0.04198973993865  1.0000
  C   C16       1.0  0.8716011741636365  0.0406492060581343  0.5419964715929169  1.0000
  O   O1        1.0  0.6876025594197441  0.6550552628911034  0.6076553776132843  1.0000
  O   O2        1.0  0.3123795898654436  0.8449438172143144  0.1076680200007587  1.0000
  O   O3        1.0  0.18762090490272948  0.3449312877955463  0.8923391100264697  1.0000
  O   O4        1.0  0.8124051518483383  0.15504896181115407  0.392342655039336  1.0000
  O   O5        1.0  0.3123795531777347  0.34494804433167303  0.3923301692910998  1.0000
  O   O6        1.0  0.6876160554043693  0.1550652344142165  0.8923364540734158  1.0000
  O   O7        1.0  0.8123882728143457  0.6550533508970133  0.10766725674165661  1.0000
  O   O8        1.0  0.18760910059162944  0.8449342408511313  0.6076643426333491  1.0000
  O   O9        1.0  0.21728806250576577  0.40571687734385625  0.5918862356567092  1.0000
  O   O10       1.0  0.7827190566407792  0.09429189206637285  0.09189407258237033  1.0000
  O   O11       1.0  0.7172894768964042  0.5942785966275891  0.908108258204152  1.0000
  O   O12       1.0  0.2827082270120301  0.9057163766659783  0.40811533444916404  1.0000
  O   O13       1.0  0.7827143490281829  0.5942864300322908  0.4081087748311987  1.0000
  O   O14       1.0  0.21727320551456586  0.9057229037804077  0.9081097705916152  1.0000
  O   O15       1.0  0.28272139242666583  0.4057103502303576  0.09189369223035733  1.0000
  O   O16       1.0  0.7172975676515135  0.09428262259683612  0.5918891396162991  1.0000
  O   O17       1.0  0.3440196248826339  0.6648985014740917  0.7691027879804083  1.0000
  O   O18       1.0  0.6559762345676461  0.8350979219592957  0.269102865034796  1.0000
  O   O19       1.0  0.8440188281615307  0.33509541108067953  0.7308974105568212  1.0000
  O   O20       1.0  0.1559698364701276  0.1649061638393334  0.23089957550180887  1.0000
  O   O21       1.0  0.6559675623950483  0.335096189500362  0.23089916245721304  1.0000
  O   O22       1.0  0.34402279374335615  0.1648953330198779  0.7308997163080948  1.0000
  O   O23       1.0  0.1559683592061702  0.6649122044088784  0.2691001235553898  1.0000
  O   O24       1.0  0.8440224255790341  0.8350942713777483  0.7690979586039504  1.0000
