data_image0
_chemical_formula_structural       Zn8H36C84O26F12
_chemical_formula_sum              "Zn8 H36 C84 O26 F12"
_cell_length_a       24.420309641793658
_cell_length_b       24.49258144365336
_cell_length_c       24.656206996853655
_cell_angle_alpha    120.04565938658665
_cell_angle_beta     89.99392794898633
_cell_angle_gamma    119.72882256851472

_space_group_name_H-M_alt    "P 1"
_space_group_IT_number       1

loop_
  _space_group_symop_operation_xyz
  'x, y, z'

loop_
  _atom_site_type_symbol
  _atom_site_label
  _atom_site_symmetry_multiplicity
  _atom_site_fract_x
  _atom_site_fract_y
  _atom_site_fract_z
  _atom_site_occupancy
  Zn  Zn1       1.0  0.03917474678404178  0.07365516411670818  0.1079250512908203  1.0000
  Zn  Zn2       1.0  0.040815755533905776  0.9421611487941276  0.981340704905783  1.0000
  Zn  Zn3       1.0  0.0430483138003339  0.07267266487340152  0.9781223761982217  1.0000
  Zn  Zn4       1.0  0.9093742664465907  0.9428971126304829  0.9777385512030605  1.0000
  Zn  Zn5       1.0  0.47427279333060557  0.9432102800265906  0.41362713480646796  1.0000
  Zn  Zn6       1.0  0.4756827127207615  0.07403493507597861  0.5475016218052744  1.0000
  Zn  Zn7       1.0  0.6056466980349243  0.07412896930510021  0.542931131046288  1.0000
  Zn  Zn8       1.0  0.47801983662420605  0.9407963592724184  0.5419280392908374  1.0000
  H   H1        1.0  0.1881777186795474  0.9595728122488651  0.08711503384829185  1.0000
  H   H2        1.0  0.2625089931888879  0.9614323745680977  0.15817440884216435  1.0000
  H   H3        1.0  0.19354114356242041  0.056003686998117495  0.319618733486152  1.0000
  H   H4        1.0  0.25678972142972617  0.9000526975699402  0.21117875383198736  1.0000
  H   H5        1.0  0.3312822413534561  0.9048588934929072  0.2849998063388314  1.0000
  H   H6        1.0  0.31060012945410165  0.12325717233350995  0.3746904176281021  1.0000
  H   H7        1.0  0.1309759392789616  0.30828625172116375  0.07720799298312636  1.0000
  H   H8        1.0  0.19747120348478114  0.451360733297328  0.14627295944445248  1.0000
  H   H9        1.0  0.2625701153537605  0.4566510156412562  0.3130096613336377  1.0000
  H   H10       1.0  0.3128767837542981  0.5633318425670097  0.2024049992251377  1.0000
  H   H11       1.0  0.3825063060711003  0.7065033052710915  0.27676921843479346  1.0000
  H   H12       1.0  0.2462134016321897  0.5582361227480419  0.36335615052971804  1.0000
  H   H13       1.0  0.7744062826651188  0.8992283662669891  0.0793886398294957  1.0000
  H   H14       1.0  0.7009658433644007  0.8934066292102614  0.14955158178546663  1.0000
  H   H15       1.0  0.8613747054989958  0.12267702529252492  0.3134185652652448  1.0000
  H   H16       1.0  0.6443765473354617  0.9541791660313522  0.20512842496511027  1.0000
  H   H17       1.0  0.5751335160241666  0.9525181672265788  0.2793884066139968  1.0000
  H   H18       1.0  0.8122908695119551  0.054541167631661794  0.364848193214165  1.0000
  H   H19       1.0  0.18777714862481076  0.11041271314591938  0.8885562301809315  1.0000
  H   H20       1.0  0.26138191050449683  0.1133320845268315  0.8185219828301981  1.0000
  H   H21       1.0  0.19460077662967007  0.8829492847274167  0.7497534102246988  1.0000
  H   H22       1.0  0.2539132160023314  0.053039517968784394  0.7029140426896276  1.0000
  H   H23       1.0  0.33014602217927796  0.0562920401580342  0.6356108665656279  1.0000
  H   H24       1.0  0.31418739709563664  0.9481786428699264  0.7642043419421397  1.0000
  H   H25       1.0  0.7760763848982749  0.7086640373686566  0.8350238802296914  1.0000
  H   H26       1.0  0.7016853488055402  0.5656330024476902  0.7591960512901323  1.0000
  H   H27       1.0  0.8621141753762275  0.5577288116165064  0.820384805282778  1.0000
  H   H28       1.0  0.6438414226515263  0.45260896962984287  0.7607754323293392  1.0000
  H   H29       1.0  0.5748559922201224  0.30949448988371137  0.6858184437415957  1.0000
  H   H30       1.0  0.81270581450638  0.45713647613933966  0.703660969464387  1.0000
  H   H31       1.0  0.7791134887222949  0.9587730673452055  0.8875253618363104  1.0000
  H   H32       1.0  0.7063146715859927  0.96037388019203  0.8182837972678881  1.0000
  H   H33       1.0  0.868704314338558  0.053828639649154304  0.7497928488416363  1.0000
  H   H34       1.0  0.6506394009883536  0.8986856087816123  0.7037944134105771  1.0000
  H   H35       1.0  0.5811173156126728  0.9038388531412875  0.6348929475833527  1.0000
  H   H36       1.0  0.8189379125496573  0.12216297491115569  0.7630420850656562  1.0000
  C   C1        1.0  0.10912735177914361  0.008027594007650398  0.11827083364609339  1.0000
  C   C2        1.0  0.15066069684757372  0.007923637582656799  0.16259561783409282  1.0000
  C   C3        1.0  0.19016885685491758  0.9805565200165631  0.138333915280448  1.0000
  C   C4        1.0  0.23110939681983209  0.9810866392470246  0.17792490086111457  1.0000
  C   C5        1.0  0.23407095081304877  0.009307340446334  0.2442884462663955  1.0000
  C   C6        1.0  0.1944831302873595  0.03601785525655289  0.2691767281208257  1.0000
  C   C7        1.0  0.1537981723940618  0.03494962949366  0.2287616052417007  1.0000
  C   C8        1.0  0.2777575863216413  0.0109454657251788  0.2873030009084374  1.0000
  C   C9        1.0  0.2849393348114902  0.9500002299682964  0.2625522904651376  1.0000
  C   C10       1.0  0.3259344864295315  0.9521517210889742  0.30365100566653075  1.0000
  C   C11       1.0  0.3614170493924861  0.0143499197186401  0.37079537041987726  1.0000
  C   C12       1.0  0.40401326920545705  0.0125739331414536  0.41250805821231756  1.0000
  C   C13       1.0  0.35385680076775117  0.0747867878427186  0.3943075363655524  1.0000
  C   C14       1.0  0.3130891121060557  0.073746657706927  0.3539874560931223  1.0000
  C   C15       1.0  0.1147331659679836  0.21583096072100008  0.11240505797692887  1.0000
  C   C16       1.0  0.15760384510329567  0.30166667551689125  0.15533136044825108  1.0000
  C   C17       1.0  0.16029318107286628  0.3420586388916433  0.12910759688313078  1.0000
  C   C18       1.0  0.1978460746537607  0.42189629649863036  0.1677023867355557  1.0000
  C   C19       1.0  0.2346614459277205  0.4649176238834158  0.2349433155192671  1.0000
  C   C20       1.0  0.23310603460770096  0.42563074049046884  0.26176653370426806  1.0000
  C   C21       1.0  0.1953341228170515  0.3458096659637561  0.22235941206653814  1.0000
  C   C22       1.0  0.27493955051367885  0.5498221507873851  0.27731461033616256  1.0000
  C   C23       1.0  0.31284234556899554  0.5928894377086494  0.25327481302669247  1.0000
  C   C24       1.0  0.35220807849528074  0.6727688439954137  0.29474634668749644  1.0000
  C   C25       1.0  0.35582788675425553  0.713197176463133  0.36148356764900297  1.0000
  C   C26       1.0  0.40125837070450393  0.7990061713964068  0.4047731939402368  1.0000
  C   C27       1.0  0.31641099865056077  0.6690342014555455  0.383960309862644  1.0000
  C   C28       1.0  0.27671588444029993  0.5891759670252485  0.34331477936374455  1.0000
  C   C29       1.0  0.9012171052222442  0.0111308981365852  0.112581598397945  1.0000
  C   C30       1.0  0.8585728351241358  0.012162326698458497  0.1559845124743546  1.0000
  C   C31       1.0  0.7923861579419408  0.9477445433835143  0.13082553451293683  1.0000
  C   C32       1.0  0.7515008020383365  0.9449005908384932  0.16991099835616544  1.0000
  C   C33       1.0  0.7756994231820118  0.007173635719105699  0.23668727619615737  1.0000
  C   C34       1.0  0.8413062371069131  0.07225064965279421  0.26252255828269  1.0000
  C   C35       1.0  0.8813056002532776  0.074172558213391  0.22254420256219024  1.0000
  C   C36       1.0  0.733457915309934  0.0048364457702803  0.2794304444437543  1.0000
  C   C37       1.0  0.6658298841702006  0.9749415252184337  0.25568874425634647  1.0000
  C   C38       1.0  0.6272558272572368  0.974422663594211  0.29703364227471935  1.0000
  C   C39       1.0  0.6537400417292503  0.0031022809338878995  0.36323119241676954  1.0000
  C   C40       1.0  0.6105243629163369  0.0035583340433049996  0.406059202400293  1.0000
  C   C41       1.0  0.7211381630515206  0.03160993273207421  0.3855231870127582  1.0000
  C   C42       1.0  0.7606561337287375  0.0329951497728729  0.3450601615737838  1.0000
  C   C43       1.0  0.11055136846828623  0.0008498818881932001  0.9056498295810302  1.0000
  C   C44       1.0  0.15147045384140487  0.9974522379919292  0.8605689286449943  1.0000
  C   C45       1.0  0.1901375781261834  0.06116204261483919  0.8577674581592447  1.0000
  C   C46       1.0  0.23061892388857072  0.06230067907504378  0.818269245375781  1.0000
  C   C47       1.0  0.23404868806689888  0.9988472173016234  0.779423617648291  1.0000
  C   C48       1.0  0.1951244530276455  0.9343076380498019  0.7807502918843028  1.0000
  C   C49       1.0  0.15481304288248757  0.934222571999534  0.8205254970986146  1.0000
  C   C50       1.0  0.27804815010562584  0.00012369022602600008  0.7383128106202009  1.0000
  C   C51       1.0  0.28381280603954917  0.03138911746189169  0.7021429228245779  1.0000
  C   C52       1.0  0.32580632731306747  0.0327352077393428  0.6641703596049808  1.0000
  C   C53       1.0  0.36367852578122484  0.0032777495197038003  0.6602763295598209  1.0000
  C   C54       1.0  0.40704939612615487  0.005245756237300701  0.6176267766403427  1.0000
  C   C55       1.0  0.35740349812788  0.972731417242855  0.6970715860338925  1.0000
  C   C56       1.0  0.31560315882775564  0.9707458605148745  0.7353230836735064  1.0000
  C   C57       1.0  0.9030174853428434  0.7999657433286418  0.9115845563991769  1.0000
  C   C58       1.0  0.8602519810729062  0.7140619609506017  0.8691083279090677  1.0000
  C   C59       1.0  0.7938037411761985  0.6742687005479198  0.8311096615778837  1.0000
  C   C60       1.0  0.7523733734208804  0.594478772212618  0.7892173672861702  1.0000
  C   C61       1.0  0.7762222957668996  0.5506761513911158  0.7835063247428025  1.0000
  C   C62       1.0  0.8420910021074165  0.5892544395578411  0.8215552383109995  1.0000
  C   C63       1.0  0.8826480876586161  0.6690833399049511  0.8633428430468869  1.0000
  C   C64       1.0  0.7336275687996261  0.46583044874535756  0.7384808324829847  1.0000
  C   C65       1.0  0.6657261273404701  0.42297205075081473  0.7317936694447766  1.0000
  C   C66       1.0  0.6271680784032228  0.34315071781465173  0.6903809262543134  1.0000
  C   C67       1.0  0.6538193878666546  0.3023721463388327  0.6536698667069558  1.0000
  C   C68       1.0  0.6106647813036475  0.2165365562790527  0.6119346922963801  1.0000
  C   C69       1.0  0.7214232747645186  0.34644708348114506  0.6601303743263855  1.0000
  C   C70       1.0  0.7609021620293108  0.42631114572569123  0.70164624331062  1.0000
  C   C71       1.0  0.9063660971132282  0.0072176420336731014  0.9042151775847316  1.0000
  C   C72       1.0  0.8644061747063034  0.006703456995822401  0.859652828146494  1.0000
  C   C73       1.0  0.7977654680527447  0.9794728799270159  0.8569489267606796  1.0000
  C   C74       1.0  0.7571915236032253  0.9798368859071754  0.8178632132685448  1.0000
  C   C75       1.0  0.7820841339879794  0.0077784176854223015  0.7793366648514349  1.0000
  C   C76       1.0  0.8481058853108082  0.0341351401182663  0.780595980799447  1.0000
  C   C77       1.0  0.8878372077933251  0.03326074267460649  0.8200202905185989  1.0000
  C   C78       1.0  0.7399716686753381  0.009692204281272198  0.7382985778383571  1.0000
  C   C79       1.0  0.672191805886662  0.9488082429999877  0.7023629585429132  1.0000
  C   C80       1.0  0.6334366897681818  0.9511997143969494  0.6635707928513382  1.0000
  C   C81       1.0  0.6597813637193966  0.013876739357016301  0.6589358632446932  1.0000
  C   C82       1.0  0.6155953136312533  0.012205524098298799  0.6154763743940777  1.0000
  C   C83       1.0  0.7274273746029324  0.07447097208025612  0.6958766376571432  1.0000
  C   C84       1.0  0.7671232776622361  0.0728339079402502  0.7346080501840717  1.0000
  O   O1        1.0  0.0073813585565148  0.007217771638359202  0.010341927372394399  1.0000
  O   O2        1.0  0.10000642480553512  0.9670777158903336  0.056285342914556134  1.0000
  O   O3        1.0  0.08712651867374181  0.049312729141121295  0.14554542817298  1.0000
  O   O4        1.0  0.4221372341859749  0.058692794592168696  0.4752764047037203  1.0000
  O   O5        1.0  0.41785293349436603  0.9634399105784722  0.38080989838923057  1.0000
  O   O6        1.0  0.09617306447923817  0.1834602000226369  0.04977709756131789  1.0000
  O   O7        1.0  0.09940413244882511  0.18213211296879453  0.1414198027178557  1.0000
  O   O8        1.0  0.4196150830452011  0.8317519546131678  0.467174135728733  1.0000
  O   O9        1.0  0.4188141986585236  0.832121387046918  0.3749368229306498  1.0000
  O   O10       1.0  0.8709454790114036  0.9589079572114444  0.050260949448727346  1.0000
  O   O11       1.0  0.9639398028763538  0.061267451971460184  0.1409719053470511  1.0000
  O   O12       1.0  0.6395755152207344  0.045726141474865804  0.46844437782732484  1.0000
  O   O13       1.0  0.5476341134375814  0.9619830887759232  0.37600327083427465  1.0000
  O   O14       1.0  0.10078525062148459  0.05369053714426289  0.9268036638359902  1.0000
  O   O15       1.0  0.08982248815831177  0.952390185998688  0.9201569430203521  1.0000
  O   O16       1.0  0.4268856116159938  0.9616430774234673  0.6014199503173216  1.0000
  O   O17       1.0  0.4197025088812295  0.0504807482666294  0.6003948321030421  1.0000
  O   O18       1.0  0.8726512947402582  0.8324428495479593  0.9209721460530885  1.0000
  O   O19       1.0  0.9656703090727987  0.833650094740989  0.9340763105441212  1.0000
  O   O20       1.0  0.6387845921154707  0.18207169982112253  0.5867042141473106  1.0000
  O   O21       1.0  0.5485515185503544  0.1844783893542257  0.6056010909533285  1.0000
  O   O22       1.0  0.8747689333282548  0.964026379119893  0.9235084329254872  1.0000
  O   O23       1.0  0.9694837601326255  0.051123094327351695  0.9200189234542648  1.0000
  O   O24       1.0  0.6421233343823262  0.06607070456602321  0.6072475102699144  1.0000
  O   O25       1.0  0.5540248139692564  0.9555882610481347  0.5894034131459164  1.0000
  O   O26       1.0  0.507353301859304  0.007409741972828999  0.5108160545974415  1.0000
  F   F1        1.0  0.11540905793356868  0.0593728738458097  0.2556116377538089  1.0000
  F   F2        1.0  0.3879659709009928  0.13842186654335356  0.45769319556958266  1.0000
  F   F3        1.0  0.1979988639959345  0.3119715106587009  0.25109280103605863  1.0000
  F   F4        1.0  0.31419656359098264  0.7032246835251568  0.4465666575387671  1.0000
  F   F5        1.0  0.9433781187269973  0.13990200428401775  0.25033185518612555  1.0000
  F   F6        1.0  0.750248464410639  0.057427060034818594  0.447611040977172  1.0000
  F   F7        1.0  0.11704289242128842  0.8690320581149181  0.8178197802970216  1.0000
  F   F8        1.0  0.3939625686973258  0.9458321244161497  0.698398896256812  1.0000
  F   F9        1.0  0.9450303753139835  0.7020243678831407  0.8998339316225811  1.0000
  F   F10       1.0  0.7511203357816996  0.3127636928115791  0.625036654632737  1.0000
  F   F11       1.0  0.9505027497963354  0.05745972681925339  0.8172518506632046  1.0000
  F   F12       1.0  0.7569232076745394  0.13831220499675112  0.6962095893625744  1.0000
