data_image0
_chemical_formula_structural       Zn4H39C54N9O16F2
_chemical_formula_sum              "Zn4 H39 C54 N9 O16 F2"
_cell_length_a       9.739113956843656
_cell_length_b       11.0956192952027
_cell_length_c       22.276273720180026
_cell_angle_alpha    89.95298249245039
_cell_angle_beta     89.1603119781065
_cell_angle_gamma    89.89747258852805

_space_group_name_H-M_alt    "P 1"
_space_group_IT_number       1

loop_
  _space_group_symop_operation_xyz
  'x, y, z'

loop_
  _atom_site_type_symbol
  _atom_site_label
  _atom_site_symmetry_multiplicity
  _atom_site_fract_x
  _atom_site_fract_y
  _atom_site_fract_z
  _atom_site_occupancy
  Zn  Zn1       1.0  0.6442362749987752  0.5051796124287973  0.4965854145916992  1.0000
  Zn  Zn2       1.0  0.35920097793999883  0.5012156992293838  0.501134271035511  1.0000
  Zn  Zn3       1.0  0.3527360546710768  0.5101176099083985  0.9942541535788153  1.0000
  Zn  Zn4       1.0  0.6384910996648615  0.505070076252842  0.9964240545786255  1.0000
  H   H1        1.0  0.14215908669899593  0.3701544705318086  0.4315785614264201  1.0000
  H   H2        1.0  0.11162769122513788  0.6093597944879787  0.6320681477378898  1.0000
  H   H3        1.0  0.12874415531246802  0.732475900519546  0.5805073979956816  1.0000
  H   H4        1.0  0.8696114279454791  0.7411815296690771  0.5714975887346228  1.0000
  H   H5        1.0  0.8528195460997523  0.6188704997641351  0.6231926335638392  1.0000
  H   H6        1.0  0.7164855650277886  0.8808750079362395  0.49918374895830914  1.0000
  H   H7        1.0  0.1764150583178505  0.90147584201069  0.4556590199036705  1.0000
  H   H8        1.0  0.1718182346938093  0.9050997389342822  0.5357682672087664  1.0000
  H   H9        1.0  0.18619138189989579  0.1310209459620495  0.5336794836083811  1.0000
  H   H10       1.0  0.19435527859567972  0.12790242838752872  0.45360298791296577  1.0000
  H   H11       1.0  0.6787722810600131  0.33089410601312597  0.8590375863653463  1.0000
  H   H12       1.0  0.6885214413648698  0.3341006381561796  0.6347322714271614  1.0000
  H   H13       1.0  0.34581887522715254  0.6271578607561991  0.6904278801282758  1.0000
  H   H14       1.0  0.3415489374162207  0.6270306687560278  0.8026689900668559  1.0000
  H   H15       1.0  0.2758448594463161  0.4966444292189322  0.1908863209332168  1.0000
  H   H16       1.0  0.822144931272014  0.42183263688825423  0.18964389828503417  1.0000
  H   H17       1.0  0.8130256904849559  0.58246698112913  0.19114465597431968  1.0000
  H   H18       1.0  0.8082333736071946  0.576447254726034  0.3045180032128059  1.0000
  H   H19       1.0  0.8165285916291509  0.41609645432167497  0.3017105052412248  1.0000
  H   H20       1.0  0.8573562965730943  0.3840969916114928  0.0678811501836591  1.0000
  H   H21       1.0  0.8776856417177401  0.6061393245517123  0.861939631119924  1.0000
  H   H22       1.0  0.8656001544528636  0.7326166614798381  0.9114434591727659  1.0000
  H   H23       1.0  0.12546401866855922  0.7394536268123274  0.916908275543463  1.0000
  H   H24       1.0  0.13717475288373757  0.6121815754102895  0.8679167848798812  1.0000
  H   H25       1.0  0.28323630007180617  0.8864689059269748  0.994960691893688  1.0000
  H   H26       1.0  0.8244059659301044  0.9035968069637761  0.0364946392037169  1.0000
  H   H27       1.0  0.8274105868567857  0.906073395295486  0.956363251589167  1.0000
  H   H28       1.0  0.8134337835435874  0.13175958403921578  0.9572453086820404  1.0000
  H   H29       1.0  0.8090169699262334  0.1306294525643281  0.03734218350071221  1.0000
  H   H30       1.0  0.7698965730902361  0.3781128913171442  0.40607558887565176  1.0000
  H   H31       1.0  0.9265228131547191  0.30586516717674067  0.3892338791351905  1.0000
  H   H32       1.0  0.7608405641950854  0.20278971093853929  0.5112767564144178  1.0000
  H   H33       1.0  0.8387611559325236  0.06164188180145659  0.5163082085640839  1.0000
  H   H34       1.0  0.24273761846151135  0.5172099687250976  0.351202779977811  1.0000
  H   H35       1.0  0.15973237644360697  0.5217067274611721  0.2827778562232908  1.0000
  H   H36       1.0  0.23086148793343858  0.3932268567744328  0.09026218050119889  1.0000
  H   H37       1.0  0.07475749923874991  0.32212188472593073  0.10996319543686892  1.0000
  H   H38       1.0  0.24000292465593995  0.2094230635096963  0.9865755515699206  1.0000
  H   H39       1.0  0.16034316927049022  0.06876459571655151  0.9821092364245629  1.0000
  C   C1        1.0  0.49463581750940483  0.7374509775251776  0.4965485390669003  1.0000
  C   C2        1.0  0.5066116441418843  0.5028550789134838  0.6163419756931603  1.0000
  C   C3        1.0  0.5080855424847217  0.2661884724572801  0.49969602464667423  1.0000
  C   C4        1.0  0.49495411586261184  0.49277128400935044  0.3788032692039708  1.0000
  C   C5        1.0  0.5035880674295116  0.7417282811651087  0.9965886308249737  1.0000
  C   C6        1.0  0.4947296402451258  0.5041430301564419  0.8775022297146435  1.0000
  C   C7        1.0  0.4935083942965834  0.2700542604604407  0.9947843976083134  1.0000
  C   C8        1.0  0.4973248120912642  0.49761101445877626  0.1149945291130336  1.0000
  C   C9        1.0  0.07006331918016431  0.5602742529944817  0.5381533598534531  1.0000
  C   C10       1.0  0.9348258173490722  0.4296158845141063  0.45691845641755446  1.0000
  C   C11       1.0  0.928680530224227  0.5643299942766759  0.5335505304528212  1.0000
  C   C12       1.0  0.08082241754068062  0.4266410308295361  0.46176230158488357  1.0000
  C   C13       1.0  0.07442991891218752  0.6478788764625064  0.5899147196796974  1.0000
  C   C14       1.0  0.911716115038779  0.653257517266482  0.5845093311339227  1.0000
  C   C15       1.0  0.49698587468007815  0.8720813521227481  0.4975786710028132  1.0000
  C   C16       1.0  0.5092958570926245  0.13297546950430217  0.4987224423059118  1.0000
  C   C17       1.0  0.3782164791805087  0.9431859040713773  0.49677790768580377  1.0000
  C   C18       1.0  0.6318374884785671  0.06111033257282368  0.5007154977404226  1.0000
  C   C19       1.0  0.3864167104852713  0.06825403268211257  0.49654782682758025  1.0000
  C   C20       1.0  0.6219715283032984  0.9338950164602265  0.4992673274566428  1.0000
  C   C21       1.0  0.22250753160014372  0.9424953442059021  0.4954698493728031  1.0000
  C   C22       1.0  0.23203920524493782  0.08471221171099327  0.49463774595021454  1.0000
  C   C23       1.0  0.5008069307545995  0.4958734624124687  0.8103545053710448  1.0000
  C   C24       1.0  0.5937863286774602  0.4167203678111376  0.7794214743151571  1.0000
  C   C25       1.0  0.4126594297436911  0.5685938905830028  0.7781191276446578  1.0000
  C   C26       1.0  0.67890933725198  0.33350879855800736  0.8102163091712457  1.0000
  C   C27       1.0  0.761728247354384  0.2557726086079555  0.7784930590142948  1.0000
  C   C28       1.0  0.5068409185710936  0.49653971672018554  0.6835181702561429  1.0000
  C   C29       1.0  0.41532716365972533  0.5688976727102214  0.7151522857086334  1.0000
  C   C30       1.0  0.5969243497099798  0.4174499639748104  0.7147323826284193  1.0000
  C   C31       1.0  0.6849282590495351  0.3355243975492782  0.6835916564898525  1.0000
  C   C32       1.0  0.7648695259723014  0.2567193857490436  0.7150861651798266  1.0000
  C   C33       1.0  0.49560384854737555  0.49438125918115344  0.18204116815739724  1.0000
  C   C34       1.0  0.4916607169506052  0.49068170297890384  0.31229532800746546  1.0000
  C   C35       1.0  0.6161401603052782  0.49359906119761376  0.2152713104334794  1.0000
  C   C36       1.0  0.36691523792470093  0.4931410844210047  0.278699612323706  1.0000
  C   C37       1.0  0.6127112042127508  0.4909895350977463  0.2776805490563206  1.0000
  C   C38       1.0  0.372418082234205  0.49387791499630385  0.2151760902689048  1.0000
  C   C39       1.0  0.7712110309675639  0.49950312449959  0.21113703574429374  1.0000
  C   C40       1.0  0.7679728024979087  0.49600184904002  0.2820566162026736  1.0000
  C   C41       1.0  0.9251857392170637  0.5631811264778008  0.9562576649248767  1.0000
  C   C42       1.0  0.06385298811274252  0.43962046920118764  0.0394233093126743  1.0000
  C   C43       1.0  0.06667651569891582  0.5666151817966352  0.9594697303224676  1.0000
  C   C44       1.0  0.917753068336204  0.43665751436003564  0.0357078758960938  1.0000
  C   C45       1.0  0.9183966929098658  0.6468026675397098  0.9028692708899513  1.0000
  C   C46       1.0  0.08143554008331931  0.6510287481717467  0.906432921399997  1.0000
  C   C47       1.0  0.5026289403771926  0.8762563188540324  0.9957087668867075  1.0000
  C   C48       1.0  0.49172681178714583  0.13694543923371325  0.9953896186255023  1.0000
  C   C49       1.0  0.6219652214302799  0.9462939177009486  0.9962250583678555  1.0000
  C   C50       1.0  0.3686108604031944  0.066218390578797  0.9944228892206369  1.0000
  C   C51       1.0  0.6144682880544323  0.07142595216075158  0.9963609373769914  1.0000
  C   C52       1.0  0.3779230731421848  0.9389539171925843  0.9947950561747163  1.0000
  C   C53       1.0  0.7777377383450317  0.9444035082398371  0.9966917408062272  1.0000
  C   C54       1.0  0.7690530517391636  0.08672081830932399  0.9969810908603947  1.0000
  N   N1        1.0  0.1489059604101683  0.49251232039399867  0.5019173353862882  1.0000
  N   N2        1.0  0.8563571488116255  0.5017984143308069  0.4938837628963952  1.0000
  N   N3        1.0  0.8481117779748787  0.4985717369890493  0.9945252730771443  1.0000
  N   N4        1.0  0.1408404223675106  0.5070340344370763  0.9997446378529203  1.0000
  N   N5        1.0  0.8708310752261144  0.36154349067421526  0.4159530340955655  1.0000
  N   N6        1.0  0.7599395636399182  0.11300990147059045  0.5017495278408859  1.0000
  N   N7        1.0  0.2400027052730637  0.49189008408695395  0.3071851489561581  1.0000
  N   N8        1.0  0.12906215587999276  0.3764045475155839  0.0820803641114267  1.0000
  N   N9        1.0  0.24094669324713897  0.11923824659273656  0.9952457597570188  1.0000
  O   O1        1.0  0.6091918248409486  0.6834459238510319  0.48754039874753363  1.0000
  O   O2        1.0  0.3788525349785843  0.6863675937004882  0.5047207814112724  1.0000
  O   O3        1.0  0.3900327650036743  0.4933708032738407  0.5917711891146951  1.0000
  O   O4        1.0  0.6214134495565632  0.5186173407702197  0.5894090746026777  1.0000
  O   O5        1.0  0.39324683979722164  0.31902452362539435  0.49217373708887646  1.0000
  O   O6        1.0  0.622049586795754  0.3219319307142  0.5082315717036039  1.0000
  O   O7        1.0  0.6106643309286427  0.47431722630133055  0.4040868928011321  1.0000
  O   O8        1.0  0.3832525192301263  0.5143018511273423  0.40790596991246986  1.0000
  O   O9        1.0  0.38718246157281305  0.6889048491478248  0.9996703015151526  1.0000
  O   O10       1.0  0.6201154231037692  0.6895482600734367  0.9944330197766363  1.0000
  O   O11       1.0  0.6083404442744184  0.4997975978549717  0.9050511801125013  1.0000
  O   O12       1.0  0.3763951782069129  0.51697206151848  0.9017107737089634  1.0000
  O   O13       1.0  0.6098341616510299  0.3215948158754428  0.9994830542871824  1.0000
  O   O14       1.0  0.3789573301902109  0.32667545172120777  0.9893009059052177  1.0000
  O   O15       1.0  0.38247404698951476  0.48985308833185565  0.0879939703215769  1.0000
  O   O16       1.0  0.6138494455708143  0.5082986854830195  0.0892209097651033  1.0000
  F   F1        1.0  0.8426935493558362  0.17516967946139764  0.8075084780365954  1.0000
  F   F2        1.0  0.8484622907794661  0.17699008464329316  0.6859201696323183  1.0000
