data_image0
_chemical_formula_structural       Mn2Ag4H16C28N12
_chemical_formula_sum              "Mn2 Ag4 H16 C28 N12"
_cell_length_a       10.469229667532137
_cell_length_b       10.46921719833284
_cell_length_c       12.196752065000231
_cell_angle_alpha    89.99997814044652
_cell_angle_beta     90.00000533524738
_cell_angle_gamma    112.33142441898491

_space_group_name_H-M_alt    "P 1"
_space_group_IT_number       1

loop_
  _space_group_symop_operation_xyz
  'x, y, z'

loop_
  _atom_site_type_symbol
  _atom_site_label
  _atom_site_symmetry_multiplicity
  _atom_site_fract_x
  _atom_site_fract_y
  _atom_site_fract_z
  _atom_site_occupancy
  Mn  Mn1       1.0  0.4999991216018317  0.49999976540375723  0.9999999383442457  1.0000
  Mn  Mn2       1.0  2.8428953343587876e-06  0.9999998671356  0.5000019650724639  1.0000
  Ag  Ag1       1.0  0.754224814410982  0.2457755725151786  0.7568719788810796  1.0000
  Ag  Ag2       1.0  0.7457753200711538  0.2542243905007453  0.25686755243898324  1.0000
  Ag  Ag3       1.0  0.25422328535072586  0.745775935451377  0.7431313350516219  1.0000
  Ag  Ag4       1.0  0.24577514110374926  0.7542257813430028  0.2431293682806199  1.0000
  H   H1        1.0  0.7113739380849113  0.6950468450202723  0.8314761920503599  1.0000
  H   H2        1.0  0.788626086791659  0.8049542308363017  0.33147503204651935  1.0000
  H   H3        1.0  0.8049544473879422  0.7886275531391719  0.6685254220294824  1.0000
  H   H4        1.0  0.695046542111058  0.7113735954003955  0.16852428510483722  1.0000
  H   H5        1.0  0.2886269708106398  0.3049545041287233  0.1685243352209724  1.0000
  H   H6        1.0  0.21137347201096196  0.19504609040605914  0.6685254952249338  1.0000
  H   H7        1.0  0.19504741488840693  0.21137379130046  0.3314751052418927  1.0000
  H   H8        1.0  0.30495357336027246  0.288625688516973  0.8314746023859882  1.0000
  H   H9        1.0  0.9233468793347228  0.9077596524514249  0.8225180432179117  1.0000
  H   H10       1.0  0.5766531461598207  0.592241427659559  0.3225177556218597  1.0000
  H   H11       1.0  0.5922411475468367  0.5766529515221566  0.6774827508230388  1.0000
  H   H12       1.0  0.907758491241218  0.9233471648561679  0.17748320145891233  1.0000
  H   H13       1.0  0.0766521227992385  0.09224170611631881  0.1774824840533498  1.0000
  H   H14       1.0  0.4233468093549392  0.4077599261988142  0.6774827716494441  1.0000
  H   H15       1.0  0.40775936463657564  0.42334736501083375  0.3225177764484499  1.0000
  H   H16       1.0  0.09224027413711869  0.07665109115417582  0.8225173258128394  1.0000
  C   C1        1.0  0.6505788266310757  0.3494212710210363  0.8319075080927335  1.0000
  C   C2        1.0  0.8494218593430816  0.1505776190312957  0.3319055829953399  1.0000
  C   C3        1.0  0.15057825612822032  0.8494216648858811  0.6680941243858953  1.0000
  C   C4        1.0  0.3494216855523647  0.6505790455121531  0.1680921992883455  1.0000
  C   C5        1.0  0.8572661304246766  0.1427339497040236  0.6802237251197596  1.0000
  C   C6        1.0  0.6427336126330588  0.35726501709908126  0.1802208970282564  1.0000
  C   C7        1.0  0.3572645960766749  0.6427342762370358  0.819777990462498  1.0000
  C   C8        1.0  0.14273493842738844  0.857265329503584  0.3197768021519209  1.0000
  C   C9        1.0  0.758765995228572  0.7499276744624411  0.9060337389336084  1.0000
  C   C10       1.0  0.7412363279781006  0.7500743891804053  0.40603423282745155  1.0000
  C   C11       1.0  0.7500734227047091  0.7412347303071486  0.5939654139696202  1.0000
  C   C12       1.0  0.7499266185571758  0.7587664583531792  0.09396590571959959  1.0000
  C   C13       1.0  0.24123491366703587  0.25007367468695213  0.09396514855691859  1.0000
  C   C14       1.0  0.2587645809174859  0.24992695996878914  0.5939654745534853  1.0000
  C   C15       1.0  0.24992669276659293  0.25876455361002837  0.406034293411615  1.0000
  C   C16       1.0  0.25007429033834677  0.24123489079563143  0.9060354414421424  1.0000
  C   C17       1.0  0.877841884847527  0.8689840149795388  0.902040038086703  1.0000
  C   C18       1.0  0.62215773844882  0.6310159947469958  0.4020397414508849  1.0000
  C   C19       1.0  0.6310153401243568  0.622157610316606  0.5979599347109853  1.0000
  C   C20       1.0  0.8689839074376522  0.8778415112143421  0.0979612169830446  1.0000
  C   C21       1.0  0.12215767395512243  0.1310163062630139  0.09795966929434029  1.0000
  C   C22       1.0  0.37784277373464903  0.36898432178638535  0.5979591460397913  1.0000
  C   C23       1.0  0.3689847753469735  0.3778416736007629  0.40203895277984003  1.0000
  C   C24       1.0  0.1310152546528016  0.12215777741182174  0.9020401301789676  1.0000
  C   C25       1.0  0.9365177200767861  0.9365180655785184  0.9999998845165264  1.0000
  C   C26       1.0  0.5634819309554544  0.5634821350941267  0.5000002558076773  1.0000
  C   C27       1.0  0.06348147650767541  0.06348146051962542  0.9999999921720075  1.0000
  C   C28       1.0  0.4365189779401036  0.43651921405487576  0.5000002714636622  1.0000
  N   N1        1.0  0.5911084026933793  0.4088927497718942  0.8769858905380232  1.0000
  N   N2        1.0  0.9088921202143396  0.09110818881175221  0.3769856291329674  1.0000
  N   N3        1.0  0.0911083919690727  0.9088921277212383  0.6230148981385213  1.0000
  N   N4        1.0  0.4088911561092702  0.5911075714706585  0.1230138168430202  1.0000
  N   N5        1.0  0.9157078087086956  0.0842917831029553  0.6325085749225111  1.0000
  N   N6        1.0  0.5842923343528384  0.41570823897737363  0.1325090028944231  1.0000
  N   N7        1.0  0.41570817783057384  0.5842920775556166  0.8674915243770657  1.0000
  N   N8        1.0  0.08429135338180777  0.9157075055235923  0.3674911324586816  1.0000
  N   N9        1.0  0.6947236177743434  0.6947227012307663  7.342231285e-07  1.0000
  N   N10       1.0  0.8052769866386598  0.8052774947323015  0.5000002259915064  1.0000
  N   N11       1.0  0.30527649769693005  0.3052765826862114  0.9999997930485093  1.0000
  N   N12       1.0  0.19472487563771776  0.1947238497075148  0.4999994813894589  1.0000
