data_image0
_chemical_formula_structural       Zn4H56C52N12O20
_chemical_formula_sum              "Zn4 H56 C52 N12 O20"
_cell_length_a       6.0497048528645765
_cell_length_b       9.168861855
_cell_length_c       25.154
_cell_angle_alpha    90.0
_cell_angle_beta     96.91602338201207
_cell_angle_gamma    90.0

_space_group_name_H-M_alt    "P 1"
_space_group_IT_number       1

loop_
  _space_group_symop_operation_xyz
  'x, y, z'

loop_
  _atom_site_type_symbol
  _atom_site_label
  _atom_site_symmetry_multiplicity
  _atom_site_fract_x
  _atom_site_fract_y
  _atom_site_fract_z
  _atom_site_occupancy
  Zn  Zn1       1.0  0.0315251277399611  0.3894441923620846  0.27925042430050695  1.0000
  Zn  Zn2       1.0  0.9684639794151053  0.8894419099086762  0.2207485446454811  1.0000
  Zn  Zn3       1.0  0.9684673095928601  0.6105577866185428  0.7207482435379549  1.0000
  Zn  Zn4       1.0  0.0315384484509877  0.11055679712823262  0.7792512076258262  1.0000
  H   H1        1.0  0.7193566926319902  0.1030891309028235  0.2975260876439166  1.0000
  H   H2        1.0  0.2806324145230761  0.6030879390973213  0.20247327885316221  1.0000
  H   H3        1.0  0.280637409789712  0.8969117574298977  0.7024734235184982  1.0000
  H   H4        1.0  0.719368348254136  0.39691403988330626  0.7975264251963665  1.0000
  H   H5        1.0  0.734998537558269  0.571674007406017  0.5026455376740131  1.0000
  H   H6        1.0  0.2649972299523142  0.07168065245105741  0.9973544192612636  1.0000
  H   H7        1.0  0.2649872394190425  0.4283214276871661  0.4973549250327594  1.0000
  H   H8        1.0  0.7350151884470505  0.9283235078253896  0.002645224789631602  1.0000
  H   H9        1.0  0.0780943334987541  0.3793109826497627  0.41042456608541766  1.0000
  H   H10       1.0  0.9219047641895841  0.8793087001963542  0.08957310198690752  1.0000
  H   H11       1.0  0.9219047641895841  0.6206899056829585  0.5895738970890819  1.0000
  H   H12       1.0  0.0780959985876351  0.1206900068405474  0.9104254094093633  1.0000
  H   H13       1.0  0.1394511935890677  0.7472650486345458  0.3880323721831971  1.0000
  H   H14       1.0  0.8605412437437536  0.2472607872005099  0.1119674883085224  1.0000
  H   H15       1.0  0.8605379135659987  0.2527391116419011  0.6119693796203904  1.0000
  H   H16       1.0  0.1394695095667302  0.752743373075937  0.8880317099695106  1.0000
  H   H17       1.0  0.45515204498592243  0.49031603606814406  0.42706669001013614  1.0000
  H   H18       1.0  0.5448503828801705  0.9903268413896315  0.0729330622611712  1.0000
  H   H19       1.0  0.5448470527024085  0.5096706738417751  0.5729317731643563  1.0000
  H   H20       1.0  0.4551553751636845  0.0096707749993712  0.9270675815558678  1.0000
  H   H21       1.0  0.5790946007590065  0.9275742327126579  0.3591096526200275  1.0000
  H   H22       1.0  0.4209044969293315  0.42757433387025406  0.1408911958609806  1.0000
  H   H23       1.0  0.4209011667515696  0.07242774626796941  0.6408922920706814  1.0000
  H   H24       1.0  0.5790929356701326  0.5724254638145609  0.8591084117449912  1.0000
  H   H25       1.0  0.7339445362980612  0.911044373020495  0.42322565175503263  1.0000
  H   H26       1.0  0.2660595566569057  0.4110412022343652  0.07677454628913691  1.0000
  H   H27       1.0  0.2660595566569057  0.0889586966080458  0.5767753413913113  1.0000
  H   H28       1.0  0.7339395410314253  0.5889575048025435  0.9232247119875296  1.0000
  H   H29       1.0  0.0787553737835864  0.6999669208125496  0.4830265995329128  1.0000
  H   H30       1.0  0.9212387286381087  0.1999692032659581  0.016973309180585303  1.0000
  H   H31       1.0  0.9212337333714729  0.3000317862243521  0.5169751522706748  1.0000
  H   H32       1.0  0.0787736897612561  0.8000382289542076  0.9830259373192264  1.0000
  H   H33       1.0  0.3422573539228537  0.12281349831723531  0.39994294740903785  1.0000
  H   H34       1.0  0.6577434088543654  0.622812306511733  0.10005834684483261  1.0000
  H   H35       1.0  0.6577417437654844  0.8771884806633921  0.6000598888273957  1.0000
  H   H36       1.0  0.3422590190117347  0.3771853098772624  0.8999414054264747  1.0000
  H   H37       1.0  0.3008166219103785  0.9394448445422655  0.4163626654288138  1.0000
  H   H38       1.0  0.6991841408668336  0.4394438550519553  0.08363823127397302  1.0000
  H   H39       1.0  0.6991858059557146  0.0605560437904558  0.5836402672511767  1.0000
  H   H40       1.0  0.3008132917326236  0.5605515800412277  0.9163609787809082  1.0000
  H   H41       1.0  0.3025899415661684  0.1073666519976157  0.494114586145848  1.0000
  H   H42       1.0  0.6974124862999247  0.6073665508400197  0.0058863587787171935  1.0000
  H   H43       1.0  0.6974191466554416  0.8926353269830117  0.5058877443190894  1.0000
  H   H44       1.0  0.3025866113884135  0.3926332468447882  0.9941132970490332  1.0000
  H   H45       1.0  0.5822982317615768  0.1547923856248374  0.4894139284999498  1.0000
  H   H46       1.0  0.4177041961045163  0.6547901031714289  0.010587016424608504  1.0000
  H   H47       1.0  0.417710856460026  0.845209593355797  0.5105880044138972  1.0000
  H   H48       1.0  0.5822949015838219  0.3452075132175736  0.9894130369542256  1.0000
  H   H49       1.0  0.6204254369054922  0.2708166007153778  0.22821748266174072  1.0000
  H   H50       1.0  0.379571995693972  0.7708121369661569  0.2717825224953145  1.0000
  H   H51       1.0  0.37958032113836276  0.7291875595610691  0.7717815709509566  1.0000
  H   H52       1.0  0.620433762349883  0.2291854794228456  0.7282173262195499  1.0000
  H   H53       1.0  0.5990323749922695  0.43993137466678434  0.23968149448498371  1.0000
  H   H54       1.0  0.4009600623405518  0.9399258202696502  0.26031955865998674  1.0000
  H   H55       1.0  0.40096838778494964  0.5600727856096626  0.7603186071156288  1.0000
  H   H56       1.0  0.5990423655255412  0.060072886767251504  0.7396809887134879  1.0000
  C   C1        1.0  0.8274759087910226  0.6518628041866137  0.354942475559703  1.0000
  C   C2        1.0  0.1725131983640438  0.1518607240483973  0.14505768603954292  1.0000
  C   C3        1.0  0.1725165285418058  0.3481391747940137  0.6450569873809331  1.0000
  C   C4        1.0  0.8274875644131683  0.8481401642843238  0.8549420180099858  1.0000
  C   C5        1.0  0.8711661758785851  0.6933423254199556  0.299243864453949  1.0000
  C   C6        1.0  0.1288196010987264  0.1933391546338257  0.20075739335499784  1.0000
  C   C7        1.0  0.1288295916319981  0.3066585629127658  0.700756887583502  1.0000
  C   C8        1.0  0.871171171145221  0.8066562804593573  0.7992428164660268  1.0000
  C   C9        1.0  0.4630528917152361  0.5288399014710663  0.3215958124407052  1.0000
  C   C10       1.0  0.5369428757953401  0.028845455868200504  0.17840334939239716  1.0000
  C   C11       1.0  0.5369512012397308  0.4711544429742105  0.67840359050129  1.0000
  C   C12       1.0  0.463061217159634  0.971156523112434  0.8215960535496053  1.0000
  C   C13       1.0  0.6345387302411396  0.5782833337279031  0.3661562255663569  1.0000
  C   C14       1.0  0.36546203253607246  0.0782856161813115  0.13384308093208122  1.0000
  C   C15       1.0  0.3654553721805556  0.4217153733090058  0.6338428880449669  1.0000
  C   C16       1.0  0.6345437255077755  0.9217076376160521  0.8661563702316997  1.0000
  C   C17       1.0  0.7915915783666847  0.1540322040330295  0.33465819751435083  1.0000
  C   C18       1.0  0.2083991938772556  0.6540342841712459  0.165339627000165  1.0000
  C   C19       1.0  0.2084025240550176  0.845965412355973  0.6653401209948058  1.0000
  C   C20       1.0  0.7915999038110825  0.3459687854572877  0.8346592337254111  1.0000
  C   C21       1.0  0.7620312555035581  0.5933964417877037  0.4613329264832303  1.0000
  C   C22       1.0  0.2379678421847728  0.0934041774806502  0.03866672934452  1.0000
  C   C23       1.0  0.2379595167403821  0.4065979026575732  0.5386672833377945  1.0000
  C   C24       1.0  0.7620395809479561  0.9065999827957896  0.9613327700410395  1.0000
  C   C25       1.0  0.9729647146541609  0.2915083728240973  0.39325624360394335  1.0000
  C   C26       1.0  0.0270360481230512  0.7915104529623208  0.10674147269016031  1.0000
  C   C27       1.0  0.0270393783008132  0.7084892435648983  0.6067427617869754  1.0000
  C   C28       1.0  0.9729663797430419  0.2084915260183067  0.8932570869278892  1.0000
  C   C29       1.0  0.9889911951114101  0.6918601349131137  0.39716674858412665  1.0000
  C   C30       1.0  0.0109945818658943  0.191861326718616  0.10283172636722072  1.0000
  C   C31       1.0  0.0109912516881394  0.308138572123795  0.6028324250258309  1.0000
  C   C32       1.0  0.9890128412668346  0.8081406522620114  0.8971665803650808  1.0000
  C   C33       1.0  0.6046820215576147  0.5492088417990431  0.4195453574623544  1.0000
  C   C34       1.0  0.3953120808640875  0.0492143961961773  0.08045256349571872  1.0000
  C   C35       1.0  0.3953120808640875  0.45078659329413284  0.5804525634957188  1.0000
  C   C36       1.0  0.6046920120908865  0.9507854014886378  0.9195444541397748  1.0000
  C   C37       1.0  0.6267411190223058  0.9844111671371678  0.3971222611296952  1.0000
  C   C38       1.0  0.37325964375491333  0.4844101776468507  0.10287823802200081  1.0000
  C   C39       1.0  0.3732613088437873  0.015590811843459602  0.6028782862437794  1.0000
  C   C40       1.0  0.6267394539334248  0.5155885293900511  0.8971214178057496  1.0000
  C   C41       1.0  0.9563338069339551  0.6640867859383877  0.4501992685459513  1.0000
  C   C42       1.0  0.0436536351322303  0.1640890683917959  0.04980084483152321  1.0000
  C   C43       1.0  0.0436503049544754  0.3359130117464275  0.5498007483879591  1.0000
  C   C44       1.0  0.9563554530893725  0.8359172731804705  0.9501998954290728  1.0000
  C   C45       1.0  0.4205914602201375  0.0299502821989037  0.42261227248984323  1.0000
  C   C46       1.0  0.5794109676459556  0.5299490903934014  0.07738867243472211  1.0000
  C   C47       1.0  0.5794109676459556  0.9700506061338174  0.5773898650879801  1.0000
  C   C48       1.0  0.4205914602201375  0.47004852599559405  0.9226110798365853  1.0000
  C   C49       1.0  0.4603288063097253  0.0654944975174345  0.48246627360221345  1.0000
  C   C50       1.0  0.5396736215563678  0.5654933057119322  0.0175350688734355  1.0000
  C   C51       1.0  0.5396819470007586  0.9345053001673804  0.5175369001866699  1.0000
  C   C52       1.0  0.4603238110430894  0.4345043106770632  0.9824641411814526  1.0000
  N   N1        1.0  0.9245439300622849  0.2713302958799987  0.33928815956986114  1.0000
  N   N2        1.0  0.0754485072705435  0.7713280134265901  0.16071130337077483  1.0000
  N   N3        1.0  0.0754518374482984  0.7286716831006288  0.6607117973654155  1.0000
  N   N4        1.0  0.9245555856844305  0.22867396555403732  0.8392884971223183  1.0000
  N   N5        1.0  0.7629587100089807  0.1074877139153898  0.38382102478324504  1.0000
  N   N6        1.0  0.23703872259047637  0.6074876127578008  0.1161789803738174  1.0000
  N   N7        1.0  0.2370370575015954  0.8925131744173314  0.6161793297031224  1.0000
  N   N8        1.0  0.7629637052756166  0.3925132755749203  0.8838207718974901  1.0000
  N   N9        1.0  0.8775651124393349  0.19386484692542896  0.42199298769932625  1.0000
  N   N10       1.0  0.1224356503378843  0.6938658364157462  0.0780067163502025  1.0000
  N   N11       1.0  0.1224339852490033  0.8061360414072922  0.5780070656795075  1.0000
  N   N12       1.0  0.8775667775282088  0.3061361425648812  0.9219934334721956  1.0000
  O   O1        1.0  0.9626078618288004  0.6042985582750902  0.2700259550895368  1.0000
  O   O2        1.0  0.0373929009484115  0.10429756878478  0.2299741465110827  1.0000
  O   O3        1.0  0.0373962311261735  0.3957012394097177  0.7299750380568071  1.0000
  O   O4        1.0  0.9626195174509532  0.8957033195479411  0.7700258950909031  1.0000
  O   O5        1.0  0.8319017150305399  0.8258985814984784  0.2858772802000403  1.0000
  O   O6        1.0  0.16808406194677158  0.3258954107123486  0.21412238740456505  1.0000
  O   O7        1.0  0.1680907223022814  0.17410557877796864  0.71412297784277  1.0000
  O   O8        1.0  0.8319133706526926  0.6741032963245601  0.7858772202014066  1.0000
  O   O9        1.0  0.6996387101307135  0.365110746888881  0.2276304846325203  1.0000
  O   O10       1.0  0.3003553922909887  0.8651062831396531  0.2723686289788105  1.0000
  O   O11       1.0  0.3003637177353795  0.634893413387566  0.7723684725366199  1.0000
  O   O12       1.0  0.6996487006639853  0.1348913332493424  0.7276307739631916  1.0000
  O   O13       1.0  0.4729301989435442  0.5831127226640902  0.27527496254610645  1.0000
  O   O14       1.0  0.5270605733004032  0.08311609576541201  0.22472524727491824  1.0000
  O   O15       1.0  0.5270655685670391  0.4168848937249052  0.7247245968380867  1.0000
  O   O16       1.0  0.4729401894768158  0.9168837019194029  0.7752752518767778  1.0000
  O   O17       1.0  0.3218833264033805  0.4344715912398271  0.33294199692103643  1.0000
  O   O18       1.0  0.6781057807516859  0.9344758526738631  0.1670585622293004  1.0000
  O   O19       1.0  0.6781124411071956  0.5655216625575363  0.667057562463157  1.0000
  O   O20       1.0  0.3218866565811354  0.0655206730672262  0.8329428884667607  1.0000
