data_image0
_chemical_formula_structural       Zn2H60C70N4O12
_chemical_formula_sum              "Zn2 H60 C70 N4 O12"
_cell_length_a       9.068071906205663
_cell_length_b       11.572911608995117
_cell_length_c       15.685
_cell_angle_alpha    96.56445880252633
_cell_angle_beta     100.49028499211173
_cell_angle_gamma    106.34549794435199

_space_group_name_H-M_alt    "P 1"
_space_group_IT_number       1

loop_
  _space_group_symop_operation_xyz
  'x, y, z'

loop_
  _atom_site_type_symbol
  _atom_site_label
  _atom_site_symmetry_multiplicity
  _atom_site_fract_x
  _atom_site_fract_y
  _atom_site_fract_z
  _atom_site_occupancy
  Zn  Zn1       1.0  0.5619744774505406  0.49361709990423447  0.3174775534049701  1.0000
  Zn  Zn2       1.0  0.43802488614323937  0.5063831934314535  0.6825204279387196  1.0000
  H   H1        1.0  0.613257518038715  0.3287628092479196  0.44380796168936604  1.0000
  H   H2        1.0  0.3867425753829252  0.6712393134341211  0.5561921634367978  1.0000
  H   H3        1.0  0.12498753689632032  0.0821980196973939  0.23311674628383375  1.0000
  H   H4        1.0  0.8750148531037498  0.917798614945589  0.7668850703222463  1.0000
  H   H5        1.0  0.9324969762905869  0.9087213983400062  0.5086150249969138  1.0000
  H   H6        1.0  0.06750090087376041  0.0912779803225021  0.4913871855944196  1.0000
  H   H7        1.0  0.367024114409233  0.5739180874331566  0.1689021444531349  1.0000
  H   H8        1.0  0.6329767088402677  0.42608586459524384  0.8310962991446902  1.0000
  H   H9        1.0  0.5102684421678348  0.24806576823349494  0.0032621799548451045  1.0000
  H   H10       1.0  0.4897316780275177  0.7519336104290204  0.9967370789803456  1.0000
  H   H11       1.0  0.15730163792959223  0.67731091398106  0.15892425874553606  1.0000
  H   H12       1.0  0.8426976988904826  0.3226921233741606  0.8410739512373269  1.0000
  H   H13       1.0  0.4831174100523583  0.11713396168148188  0.4665326363602419  1.0000
  H   H14       1.0  0.5168852645405054  0.8828718196932639  0.5334712568304952  1.0000
  H   H15       1.0  0.17481374911565697  0.9498012000519935  0.4210718173330364  1.0000
  H   H16       1.0  0.8251811016424143  0.05020183730322  0.5789316584103191  1.0000
  H   H17       1.0  0.3118792524969721  0.9063286133097606  0.37010730125951613  1.0000
  H   H18       1.0  0.6881178680658098  0.0936716800259276  0.629898094602929  1.0000
  H   H19       1.0  0.17302770774415424  0.22843871120785045  0.0563156741587676  1.0000
  H   H20       1.0  0.8269668316474111  0.7715579234351324  0.9436827658800983  1.0000
  H   H21       1.0  0.19569183146848707  0.3501085371725878  0.9949022923334143  1.0000
  H   H22       1.0  0.8043094102423681  0.6498908414899205  0.005097722205007917  1.0000
  H   H23       1.0  0.16834894725768382  0.6594555788986795  0.4332886947521076  1.0000
  H   H24       1.0  0.831651875991817  0.3405483731297139  0.5667110239493242  1.0000
  H   H25       1.0  0.9767638856848322  0.7363503235175627  0.3534619379227523  1.0000
  H   H26       1.0  0.02323511299502462  0.2636490551449455  0.6465365654092069  1.0000
  H   H27       1.0  0.922031881760141  0.6916173171378333  0.23828972367383022  1.0000
  H   H28       1.0  0.0779685498017173  0.3083884642369128  0.7617094705514377  1.0000
  H   H29       1.0  0.09380640061831973  0.3839258338615679  0.11052020702420151  1.0000
  H   H30       1.0  0.9061929897491797  0.6160717154545878  0.8894775456803148  1.0000
  H   H31       1.0  0.12512615168190422  0.8779206937877858  0.22022676486363227  1.0000
  H   H32       1.0  0.8748780093403854  0.12208600226013998  0.779776724390267  1.0000
  H   H33       1.0  0.9861411577719964  0.912721264141723  0.27550881954280737  1.0000
  H   H34       1.0  0.013859665477504302  0.08728268788667039  0.7244934493658235  1.0000
  H   H35       1.0  0.3909160796016877  0.22284822875185026  0.7550616212957665  1.0000
  H   H36       1.0  0.6090870402262425  0.7771502352374782  0.24493915133378155  1.0000
  H   H37       1.0  0.17497494540711503  0.00017012921086489996  0.6276137070392594  1.0000
  H   H38       1.0  0.8250251747882373  0.9998292494516434  0.37238810210313744  1.0000
  H   H39       1.0  0.6745551517900596  0.1603623306855368  0.9195181930341081  1.0000
  H   H40       1.0  0.32544233368665243  0.8396388773233241  0.08047903021846281  1.0000
  H   H41       1.0  0.3768914426636131  0.5562310522152885  0.43217027832416494  1.0000
  H   H42       1.0  0.6231119885308161  0.4437738144862776  0.5678278793882541  1.0000
  H   H43       1.0  0.16638045663719234  0.6363756306309938  0.6726616386321427  1.0000
  H   H44       1.0  0.833618177128727  0.3636228333583418  0.3273367491362791  1.0000
  H   H45       1.0  0.9231735716363972  0.5489356189579269  0.551966060837458  1.0000
  H   H46       1.0  0.07682654855895518  0.4510637597045885  0.44803319809773273  1.0000
  H   H47       1.0  0.4154169138061193  0.0324425429043984  0.6883405197884898  1.0000
  H   H48       1.0  0.58458284147531  0.967555921084937  0.3116605362385699  1.0000
  H   H49       1.0  0.5214871020209132  0.9936506321430301  0.781908677463214  1.0000
  H   H50       1.0  0.478512288346586  0.006346917173125599  0.21809098789670867  1.0000
  H   H51       1.0  0.2700216066600802  0.29537357960563776  0.22166631229888625  1.0000
  H   H52       1.0  0.7299789052229145  0.704623969710525  0.778334108664268  1.0000
  H   H53       1.0  0.29611985336082824  0.3379580186932927  0.8648928895821799  1.0000
  H   H54       1.0  0.7038813883500269  0.6620413599692155  0.13510648740443543  1.0000
  H   H55       1.0  0.1348457171141106  0.0114251826501715  0.9734031141632544  1.0000
  H   H56       1.0  0.8651540113935995  0.9885760253586964  0.026596895399371996  1.0000
  H   H57       1.0  0.9273706704822544  0.46475733183297047  0.19427651045524644  1.0000
  H   H58       1.0  0.0726305980023128  0.5352393028100053  0.8057220003403955  1.0000
  H   H59       1.0  0.2416792177203035  0.8987697541775005  0.8681836967214878  1.0000
  H   H60       1.0  0.7583179296161903  0.1012277951386551  0.1318163700873782  1.0000
  C   C1        1.0  0.911773726953527  0.7239574166464492  0.5231427963898483  1.0000
  C   C2        1.0  0.08822527172632282  0.27604196201606607  0.4768582571493098  1.0000
  C   C3        1.0  0.7085253982421734  0.3632459880095452  0.10400245647818449  1.0000
  C   C4        1.0  0.29147508686710927  0.6367543053261429  0.895995005365137  1.0000
  C   C5        1.0  0.2930729581593781  0.07999823070743159  0.3506590374912051  1.0000
  C   C6        1.0  0.7069260405204718  0.9200011479550837  0.6493445662551666  1.0000
  C   C7        1.0  0.5035464480266543  0.2705950832488142  0.3999124043612454  1.0000
  C   C8        1.0  0.49645103745005775  0.7294061247600537  0.6000899193057309  1.0000
  C   C9        1.0  0.23266973813285577  0.1328992685550929  0.2818935256642235  1.0000
  C   C10       1.0  0.7673337466090049  0.8671001101074154  0.7181092751842614  1.0000
  C   C11       1.0  0.9853270099591143  0.8503762257446182  0.5452998125046592  1.0000
  C   C12       1.0  0.014671623806805213  0.1496222382447172  0.45470112547096875  1.0000
  C   C13       1.0  0.3203154826580672  0.5964217915995249  0.22582381659053405  1.0000
  C   C14       1.0  0.6796805431629238  0.4035757577166308  0.7741742195115011  1.0000
  C   C15       1.0  0.14615398999649906  0.6779017928532056  0.2961194666801107  1.0000
  C   C16       1.0  0.8538453735972882  0.32209850048248256  0.7038797897671856  1.0000
  C   C17       1.0  0.3272236497980998  0.05446329963347549  0.8064167587621898  1.0000
  C   C18       1.0  0.6727772269988251  0.94553516435586  0.19358314021269513  1.0000
  C   C19       1.0  0.1866252392200707  0.8227823653499086  0.6574321426700608  1.0000
  C   C20       1.0  0.8133752458892118  0.17721792798577948  0.3425697820358665  1.0000
  C   C21       1.0  0.2081883910283651  0.18241784499532088  0.9261661008498338  1.0000
  C   C22       1.0  0.791812485768567  0.8175806189940076  0.07383316057324404  1.0000
  C   C23       1.0  0.6100554533968819  0.41153615837345814  0.15669190447863462  1.0000
  C   C24       1.0  0.38994727474339913  0.5884641349622298  0.8433077061229498  1.0000
  C   C25       1.0  0.6379768208834165  0.2772319518189548  0.026051839672582795  1.0000
  C   C26       1.0  0.36202366422586624  0.7227683415167334  0.9739468972743455  1.0000
  C   C27       1.0  0.20399795490029501  0.6532723882241881  0.22114246925193023  1.0000
  C   C28       1.0  0.7960006520919194  0.34672881978467973  0.7788555096038722  1.0000
  C   C29       1.0  0.4308709205452531  0.1527604819139796  0.411191557570092  1.0000
  C   C30       1.0  0.569121740729237  0.8472370674021831  0.5888086745848541  1.0000
  C   C31       1.0  0.7693998077060799  0.6733970274579589  0.4488409856786646  1.0000
  C   C32       1.0  0.23059806945827435  0.3266023512045564  0.551159949809069  1.0000
  C   C33       1.0  0.2179572257717197  0.9500033428240469  0.35966141764973975  1.0000
  C   C34       1.0  0.7820432325638509  0.049999694531173595  0.6403445610061669  1.0000
  C   C35       1.0  0.894093685984771  0.2664927740513079  0.009086845244553407  1.0000
  C   C36       1.0  0.10590679912451155  0.7335075192843801  0.9909093414951686  1.0000
  C   C37       1.0  0.14496353046832414  0.2506735014602697  0.9900735883501498  1.0000
  C   C38       1.0  0.8550410757890392  0.7493258772022457  0.009926142790760683  1.0000
  C   C39       1.0  0.21035835835670016  0.6431277480213993  0.37346312504044493  1.0000
  C   C40       1.0  0.7896420999788704  0.3568752893338214  0.6265352029938499  1.0000
  C   C41       1.0  0.02225101204113144  0.7406035537892207  0.2933455191264685  1.0000
  C   C42       1.0  0.9777483247789364  0.2593994835659927  0.7066539659600011  1.0000
  C   C43       1.0  0.9662957767934445  0.3528873142834072  0.0865760906087445  1.0000
  C   C44       1.0  0.03370285697248226  0.6471111497059283  0.9134216596078772  1.0000
  C   C45       1.0  0.08486056031513561  0.8744156661746699  0.2823417627940046  1.0000
  C   C46       1.0  0.9151384115910092  0.1255864565073708  0.7176614320397336  1.0000
  C   C47       1.0  0.33972396139354544  0.1774246441237111  0.8048782973470596  1.0000
  C   C48       1.0  0.6602769154033795  0.8225738198656173  0.19512160162782521  1.0000
  C   C49       1.0  0.12160374306024122  0.9011497337832778  0.611907165338188  1.0000
  C   C50       1.0  0.8783948907056853  0.09884873020605768  0.3880944101892396  1.0000
  C   C51       1.0  0.7291450195819993  0.2287432973756864  0.9791891129084437  1.0000
  C   C52       1.0  0.27085322249628524  0.7712569959600017  0.020807475280221914  1.0000
  C   C53       1.0  0.32629526099992034  0.586436304529478  0.3734579659538185  1.0000
  C   C54       1.0  0.6737063188511527  0.41356673282573536  0.6265411176837077  1.0000
  C   C55       1.0  0.11398212508829894  0.6954571151336282  0.6363470714373706  1.0000
  C   C56       1.0  0.8860165086776277  0.3045413488557074  0.36365259143465073  1.0000
  C   C57       1.0  0.9784972105573291  0.647362684829524  0.5697207063151524  1.0000
  C   C58       1.0  0.02150142320859772  0.35263577915981154  0.4302802316604756  1.0000
  C   C59       1.0  0.4027557972378518  0.9892263579873272  0.7468369300967554  1.0000
  C   C60       1.0  0.5972447146451431  0.0107711913288284  0.25316349086639894  1.0000
  C   C61       1.0  0.3114726778867123  0.2519778254102434  0.2752272014521537  1.0000
  C   C62       1.0  0.6885255909652842  0.7480197239059123  0.7247742585117437  1.0000
  C   C63       1.0  0.28277231237593986  0.24133011496027018  0.8653686184538217  1.0000
  C   C64       1.0  0.7172289293349153  0.7586692637022452  0.13463012098100086  1.0000
  C   C65       1.0  0.19216839497106972  0.05822992377512289  0.9259172598928204  1.0000
  C   C66       1.0  0.8078306037087872  0.9417694548873854  0.07408188099093849  1.0000
  C   C67       1.0  0.8727220682526565  0.39936917577698944  0.1333108883151795  1.0000
  C   C68       1.0  0.12727917345819864  0.6006302028855259  0.8666872135678363  1.0000
  C   C69       1.0  0.25199549768755963  0.9947262877988335  0.8669943630388917  1.0000
  C   C70       1.0  0.7480031360783672  0.0052721761905019  0.13300657493673645  1.0000
  N   N1        1.0  0.4454864836019254  0.3196993127399921  0.3327774611850956  1.0000
  N   N2        1.0  0.5545140015073572  0.6803009805956961  0.667223825969032  1.0000
  N   N3        1.0  0.3810245134780318  0.5640944975153843  0.30110029402236194  1.0000
  N   N4        1.0  0.6189767014591112  0.4359076251666565  0.6988980364998343  1.0000
  O   O1        1.0  0.974728506161  0.21448994526316054  0.9587341542533709  1.0000
  O   O2        1.0  0.025272343862219836  0.7855112627457004  0.04126214804988142  1.0000
  O   O3        1.0  0.6896531156113143  0.48330233049058074  0.2315395478778726  1.0000
  O   O4        1.0  0.31035373367704727  0.5166970481719275  0.7684604193658944  1.0000
  O   O5        1.0  0.704518267611988  0.5546221420974717  0.43547072570835615  1.0000
  O   O6        1.0  0.29547960955236624  0.4453772365650365  0.564528934675778  1.0000
  O   O7        1.0  0.7217905094884856  0.7423853371374348  0.40227482419469146  1.0000
  O   O8        1.0  0.278209975620797  0.25761495619825325  0.5977258254076363  1.0000
  O   O9        1.0  0.463512827244017  0.38293341346484766  0.13049643390050392  1.0000
  O   O10       1.0  0.5364902658101941  0.6170677945440133  0.8695039298164178  1.0000
  O   O11       1.0  0.3222749626756  0.8605419034304731  0.7217506831546032  1.0000
  O   O12       1.0  0.6777255492073948  0.13945564588568968  0.27825101291215054  1.0000
