data_image0
_chemical_formula_structural       Ca2H24C32O12
_chemical_formula_sum              "Ca2 H24 C32 O12"
_cell_length_a       7.557949353046904
_cell_length_b       7.838645797967293
_cell_length_c       13.093618184842436
_cell_angle_alpha    107.42156985578974
_cell_angle_beta     90.35496998167915
_cell_angle_gamma    89.98948281216833

_space_group_name_H-M_alt    "P 1"
_space_group_IT_number       1

loop_
  _space_group_symop_operation_xyz
  'x, y, z'

loop_
  _atom_site_type_symbol
  _atom_site_label
  _atom_site_symmetry_multiplicity
  _atom_site_fract_x
  _atom_site_fract_y
  _atom_site_fract_z
  _atom_site_occupancy
  Ca  Ca1       1.0  0.7500362953071118  0.46306409633149315  0.999988473811918  1.0000
  Ca  Ca2       1.0  0.24996257132683297  0.5369361370783209  1.3239700884071675e-05  1.0000
  H   H1        1.0  0.3227527442946112  0.527177947035696  0.35547991062883716  1.0000
  H   H2        1.0  0.17734061290543224  0.17151197279663674  0.6445401524043463  1.0000
  H   H3        1.0  0.6772448302347983  0.4728276606911024  0.6445212578914197  1.0000
  H   H4        1.0  0.8226648620829097  0.8284842500216952  0.35546010004159717  1.0000
  H   H5        1.0  0.9280416770349689  0.28072973322130684  0.329388977278235  1.0000
  H   H6        1.0  0.5724992430496343  0.9504463174722632  0.670784365516987  1.0000
  H   H7        1.0  0.0719558785160856  0.71926653939137  0.6706089426194383  1.0000
  H   H8        1.0  0.42750358838276264  0.04955257200234799  0.3292171254773777  1.0000
  H   H9        1.0  0.7892433008330569  0.3813750811451301  0.5031453329547448  1.0000
  H   H10       1.0  0.7110590503990579  0.8775370400608794  0.4969972662457424  1.0000
  H   H11       1.0  0.21075426380674134  0.61862386548993  0.496853079966158  1.0000
  H   H12       1.0  0.2889424752956913  0.1224632126971414  0.5030029402212295  1.0000
  H   H13       1.0  0.05324160847071369  0.25939276019648355  0.17607059733693123  1.0000
  H   H14       1.0  0.446913693055194  0.08355857433752328  0.8240455922100413  1.0000
  H   H15       1.0  0.9467533035244032  0.7406061790724721  0.8239285611091633  1.0000
  H   H16       1.0  0.5530891557538381  0.9164416761124982  0.17595462225465042  1.0000
  H   H17       1.0  0.9693923582917634  0.1367560035114082  0.047560979554539515  1.0000
  H   H18       1.0  0.5306336719035157  0.0894965293073753  0.9525897493921108  1.0000
  H   H19       1.0  0.03059991201917  0.8632442773847514  0.9524384094077266  1.0000
  H   H20       1.0  0.46936918144989187  0.9105050581538376  0.04741071158419886  1.0000
  H   H21       1.0  0.9131258400731568  0.06644410790595862  0.16246613065445814  1.0000
  H   H22       1.0  0.5867053436285231  0.904028649808552  0.8377808174866106  1.0000
  H   H23       1.0  0.08687039049186748  0.9335534920437993  0.8375327892777522  1.0000
  H   H24       1.0  0.41329883471091483  0.09597161031557278  0.16221864345516934  1.0000
  C   C1        1.0  0.5431944290267906  0.4679697218908457  0.44704847754972843  1.0000
  C   C2        1.0  0.9569331244405177  0.020620931196624795  0.5529901011761923  1.0000
  C   C3        1.0  0.4568071284785731  0.5320398899455226  0.5529534544985425  1.0000
  C   C4        1.0  0.04307105202716598  0.9793806539565822  0.44701036779783737  1.0000
  C   C5        1.0  0.4568367567842984  0.4756597239546069  0.3535808087786948  1.0000
  C   C6        1.0  0.04335813900249969  0.12172048529993157  0.6464686032259055  1.0000
  C   C7        1.0  0.5431595165518387  0.5243485840668071  0.6464193217257802  1.0000
  C   C8        1.0  0.9566447098065325  0.8782797651500899  0.3535316112387933  1.0000
  C   C9        1.0  0.5329721401806609  0.4167574714360427  0.2519796344737203  1.0000
  C   C10       1.0  0.9672616635651606  0.1644349153441594  0.7481035757834749  1.0000
  C   C11       1.0  0.46702409760135316  0.5832441275651873  0.7480207865139761  1.0000
  C   C12       1.0  0.0327424864371437  0.8355626348112538  0.2518976766969986  1.0000
  C   C13       1.0  0.7069813557244585  0.3470602380694885  0.24243508755781565  1.0000
  C   C14       1.0  0.793342119169786  0.10415404439337551  0.7576745138825134  1.0000
  C   C15       1.0  0.29301484463168487  0.6529359769406538  0.7575666319453377  1.0000
  C   C16       1.0  0.2066620436647781  0.8958435297262566  0.24232521555667574  1.0000
  C   C17       1.0  0.7950199994868753  0.3354731801328795  0.33464510715911905  1.0000
  C   C18       1.0  0.7054465495831792  8.485103349899782e-05  0.6655049025641875  1.0000
  C   C19       1.0  0.2049749079638659  0.6645244221248847  0.6653538047753644  1.0000
  C   C20       1.0  0.29455761779576056  0.9999140600973248  0.33449507338661993  1.0000
  C   C21       1.0  0.714694052366866  0.3944850025596551  0.4344105729049019  1.0000
  C   C22       1.0  0.7856241203100326  0.9594668171042573  0.56568783507678  1.0000
  C   C23       1.0  0.28530219183127054  0.6055166084236845  0.5655890865621487  1.0000
  C   C24       1.0  0.2143787220828699  0.040533421363655  0.4343131409085573  1.0000
  C   C25       1.0  0.4201927103680561  0.428049887003759  0.16003896705816353  1.0000
  C   C26       1.0  0.0799007436823942  0.26783639187861746  0.8400546301310644  1.0000
  C   C27       1.0  0.5798021978835521  0.5719517023233679  0.8399622074524448  1.0000
  C   C28       1.0  0.9201060699250974  0.7321625146362007  0.1599453618151898  1.0000
  C   C29       1.0  0.9406756684177822  0.18081004794062489  0.1331537474824032  1.0000
  C   C30       1.0  0.559372458423887  0.0477902111000787  0.8670068048479324  1.0000
  C   C31       1.0  0.0593205576028666  0.8191862149979483  0.8668449259381888  1.0000
  C   C32       1.0  0.4406317134994211  0.9522100370419437  0.13299341761448596  1.0000
  O   O1        1.0  0.26041853873707765  0.47683350813771586  0.1758996455715689  1.0000
  O   O2        1.0  0.23959116719399276  0.3009645713016909  0.8241905847778099  1.0000
  O   O3        1.0  0.7395763475935269  0.5231653832028086  0.824102558957087  1.0000
  O   O4        1.0  0.7604169430624025  0.699030297907335  0.17581019867260045  1.0000
  O   O5        1.0  0.4860089955220204  0.3879493840331206  0.0649055695492677  1.0000
  O   O6        1.0  0.014065026660574598  0.3227486139351469  0.9351819066365582  1.0000
  O   O7        1.0  0.5139885854235189  0.6120562356757874  0.9350948374503505  1.0000
  O   O8        1.0  0.9859378376533315  0.6772543225193672  0.0648180393307243  1.0000
  O   O9        1.0  0.7839749358993798  0.2901243774113667  0.14317317939581642  1.0000
  O   O10       1.0  0.7162447063196639  0.1467386296316704  0.8569227699407665  1.0000
  O   O11       1.0  0.21602128824951447  0.7098732105562887  0.8568265020570255  1.0000
  O   O12       1.0  0.2837581406176142  0.8532629458474331  0.143078452556189  1.0000
