data_image0
_chemical_formula_structural       H32Pb4C24N8Cl8O8
_chemical_formula_sum              "H32 Pb4 C24 N8 Cl8 O8"
_cell_length_a       7.776296462761304
_cell_length_b       7.961630704089065
_cell_length_c       18.045353561315256
_cell_angle_alpha    90.0087031967583
_cell_angle_beta     90.00091334893274
_cell_angle_gamma    112.1663233834671

_space_group_name_H-M_alt    "P 1"
_space_group_IT_number       1

loop_
  _space_group_symop_operation_xyz
  'x, y, z'

loop_
  _atom_site_type_symbol
  _atom_site_label
  _atom_site_symmetry_multiplicity
  _atom_site_fract_x
  _atom_site_fract_y
  _atom_site_fract_z
  _atom_site_occupancy
  H   H1        1.0  0.02684201850225066  0.8701829738876724  0.29458206187540975  1.0000
  H   H2        1.0  0.4732545053095691  0.12980472389378409  0.7945847159205142  1.0000
  H   H3        1.0  0.9731465007512269  0.1297204371530398  0.7054068170317221  1.0000
  H   H4        1.0  0.526774865325919  0.8701868164023807  0.20542245335764867  1.0000
  H   H5        1.0  0.8578686569013811  0.8863401893668127  0.3571886913739064  1.0000
  H   H6        1.0  0.642147019536658  0.11364313379755231  0.8572223322069732  1.0000
  H   H7        1.0  0.1420848970480009  0.11355930604692328  0.642769708548954  1.0000
  H   H8        1.0  0.35778563796100127  0.8862687058381268  0.1428103254260975  1.0000
  H   H9        1.0  0.8575960157815246  0.7644371592940831  0.4941012142553943  1.0000
  H   H10       1.0  0.6424056714292307  0.2356396753060253  0.9941049476729515  1.0000
  H   H11       1.0  0.1423947224154247  0.23567277583868673  0.5058893341872803  1.0000
  H   H12       1.0  0.35765140294364534  0.7646071775138241  0.0058756307496353  1.0000
  H   H13       1.0  0.14501463781034832  0.7194742828615476  0.5739610530355961  1.0000
  H   H14       1.0  0.35506630711317644  0.2807060033136252  0.0739564090390417  1.0000
  H   H15       1.0  0.8550279126815709  0.28073867515730916  0.42604501551866036  1.0000
  H   H16       1.0  0.6450590817408183  0.7196071038980277  0.9260269426190177  1.0000
  H   H17       1.0  0.28490365591890304  0.7741288547890548  0.3452362573752055  1.0000
  H   H18       1.0  0.21510216009917826  0.22583815607587346  0.8452424721884098  1.0000
  H   H19       1.0  0.7149829935135869  0.22567177650792297  0.6547564968737305  1.0000
  H   H20       1.0  0.7848288665244212  0.7740234136702712  0.1547763297420559  1.0000
  H   H21       1.0  0.5549209973009753  0.8467232689492619  0.45996647531895  1.0000
  H   H22       1.0  0.9450527794488934  0.1534604827197015  0.9599927589060184  1.0000
  H   H23       1.0  0.44500713119491314  0.15336794271034657  0.5400257348002029  1.0000
  H   H24       1.0  0.05495460737338231  0.846688784011022  0.04002937800139959  1.0000
  H   H25       1.0  0.4444199809374041  0.6042334444328574  0.4593389134094536  1.0000
  H   H26       1.0  0.05573043349275508  0.3959459594353518  0.9593736459063321  1.0000
  H   H27       1.0  0.5556160509256357  0.3958640485440839  0.5406671511852608  1.0000
  H   H28       1.0  0.9443214102214412  0.6041854310355532  0.0406495988242739  1.0000
  H   H29       1.0  0.4543589986342269  0.7283061364319466  0.5436917588762356  1.0000
  H   H30       1.0  0.04577924291130837  0.27189258269899597  0.0437081862537383  1.0000
  H   H31       1.0  0.5456435786690647  0.2717847222325603  0.4563131970868284  1.0000
  H   H32       1.0  0.9542758997303977  0.7282143300925272  0.9562962162342571  1.0000
  Pb  Pb1       1.0  0.4984598463502792  0.2929900761416279  0.2485838700983578  1.0000
  Pb  Pb2       1.0  0.001600894228609267  0.7066906358639785  0.7484666634135805  1.0000
  Pb  Pb3       1.0  0.5015942514066365  0.7068573391676977  0.751537451133025  1.0000
  Pb  Pb4       1.0  0.9984413401400686  0.2930045976570099  0.25138810197970674  1.0000
  C   C1        1.0  0.7941575520672259  0.6224677068710777  0.3094952190717208  1.0000
  C   C2        1.0  0.7058439258656009  0.3774945547911769  0.8095438843069828  1.0000
  C   C3        1.0  0.205803480858286  0.37743447370469607  0.6904792515811449  1.0000
  C   C4        1.0  0.29415248219785906  0.6224455143180311  0.1904871119771485  1.0000
  C   C5        1.0  0.9331616842831921  0.8005070996124389  0.3401660615520044  1.0000
  C   C6        1.0  0.5668853669557876  0.19946629624286055  0.8401885494023132  1.0000
  C   C7        1.0  0.0668050744080801  0.19938010796612823  0.6598128418786047  1.0000
  C   C8        1.0  0.4331204323329986  0.8005076955171476  0.15983302735677538  1.0000
  C   C9        1.0  0.9885003923913446  0.7606257573911395  0.475671747856083  1.0000
  C   C10       1.0  0.5115163671655907  0.23943249440124248  0.9756767259757807  1.0000
  C   C11       1.0  0.011485416460430985  0.2394583864483195  0.5243282204008395  1.0000
  C   C12       1.0  0.48846717976269355  0.7606557358898199  0.024319917459173692  1.0000
  C   C13       1.0  0.1283542856180163  0.738697782618786  0.5153681896089424  1.0000
  C   C14       1.0  0.37167050670367974  0.2613783116368467  0.0153650861159207  1.0000
  C   C15       1.0  0.8716165694459903  0.2613809992627267  0.4846400908153043  1.0000
  C   C16       1.0  0.628428029039604  0.7388792131236884  0.9846143844598102  1.0000
  C   C17       1.0  0.20964991819108994  0.7671493226996517  0.39646119933073004  1.0000
  C   C18       1.0  0.2903446851910516  0.2328226746006195  0.8964693887104005  1.0000
  C   C19       1.0  0.7903028244378519  0.23276784840825832  0.6035343298649707  1.0000
  C   C20       1.0  0.7095952428379703  0.7671176590258141  0.10353611610998568  1.0000
  C   C21       1.0  0.4413879054640261  0.7297496937795956  0.4833366255484393  1.0000
  C   C22       1.0  0.05869000667745181  0.2703829346896285  0.9833594752360426  1.0000
  C   C23       1.0  0.5586207627496477  0.27031395768973004  0.5166561379973302  1.0000
  C   C24       1.0  0.941346331215783  0.7297186340802427  0.0166510227728338  1.0000
  N   N1        1.0  0.042376057304345155  0.778624105366454  0.4020631544083457  1.0000
  N   N2        1.0  0.4576364871019722  0.22138002102256849  0.9020669937123313  1.0000
  N   N3        1.0  0.9575755024701706  0.2213229627979274  0.5979240634160519  1.0000
  N   N4        1.0  0.5423810853512452  0.7786767952824152  0.0979318653751093  1.0000
  N   N5        1.0  0.2647003979537175  0.744477991136364  0.46498734936171354  1.0000
  N   N6        1.0  0.23531145116726998  0.2555698913607642  0.9649929256313639  1.0000
  N   N7        1.0  0.7352377753999804  0.2555302861259817  0.5350004246773565  1.0000
  N   N8        1.0  0.7646698350172585  0.7444368230137287  0.035003715014298095  1.0000
  Cl  Cl1       1.0  0.6220332684360772  0.0403398491861253  0.3221224734455462  1.0000
  Cl  Cl2       1.0  0.8777864576874775  0.9594124549032443  0.8220976197232872  1.0000
  Cl  Cl3       1.0  0.37785124456515  0.9595178679102573  0.6779035323035814  1.0000
  Cl  Cl4       1.0  0.12210544559599161  0.0403555345215452  0.1778657629831102  1.0000
  Cl  Cl5       1.0  0.27219432406262445  0.31450319152341416  0.36804136318078656  1.0000
  Cl  Cl6       1.0  0.22796135199367734  0.6854399434781727  0.8680269411433555  1.0000
  Cl  Cl7       1.0  0.7279858997569448  0.6855650846252673  0.6319951795494987  1.0000
  Cl  Cl8       1.0  0.7722225323427878  0.31450600891280794  0.13193146096184447  1.0000
  O   O1        1.0  0.6796272659241964  0.6370521164612982  0.26247389795423  1.0000
  O   O2        1.0  0.8204245531516604  0.3628863329700636  0.7625204967576024  1.0000
  O   O3        1.0  0.3203064480411797  0.3628624297112991  0.7375299434917153  1.0000
  O   O4        1.0  0.1795781718480569  0.6370238140979865  0.23751659427317412  1.0000
  O   O5        1.0  0.7989071858376349  0.4718981881645448  0.3311017475554223  1.0000
  O   O6        1.0  0.7011155692252444  0.5280634171322377  0.8311440461639208  1.0000
  O   O7        1.0  0.2010981001559173  0.5280119342630911  0.6688754942795043  1.0000
  O   O8        1.0  0.29890127586865123  0.471846663978411  0.1689002489717097  1.0000
