data_image0
_chemical_formula_structural       Zr6H30C50O42
_chemical_formula_sum              "Zr6 H30 C50 O42"
_cell_length_a       14.799989860994721
_cell_length_b       14.79382821842293
_cell_length_c       14.806298787558472
_cell_angle_alpha    59.97368552349294
_cell_angle_beta     59.958135475423134
_cell_angle_gamma    60.04795099557686

_space_group_name_H-M_alt    "P 1"
_space_group_IT_number       1

loop_
  _space_group_symop_operation_xyz
  'x, y, z'

loop_
  _atom_site_type_symbol
  _atom_site_label
  _atom_site_symmetry_multiplicity
  _atom_site_fract_x
  _atom_site_fract_y
  _atom_site_fract_z
  _atom_site_occupancy
  Zr  Zr1       1.0  0.8809332179568081  0.8822289352434187  0.6176822560017285  1.0000
  Zr  Zr2       1.0  0.12008644993021987  0.11871219772748288  0.38116693017107645  1.0000
  Zr  Zr3       1.0  0.11913055590770191  0.8799651480365684  0.6201920188046657  1.0000
  Zr  Zr4       1.0  0.8815935551378685  0.12139908407786493  0.3787804399441086  1.0000
  Zr  Zr5       1.0  0.11934007696762441  0.8815292324307579  0.38040056863055594  1.0000
  Zr  Zr6       1.0  0.8813084238984745  0.11963498022402073  0.6184941350287473  1.0000
  H   H1        1.0  0.09337499729988952  0.7185967089355502  0.593707635952569  1.0000
  H   H2        1.0  0.09542754136375463  0.09468581169943492  0.21743033032955586  1.0000
  H   H3        1.0  0.09454679247618719  0.09384288316022799  0.5940499431620339  1.0000
  H   H4        1.0  0.7184904507715968  0.09514960859817735  0.5927992036488091  1.0000
  H   H5        1.0  0.14152838004699195  0.5894778824464312  0.35235003981738094  1.0000
  H   H6        1.0  0.85418692346029  0.4161531391653526  0.6426898155317174  1.0000
  H   H7        1.0  0.5881166094481642  0.14291817916272737  0.9153490779637607  1.0000
  H   H8        1.0  0.41788899195762486  0.8525284808511914  0.08854903093987342  1.0000
  H   H9        1.0  0.8528735676132726  0.14125185135962684  0.08946848822352398  1.0000
  H   H10       1.0  0.14163506243267676  0.8550576100066181  0.9151066239032773  1.0000
  H   H11       1.0  0.5884163885406648  0.41545038658316025  0.3540999287877327  1.0000
  H   H12       1.0  0.41640851643327875  0.589890349050684  0.6402730702315934  1.0000
  H   H13       1.0  0.14288050261891516  0.42131449164489965  0.08458901732274877  1.0000
  H   H14       1.0  0.14096431097236475  0.5890419533858591  0.9169204159597939  1.0000
  H   H15       1.0  0.7421630555044982  0.6262029307451514  0.9605195243982931  1.0000
  H   H16       1.0  0.8290653209958447  0.5411919326528007  0.8751382387761307  1.0000
  H   H17       1.0  0.8310667214197023  0.3711294004943681  0.04513081920439521  1.0000
  H   H18       1.0  0.7442254353426274  0.45618647284209857  0.13030339156445342  1.0000
  H   H19       1.0  0.5891277433883957  0.8541714197909018  0.6408621310423326  1.0000
  H   H20       1.0  0.41685072755990393  0.1423772598960654  0.3528871266625018  1.0000
  H   H21       1.0  0.15150039722476544  0.3511368648071382  0.34285113337634954  1.0000
  H   H22       1.0  0.8437920573512864  0.655410917757891  0.6511842269092651  1.0000
  H   H23       1.0  0.35100560976291456  0.1515697653179516  0.1544632724334534  1.0000
  H   H24       1.0  0.65563980067688  0.8438538709819595  0.8496206647559175  1.0000
  H   H25       1.0  0.8425104395026537  0.15292346374668866  0.8507878273815804  1.0000
  H   H26       1.0  0.1517614458551574  0.8430329512855509  0.15401271811028752  1.0000
  H   H27       1.0  0.3515067432852062  0.6544785451272405  0.34177383895678287  1.0000
  H   H28       1.0  0.6540438594537648  0.3516421519924434  0.6517223394219583  1.0000
  H   H29       1.0  0.3513599464479353  0.8430461038254295  0.6516640282429265  1.0000
  H   H30       1.0  0.6551085834103388  0.15292546513124705  0.3418230149864882  1.0000
  C   C1        1.0  0.997799019332241  0.6984475876630826  0.495640102045307  1.0000
  C   C2        1.0  0.3090994941236572  0.9960986312008372  0.1975204993987916  1.0000
  C   C3        1.0  0.9970478838518203  0.3082586919127692  0.4979903916731202  1.0000
  C   C4        1.0  0.6976130181571563  0.998711666283242  0.8071853027500139  1.0000
  C   C5        1.0  0.995784753223823  0.7005685255273665  0.805382663405183  1.0000
  C   C6        1.0  0.6980260128248544  0.998002196031443  0.4963302145879849  1.0000
  C   C7        1.0  0.9991514675009152  0.3064104957198808  0.19950510604019206  1.0000
  C   C8        1.0  0.30864242920704005  0.9976492915706956  0.4967450365823681  1.0000
  C   C9        1.0  0.30840103381163425  0.6980063630767434  0.4964761850780377  1.0000
  C   C10       1.0  0.9971225453790995  0.9978074018909524  0.8078906530666717  1.0000
  C   C11       1.0  0.6977647848815777  0.3087987761404349  0.4965740009103212  1.0000
  C   C12       1.0  0.9971409077576893  0.9978496581798881  0.19713850928367543  1.0000
  C   C13       1.0  0.9987827060255868  0.4079817649074047  0.49637837638280746  1.0000
  C   C14       1.0  0.9964670215891899  0.598120047293861  0.49811099885512516  1.0000
  C   C15       1.0  0.08178940284599177  0.4570976516551611  0.41297985035304646  1.0000
  C   C16       1.0  0.9141517281044569  0.5483567683384649  0.5821629355323948  1.0000
  C   C17       1.0  0.07862457740819191  0.5514149626496591  0.4158017694893345  1.0000
  C   C18       1.0  0.9170751412271444  0.4542437016833888  0.5792417582519461  1.0000
  C   C19       1.0  0.40856812820210536  0.9982005044986763  0.0974412466037292  1.0000
  C   C20       1.0  0.5980386554801597  0.9966458128442713  0.9071712996429538  1.0000
  C   C21       1.0  0.4568017959158226  0.08206881140763042  0.04789315046529907  1.0000
  C   C22       1.0  0.5494597484445475  0.9131342204056951  0.9563796538516626  1.0000
  C   C23       1.0  0.5507702776197833  0.07931572839697058  0.953535061999183  1.0000
  C   C24       1.0  0.45549650403961534  0.915884381760911  0.05061136255326892  1.0000
  C   C25       1.0  0.9957753444654142  0.9996839414801646  0.9073879296137194  1.0000
  C   C26       1.0  0.998510836225719  0.9963281937969627  0.09748210333268065  1.0000
  C   C27       1.0  0.9129931214682968  0.08257707380607124  0.9565785734098992  1.0000
  C   C28       1.0  0.08172268482509541  0.9139045270612628  0.04782177819026154  1.0000
  C   C29       1.0  0.9161673625547094  0.07881402494751903  0.05091139758300751  1.0000
  C   C30       1.0  0.07843978525836799  0.9175764285746484  0.9535695195848745  1.0000
  C   C31       1.0  0.40804972111540383  0.5981369570565465  0.4950612024475091  1.0000
  C   C32       1.0  0.5975916419602996  0.40809621019544573  0.49846844207726776  1.0000
  C   C33       1.0  0.45696268505534493  0.5484206774243745  0.4126431595809734  1.0000
  C   C34       1.0  0.5481609247900108  0.4572850639534568  0.5813751152793712  1.0000
  C   C35       1.0  0.5508026121226804  0.45421043218019014  0.4163627544989694  1.0000
  C   C36       1.0  0.454326012894853  0.5515557122813136  0.577619105528882  1.0000
  C   C37       1.0  0.9957437417023128  0.6003020657354482  0.9053659095585614  1.0000
  C   C38       1.0  0.9978676973080665  0.40633735396495757  0.09928290257686731  1.0000
  C   C39       1.0  0.9168164914218475  0.5489460845306768  0.9552562172947389  1.0000
  C   C40       1.0  0.07876917477539536  0.4572765625650774  0.04852601974346278  1.0000
  C   C41       1.0  0.9179207619619305  0.45439864776532357  0.04976111500084105  1.0000
  C   C42       1.0  0.07767466891198174  0.5513853643752712  0.9544636784594471  1.0000
  C   C43       1.0  0.8154759053846301  0.5528485685483847  0.9492469342808149  1.0000
  C   C44       1.0  0.8167081506652565  0.4459804934574619  0.05603397515604773  1.0000
  C   C45       1.0  0.4083048332541918  0.9964796070108264  0.498135537945032  1.0000
  C   C46       1.0  0.5981328939407148  0.9995342466333599  0.4951399152281084  1.0000
  C   C47       1.0  0.45719081219795016  0.9137859741708568  0.5813007965319059  1.0000
  C   C48       1.0  0.5488328480544807  0.08269576833317423  0.4124188958363674  1.0000
  C   C49       1.0  0.5512872147325963  0.9172289846484324  0.5778542245985178  1.0000
  C   C50       1.0  0.45475364232147086  0.07923617727597332  0.4158400337073401  1.0000
  O   O1        1.0  0.9202447298653733  0.7398349383473505  0.57289142313369  1.0000
  O   O2        1.0  0.268000037715133  0.0733807189233033  0.23886797137843263  1.0000
  O   O3        1.0  0.07509927297282804  0.266484760378937  0.4212045099295452  1.0000
  O   O4        1.0  0.7379878543132745  0.9221307013713229  0.7651659213110019  1.0000
  O   O5        1.0  0.07277150628709711  0.7405842082191968  0.7649290396798704  1.0000
  O   O6        1.0  0.7389467977365314  0.0758770238884382  0.4192157655860171  1.0000
  O   O7        1.0  0.9224900411998785  0.26610610675096086  0.239402155504365  1.0000
  O   O8        1.0  0.2670016451714755  0.920482211328505  0.5746510512956107  1.0000
  O   O9        1.0  0.266831897127439  0.7385225008725912  0.4195066364584861  1.0000
  O   O10       1.0  0.9199331673669491  0.07552920757080987  0.7664577109377856  1.0000
  O   O11       1.0  0.7386730293645201  0.2674809865834862  0.5742581696780887  1.0000
  O   O12       1.0  0.07508111076242582  0.9207807957054399  0.23772976310169722  1.0000
  O   O13       1.0  0.0730553556818804  0.9223023468705807  0.7667371811352267  1.0000
  O   O14       1.0  0.7386775734293564  0.2677378183228356  0.4209320821436576  1.0000
  O   O15       1.0  0.9220115824082168  0.07406991771790675  0.23767373677625864  1.0000
  O   O16       1.0  0.26708137332490606  0.7388129277259453  0.5724108681604534  1.0000
  O   O17       1.0  0.9194998142591112  0.7401243760239995  0.7648303074204748  1.0000
  O   O18       1.0  0.2672520813097776  0.07379126671624192  0.4213029998858318  1.0000
  O   O19       1.0  0.07635246125350653  0.26575713936319545  0.2391429230656996  1.0000
  O   O20       1.0  0.7386949942260655  0.9224624995195115  0.5724356658990574  1.0000
  O   O21       1.0  0.7384713991751896  0.07474824096137678  0.7659817420077388  1.0000
  O   O22       1.0  0.07407257180732077  0.7390513841050675  0.42014933599342186  1.0000
  O   O23       1.0  0.26740767110559444  0.9208420536194382  0.23797871985795646  1.0000
  O   O24       1.0  0.9213182763953041  0.26698550908716356  0.5739623303375864  1.0000
  O   O25       1.0  0.798714195675352  0.06852537654923925  0.566035819853873  1.0000
  O   O26       1.0  0.0676143273476271  0.06715051817386812  0.5674408316786665  1.0000
  O   O27       1.0  0.06851053696964732  0.06734014069770218  0.2976915924758997  1.0000
  O   O28       1.0  0.06716435072278429  0.798849586633004  0.5662786240762827  1.0000
  O   O29       1.0  0.14894626873194752  0.9502386474503624  0.4506608685999893  1.0000
  O   O30       1.0  0.9508804828783965  0.9518191978603384  0.4491790939500289  1.0000
  O   O31       1.0  0.9513209144910988  0.14903647482858418  0.45009129382908936  1.0000
  O   O32       1.0  0.9504195556633235  0.9511271241003245  0.6480138940554737  1.0000
  O   O33       1.0  0.163792699246514  0.4171381097281355  0.3307023308621737  1.0000
  O   O34       1.0  0.8329004360057934  0.5878167178695295  0.6652425698169466  1.0000
  O   O35       1.0  0.4160716738548301  0.1647843423351603  0.0874376570968067  1.0000
  O   O36       1.0  0.5901894715494221  0.8306801727584912  0.9162633008726002  1.0000
  O   O37       1.0  0.8310965917567259  0.16527005390855723  0.9163506364378972  1.0000
  O   O38       1.0  0.16412460529057407  0.8317143920679939  0.08745491234535044  1.0000
  O   O39       1.0  0.417136284621236  0.5880383836001714  0.3303929368738778  1.0000
  O   O40       1.0  0.5875498955078766  0.4172013680772935  0.6640302025286926  1.0000
  O   O41       1.0  0.41699886509479717  0.8316608283737564  0.663863030175598  1.0000
  O   O42       1.0  0.5886365363075823  0.16528111963510403  0.3303605607040367  1.0000
