data_image0
_chemical_formula_structural       Gd4H32C24O28
_chemical_formula_sum              "Gd4 H32 C24 O28"
_cell_length_a       7.71137614822177
_cell_length_b       10.752538764625458
_cell_length_c       12.68658151154641
_cell_angle_alpha    71.8679888125651
_cell_angle_beta     72.31442742671295
_cell_angle_gamma    68.98709863802851

_space_group_name_H-M_alt    "P 1"
_space_group_IT_number       1

loop_
  _space_group_symop_operation_xyz
  'x, y, z'

loop_
  _atom_site_type_symbol
  _atom_site_label
  _atom_site_symmetry_multiplicity
  _atom_site_fract_x
  _atom_site_fract_y
  _atom_site_fract_z
  _atom_site_occupancy
  Gd  Gd1       1.0  0.015878138647039436  0.3098444708341575  0.22915688658109448  1.0000
  Gd  Gd2       1.0  0.5549444461253189  0.19011825804720672  0.27083845024709763  1.0000
  Gd  Gd3       1.0  0.9841211636543297  0.690155974547004  0.7708418831346503  1.0000
  Gd  Gd4       1.0  0.44505590695411007  0.8098811617803394  0.7291625941992237  1.0000
  H   H1        1.0  0.8258153912543448  0.5802068887444707  0.08780120480090382  1.0000
  H   H2        1.0  0.4938346712450608  0.9197738957434752  0.41214327805504775  1.0000
  H   H3        1.0  0.17418695777775628  0.4197915098635152  0.9121984565252886  1.0000
  H   H4        1.0  0.5061664721428374  0.08022552501187621  0.5878569786136437  1.0000
  H   H5        1.0  0.6644268291918536  0.49841753343487494  0.1457728382651594  1.0000
  H   H6        1.0  0.3086627753266671  0.0015762664754675004  0.3541083230401084  1.0000
  H   H7        1.0  0.3355751045045139  0.5015818882482818  0.8542266306258953  1.0000
  H   H8        1.0  0.6913387833969582  0.9984221312047127  0.6458921260637212  1.0000
  H   H9        1.0  0.09510078484599659  0.8329626388462898  0.48559138003186314  1.0000
  H   H10       1.0  0.4136310152123244  0.6669930294444627  0.014461385532754827  1.0000
  H   H11       1.0  0.904899885954599  0.16703677974203404  0.5144107055621844  1.0000
  H   H12       1.0  0.5863689225313781  0.3330074134582546  0.9855394664784356  1.0000
  H   H13       1.0  0.19036448408212434  0.7968819735902458  0.3503427430093495  1.0000
  H   H14       1.0  0.3377184838482777  0.7029957766679402  0.14970766799178384  1.0000
  H   H15       1.0  0.8096378649499774  0.20311642501773974  0.6496569183168431  1.0000
  H   H16       1.0  0.6622822442038868  0.2970046671625823  0.8502923962417767  1.0000
  H   H17       1.0  0.8709669761313847  0.75893280304512  0.3609505272622114  1.0000
  H   H18       1.0  0.9909551189939947  0.7410344834210036  0.13910951352303866  1.0000
  H   H19       1.0  0.12903537290071654  0.24106559556286564  0.6390491340639812  1.0000
  H   H20       1.0  0.009044916364274399  0.2589649376457572  0.8608904897755637  1.0000
  H   H21       1.0  0.011876392400282034  0.6366167365279695  0.4578245764168046  1.0000
  H   H22       1.0  0.10644693560342941  0.8632915677497268  0.04218593397182244  1.0000
  H   H23       1.0  0.9881216470053217  0.3633837057583591  0.5421768100019332  1.0000
  H   H24       1.0  0.8935550957075054  0.13670683209747383  0.957812686206644  1.0000
  H   H25       1.0  0.34369299143214965  0.13560914463188573  0.9701372743399402  1.0000
  H   H26       1.0  0.4493619001628277  0.36444903657689315  0.5296773254231794  1.0000
  H   H27       1.0  0.6563074188988623  0.864391300437859  0.029861748745894062  1.0000
  H   H28       1.0  0.550638469805179  0.6355534555709995  0.47032052501475613  1.0000
  H   H29       1.0  0.3064816828050708  0.9998776081141403  0.08389063745692472  1.0000
  H   H30       1.0  0.39018274895749994  0.5003536047074917  0.41603689418782597  1.0000
  H   H31       1.0  0.6935201532767297  0.0001228354049658001  0.9161096801467251  1.0000
  H   H32       1.0  0.6098203096570811  0.4996488889846022  0.583959634064925  1.0000
  C   C1        1.0  0.9676265927800856  0.9845078741249793  0.3546625203337114  1.0000
  C   C2        1.0  0.30684621022724906  0.5154200865182049  0.14533874043616626  1.0000
  C   C3        1.0  0.03237496594354647  0.015490523555200805  0.6453379287701111  1.0000
  C   C4        1.0  0.6931545178249222  0.48458035731231786  0.8546613237973942  1.0000
  C   C5        1.0  0.05547732618806826  0.835452070593803  0.4085192941057798  1.0000
  C   C6        1.0  0.29946621411893665  0.6644743789202467  0.09153515268651083  1.0000
  C   C7        1.0  0.9445210713016938  0.16454632337515565  0.5914843061085904  1.0000
  C   C8        1.0  0.7005330309308632  0.3355250412187162  0.908465638389721  1.0000
  C   C9        1.0  0.9269928596714152  0.7438973146954172  0.4351949534055135  1.0000
  C   C10       1.0  0.10614148269218049  0.7560441493901068  0.06485038310430723  1.0000
  C   C11       1.0  0.07300717568685404  0.25610210637134406  0.5648050498930886  1.0000
  C   C12       1.0  0.893857859972187  0.24395424891290676  0.9351495592593437  1.0000
  C   C13       1.0  0.7615046718396242  0.7678334613531208  0.5350854028137703  1.0000
  C   C14       1.0  0.06443464767014026  0.7321111838888187  0.964968269981142  1.0000
  C   C15       1.0  0.2384917620715825  0.23216391480895737  0.4649139718747506  1.0000
  C   C16       1.0  0.935565387688122  0.2678882371779494  0.035031733317467104  1.0000
  C   C17       1.0  0.47275189547369934  0.10561199700327958  0.10525228549976612  1.0000
  C   C18       1.0  0.6835511005257262  0.39447205446103345  0.39467504124095126  1.0000
  C   C19       1.0  0.5272465189046401  0.8943894692860185  0.8947481207062038  1.0000
  C   C20       1.0  0.3164523161730132  0.6055283909136835  0.6053237008074248  1.0000
  C   C21       1.0  0.4166408941844467  0.049333689831215104  0.030297134618322636  1.0000
  C   C22       1.0  0.4962196850649007  0.4507557587139176  0.4696268590958467  1.0000
  C   C23       1.0  0.5833601515888842  0.9506667527600855  0.9697039707629569  1.0000
  C   C24       1.0  0.5037806849031127  0.5492467334339752  0.5303709913420818  1.0000
  O   O1        1.0  0.7794237417161302  0.5122212825395636  0.15391429231834042  1.0000
  O   O2        1.0  0.44560646344296373  0.9877553047957339  0.3460187783151055  1.0000
  O   O3        1.0  0.22057781700750217  0.4877771151406166  0.8460861567854893  1.0000
  O   O4        1.0  0.5543938896364725  0.012244115031812403  0.6539822661312229  1.0000
  O   O5        1.0  0.06850392156213303  0.06660378385829802  0.3273660183300819  1.0000
  O   O6        1.0  0.46262594584814587  0.43329402336944156  0.1724935006435118  1.0000
  O   O7        1.0  0.9314968064900387  0.933396659972225  0.6726340459034785  1.0000
  O   O8        1.0  0.5373736741743897  0.5667064207724907  0.8275063102199524  1.0000
  O   O9        1.0  0.8003755726707457  0.017996185667740902  0.34048823129467815  1.0000
  O   O10       1.0  0.15886016014381  0.48194533989087074  0.15959646346072984  1.0000
  O   O11       1.0  0.19962598605288667  0.9820022120124393  0.6595122178091515  1.0000
  O   O12       1.0  0.8411395002417236  0.5180530571729208  0.8404045200506403  1.0000
  O   O13       1.0  0.5901651567429841  0.8159972918583663  0.5233624679866934  1.0000
  O   O14       1.0  0.9296082204713729  0.6839152390057495  0.9766221356772886  1.0000
  O   O15       1.0  0.4098295182107279  0.18400519844035307  0.4766369856738777  1.0000
  O   O16       1.0  0.07039112219299423  0.3160831592972572  0.02337780668636209  1.0000
  O   O17       1.0  0.7911632447999393  0.7357864495151389  0.6359132012152244  1.0000
  O   O18       1.0  0.16291025052123587  0.7642040096431303  0.8641516856004827  1.0000
  O   O19       1.0  0.20883342610644476  0.26421501956401994  0.36408486932520384  1.0000
  O   O20       1.0  0.8370881638571038  0.23579745664616783  0.1358487206054803  1.0000
  O   O21       1.0  0.34379264095223044  0.19512651991379226  0.15846631114862925  1.0000
  O   O22       1.0  0.6973430775676164  0.30486545769997514  0.3415409242896175  1.0000
  O   O23       1.0  0.6562065637345784  0.8048749473033113  0.841533307279704  1.0000
  O   O24       1.0  0.30265802545729076  0.6951360101335241  0.6584581597311683  1.0000
  O   O25       1.0  0.6416735163934177  0.0680647777678232  0.11741255699489975  1.0000
  O   O26       1.0  0.8271015496337814  0.4320101654974736  0.38250415232209883  1.0000
  O   O27       1.0  0.35832679632302006  0.931936689137871  0.8825873148035156  1.0000
  O   O28       1.0  0.17290066142075497  0.567991302024609  0.6174951850687762  1.0000
