data_image0
_chemical_formula_structural       Cd2H48C48N8O12
_chemical_formula_sum              "Cd2 H48 C48 N8 O12"
_cell_length_a       10.207589497115276
_cell_length_b       11.539831209195883
_cell_length_c       12.118538963470789
_cell_angle_alpha    118.43263232204049
_cell_angle_beta     114.90278656794503
_cell_angle_gamma    89.99982171562765

_space_group_name_H-M_alt    "P 1"
_space_group_IT_number       1

loop_
  _space_group_symop_operation_xyz
  'x, y, z'

loop_
  _atom_site_type_symbol
  _atom_site_label
  _atom_site_symmetry_multiplicity
  _atom_site_fract_x
  _atom_site_fract_y
  _atom_site_fract_z
  _atom_site_occupancy
  Cd  Cd1       1.0  0.8992338481302083  0.49992602853983925  0.9999262392193558  1.0000
  Cd  Cd2       1.0  0.3992325422760103  0.5000000853445669  0.9999264527532219  1.0000
  H   H1        1.0  0.5843126849691487  0.5035631936478637  0.6274892671722511  1.0000
  H   H2        1.0  0.9574102852457856  0.49649942136840497  0.3727943364898607  1.0000
  H   H3        1.0  0.08431245748057141  0.1239296518354962  0.6274870013852905  1.0000
  H   H4        1.0  0.4574129148768193  0.8762913051299532  0.37279606731715376  1.0000
  H   H5        1.0  0.2412679183292498  0.27040195545442464  0.611180669501323  1.0000
  H   H6        1.0  0.6305500725599629  0.7295120376403047  0.3888778829236017  1.0000
  H   H7        1.0  0.7412645421134768  0.3407771465109234  0.611181803295139  1.0000
  H   H8        1.0  0.13054791802159124  0.6593688628624148  0.3888787073024886  1.0000
  H   H9        1.0  0.05228137348343862  0.2708813499106668  0.39882779568711874  1.0000
  H   H10       1.0  0.6536755115349068  0.728940804231989  0.6011322982964913  1.0000
  H   H11       1.0  0.5522811774106913  0.1279441952732583  0.3988266198596336  1.0000
  H   H12       1.0  0.1536757568612543  0.8721958478532554  0.6011338276779908  1.0000
  H   H13       1.0  0.3959520330780464  0.5087927642973112  0.41853326115698036  1.0000
  H   H14       1.0  0.9778821670850206  0.49124871193990305  0.5816357574020258  1.0000
  H   H15       1.0  0.8959550874415925  0.9097424540878191  0.4185299663625131  1.0000
  H   H16       1.0  0.4778841825760339  0.09038693968817307  0.581637377567418  1.0000
  H   H17       1.0  0.14784815719407624  0.7131497971339299  0.010922022680439555  1.0000
  H   H18       1.0  0.13678923632209464  0.2865621693794154  0.9892001289164511  1.0000
  H   H19       1.0  0.6478501933377032  0.2977754985084289  0.010924528494172128  1.0000
  H   H20       1.0  0.6367922136670359  0.7026377486081543  0.9891999943709493  1.0000
  H   H21       1.0  0.8742359813840751  0.8045876651839234  0.20612818924543322  1.0000
  H   H22       1.0  0.6680355092773026  0.19540623016170847  0.7936148841000374  1.0000
  H   H23       1.0  0.37423551677327543  0.4015395084120357  0.20612785737088762  1.0000
  H   H24       1.0  0.16803655389584551  0.5982110009693216  0.7936173904723915  1.0000
  H   H25       1.0  0.0643430022129721  0.04775410422360688  0.3079670864830177  1.0000
  H   H26       1.0  0.7560807059838268  0.9521394350935353  0.6915763575919415  1.0000
  H   H27       1.0  0.5643429790560576  0.2602124973551696  0.30796753754614775  1.0000
  H   H28       1.0  0.2560825923652885  0.7394397715073139  0.6915816110563923  1.0000
  H   H29       1.0  0.3324929843090417  0.9475776393248052  0.15920756792984753  1.0000
  H   H30       1.0  0.17311604926879914  0.0522740559867572  0.8408224661999242  1.0000
  H   H31       1.0  0.8324939033694677  0.21162866366655209  0.15920915772046856  1.0000
  H   H32       1.0  0.6731157375050218  0.7885481733038872  0.8408210785013921  1.0000
  H   H33       1.0  0.3034221185293688  0.08650370327665509  0.2906886084036699  1.0000
  H   H34       1.0  0.012641035629378967  0.9133494365246263  0.7091538636409923  1.0000
  H   H35       1.0  0.803421300339892  0.2041844255094105  0.29068935047583017  1.0000
  H   H36       1.0  0.5126399427572325  0.7958027190523251  0.7091523728227499  1.0000
  H   H37       1.0  0.2741918057747199  0.12702395486032708  0.10131217272254392  1.0000
  H   H38       1.0  0.1725298329130709  0.8725542852485899  0.8983053303945995  1.0000
  H   H39       1.0  0.7741913194586375  0.9742871714262336  0.10131284369218475  1.0000
  H   H40       1.0  0.6725299334909352  0.025752139800125903  0.8983073407145811  1.0000
  H   H41       1.0  0.10586243445616358  0.11681819043843689  0.10774515425313069  1.0000
  H   H42       1.0  0.9979205400787664  0.8829490956353607  0.892211347063622  1.0000
  H   H43       1.0  0.6058614970791111  0.9909263863695655  0.10774416191380694  1.0000
  H   H44       1.0  0.49791898927879424  0.009262043332825  0.8922103884026811  1.0000
  H   H45       1.0  0.14060133544282397  0.441842840530903  0.24935528863031922  1.0000
  H   H46       1.0  0.8913382075688859  0.5581112096448494  0.7507751197850328  1.0000
  H   H47       1.0  0.6406042587121379  0.8075106262713234  0.24935680710829192  1.0000
  H   H48       1.0  0.3913387896082128  0.19266522295185246  0.7507749154553595  1.0000
  C   C1        1.0  0.5423059481417596  0.3901670323133429  0.7623052565587755  1.0000
  C   C2        1.0  0.7803909565265172  0.6097733467060066  0.23776113973881507  1.0000
  C   C3        1.0  0.042303382043854816  0.37213865060015644  0.7623053115612349  1.0000
  C   C4        1.0  0.280389288086873  0.6279866414427318  0.23776128298230506  1.0000
  C   C5        1.0  0.4269050995820721  0.3831518231482463  0.6308065817863451  1.0000
  C   C6        1.0  0.7966856694384461  0.6168997429795695  0.36938689171714145  1.0000
  C   C7        1.0  0.9269017107629766  0.24765393789458298  0.6308061697335177  1.0000
  C   C8        1.0  0.29668496933360444  0.7524875774363051  0.36938743234573923  1.0000
  C   C9        1.0  0.4677356638422125  0.45024289549365193  0.5747212898437439  1.0000
  C   C10       1.0  0.893567868868587  0.5498260122425905  0.42551918278855555  1.0000
  C   C11       1.0  0.9677335440092989  0.12447926179070379  0.5747222868047288  1.0000
  C   C12       1.0  0.3935663649180939  0.8756928857122261  0.425517964183264  1.0000
  C   C13       1.0  0.2760136634711046  0.31819615623653147  0.5657638431712683  1.0000
  C   C14       1.0  0.7107968500948232  0.6818395653646192  0.43441131451483983  1.0000
  C   C15       1.0  0.776010254948531  0.24756553455166144  0.5657609633455678  1.0000
  C   C16       1.0  0.21079635611129532  0.7525724204837587  0.4344117624753991  1.0000
  C   C17       1.0  0.16987733767640378  0.31863282415964983  0.44732147372886294  1.0000
  C   C18       1.0  0.7230054225599005  0.6813893756357883  0.5528188160615171  1.0000
  C   C19       1.0  0.6698746211743085  0.12868861091092038  0.4473203996572011  1.0000
  C   C20       1.0  0.2230044562650094  0.8714327417485989  0.5528194264088527  1.0000
  C   C21       1.0  0.3622527341788171  0.45282516214404467  0.45754964695842665  1.0000
  C   C22       1.0  0.9051912908838204  0.5472736934164075  0.5427232096404071  1.0000
  C   C23       1.0  0.8622530868219799  0.0047244257887228995  0.45754743146135013  1.0000
  C   C24       1.0  0.4051893551347375  0.9954501031895758  0.5427207316635858  1.0000
  C   C25       1.0  0.21143727798693132  0.38556902794541503  0.39116357023833354  1.0000
  C   C26       1.0  0.8206633457519318  0.6144631235479919  0.6090507405912646  1.0000
  C   C27       1.0  0.7114370824906259  0.005592142841720699  0.3911605061356979  1.0000
  C   C28       1.0  0.3206608734682064  0.9945892812496028  0.6090485961077476  1.0000
  C   C29       1.0  0.09679201544069836  0.7704783807126886  0.07541787160776889  1.0000
  C   C30       1.0  0.021233044284777233  0.22928781988767352  0.9246220831649125  1.0000
  C   C31       1.0  0.596794059149282  0.3049405988096652  0.07542005199967854  1.0000
  C   C32       1.0  0.5212329265397244  0.6953337034264352  0.9246210111126558  1.0000
  C   C33       1.0  0.9582169112884813  0.8232334530493477  0.1801604832115517  1.0000
  C   C34       1.0  0.7779479090398383  0.1766573952153934  0.81966775375097  1.0000
  C   C35       1.0  0.4582202597425749  0.3569279391325678  0.18016181356090039  1.0000
  C   C36       1.0  0.2779488626013702  0.6430118439415508  0.8196709255068059  1.0000
  C   C37       1.0  0.04999685305381266  0.9430518888412321  0.22993462772733858  1.0000
  C   C38       1.0  0.819851377312645  0.056802334668795085  0.7697707233996668  1.0000
  C   C39       1.0  0.5499999774988069  0.2868834687428929  0.2299352707090776  1.0000
  C   C40       1.0  0.31985551063043255  0.7129696820365794  0.7697771182646278  1.0000
  C   C41       1.0  0.24873915135709274  0.0018816590442227994  0.1787235105084477  1.0000
  C   C42       1.0  0.0698065206335485  0.9978853222508376  0.8211509372248288  1.0000
  C   C43       1.0  0.7487392922324858  0.17683908361466646  0.17872274578515865  1.0000
  C   C44       1.0  0.5698060918084169  0.8232653204541122  0.8211497831687565  1.0000
  C   C45       1.0  0.18174314315457002  0.05578626489283779  0.07900854627356321  1.0000
  C   C46       1.0  0.10252231604677332  0.9438850235312871  0.9208003056467008  1.0000
  C   C47       1.0  0.6817413252920446  0.023220838506624396  0.07900759487470313  1.0000
  C   C48       1.0  0.6025213745106157  0.9769146188957761  0.9207995626522986  1.0000
  N   N1        1.0  0.9883674616493324  0.7167532252970756  0.08376801977062333  1.0000
  N   N2        1.0  0.9044974668874346  0.2830819916560117  0.9162329052170508  1.0000
  N   N3        1.0  0.48837137916150664  0.3670188046224964  0.08377384771161196  1.0000
  N   N4        1.0  0.4044998635541787  0.6331515358256039  0.9162337923876578  1.0000
  N   N5        1.0  0.13698667054097782  0.9076642104859828  0.16269404430382653  1.0000
  N   N6        1.0  0.9740853651774373  0.0921126016811726  0.8371888083829191  1.0000
  N   N7        1.0  0.636986562339331  0.2550293917955599  0.1626951183454892  1.0000
  N   N8        1.0  0.4740864908935762  0.7450765374429692  0.8371902726963185  1.0000
  O   O1        1.0  0.5047828543924028  0.3351472428673645  0.8187217895088778  1.0000
  O   O2        1.0  0.68659041094854  0.66494510831874  0.18146682049491145  1.0000
  O   O3        1.0  0.004781123668500724  0.4835754407879094  0.8187224161990159  1.0000
  O   O4        1.0  0.18658959968593794  0.5165219180790854  0.18146712897546274  1.0000
  O   O5        1.0  0.6749043973906195  0.45439236233161034  0.8133516637427007  1.0000
  O   O6        1.0  0.8616951689462342  0.5452542150977209  0.18652580880938535  1.0000
  O   O7        1.0  0.17490350010034925  0.3589568976240614  0.8133500142298047  1.0000
  O   O8        1.0  0.36169302330903724  0.6412701858897591  0.1865252146105688  1.0000
  O   O9        1.0  0.10319282575236602  0.38290820932594727  0.2762049226105106  1.0000
  O   O10       1.0  0.8271255036225541  0.6170795341818761  0.723892821285503  1.0000
  O   O11       1.0  0.6031916754822646  0.8932943525081853  0.2762017473610926  1.0000
  O   O12       1.0  0.3271267992560496  0.1068140175816339  0.7238943480421796  1.0000
