data_image0
_chemical_formula_structural       Cd4H56C28S8N16O16
_chemical_formula_sum              "Cd4 H56 C28 S8 N16 O16"
_cell_length_a       7.660213941453622
_cell_length_b       11.362744703
_cell_length_c       16.0
_cell_angle_alpha    90.0
_cell_angle_beta     100.35103580110905
_cell_angle_gamma    90.0

_space_group_name_H-M_alt    "P 1"
_space_group_IT_number       1

loop_
  _space_group_symop_operation_xyz
  'x, y, z'

loop_
  _atom_site_type_symbol
  _atom_site_label
  _atom_site_symmetry_multiplicity
  _atom_site_fract_x
  _atom_site_fract_y
  _atom_site_fract_z
  _atom_site_occupancy
  Cd  Cd1       1.0  0.8650944790612558  0.4936791370943113  0.019149079919529313  1.0000
  Cd  Cd2       1.0  0.8650958061049538  0.5063230892163801  0.5191491940764692  1.0000
  Cd  Cd3       1.0  0.4499673421645412  0.9920173597690649  0.7018633906586942  1.0000
  Cd  Cd4       1.0  0.4499673421645412  0.0079822263344553  0.2018633906586942  1.0000
  H   H1        1.0  0.829171406135224  0.9000325420758487  0.11628322645567121  1.0000
  H   H2        1.0  0.8291727331789218  0.09996704402767162  0.6162827156126198  1.0000
  H   H3        1.0  0.0417939142494461  0.8389108660941105  0.1248796337824345  1.0000
  H   H4        1.0  0.0417952412931442  0.1610904801475215  0.6248803729393799  1.0000
  H   H5        1.0  0.6010088018725241  0.8321008917417387  0.0072721306678786984  1.0000
  H   H6        1.0  0.6010114559599204  0.16789957443084091  0.5072723589817656  1.0000
  H   H7        1.0  0.655270291672025  0.7233322770888294  0.9352886439356496  1.0000
  H   H8        1.0  0.6552729457594213  0.27666906915280987  0.4352882472495381  1.0000
  H   H9        1.0  0.6950962001161756  0.05542146870850221  0.03634398297069202  1.0000
  H   H10       1.0  0.6950948730724775  0.9445781173950252  0.5363438688137521  1.0000
  H   H11       1.0  0.7307326316032672  0.08960071062154641  0.9333064285347206  1.0000
  H   H12       1.0  0.7307313045595691  0.910398875481981  0.4333069393777791  1.0000
  H   H13       1.0  0.843754289341142  0.1623639400710033  0.15050332210913814  1.0000
  H   H14       1.0  0.843754289341142  0.8376347659634648  0.6505033221091381  1.0000
  H   H15       1.0  0.9613834428011856  0.2927848936992845  0.1322546935918112  1.0000
  H   H16       1.0  0.9613834428011856  0.7072146924042358  0.6322540685918057  1.0000
  H   H17       1.0  0.2986272976243356  0.363892713255126  0.9134464653371879  1.0000
  H   H18       1.0  0.2986299517117317  0.6361068728483943  0.4134454436510708  1.0000
  H   H19       1.0  0.22763178678319215  0.4920351680984184  0.9569885580103445  1.0000
  H   H20       1.0  0.2276357679142862  0.5079635379360496  0.4569870254811761  1.0000
  H   H21       1.0  0.2309586853360344  0.6001287697856696  0.8187341244680013  1.0000
  H   H22       1.0  0.2309586853360344  0.39987081631785776  0.318732249468006  1.0000
  H   H23       1.0  0.317102399998781  0.4744733900935572  0.7771113833062984  1.0000
  H   H24       1.0  0.317102399998781  0.5255261960099702  0.277109508306296  1.0000
  H   H25       1.0  0.0407362604215109  0.36047364497405004  0.7976599006983704  1.0000
  H   H26       1.0  0.0407375874652161  0.6395268211985297  0.2976593898553119  1.0000
  H   H27       1.0  0.9491056345000572  0.49238807578971944  0.8276672635494151  1.0000
  H   H28       1.0  0.9491069615437553  0.5076115103138008  0.3276673777063621  1.0000
  H   H29       1.0  0.6607284224051142  0.21955082730507774  0.7830181714447662  1.0000
  H   H30       1.0  0.6607270953614162  0.7804487587984498  0.2830180572878263  1.0000
  H   H31       1.0  0.7143277173989233  0.32990004598187284  0.7119370953976656  1.0000
  H   H32       1.0  0.7143263903552253  0.6700986600525951  0.21193698124072574  1.0000
  H   H33       1.0  0.2710672540880239  0.3400261205358177  0.5969700289320414  1.0000
  H   H34       1.0  0.2710659270443259  0.6599743456367619  0.096969289775096  1.0000
  H   H35       1.0  0.483475195558789  0.40093922015137917  0.6048158534851495  1.0000
  H   H36       1.0  0.483472541471393  0.5990594858830889  0.1048156251712626  1.0000
  H   H37       1.0  0.35732244042147  0.790885497729022  0.5895256269535949  1.0000
  H   H38       1.0  0.35732244042147  0.20911320830543906  0.08952625195359332  1.0000
  H   H39       1.0  0.4748042920309459  0.660336934087674  0.5714787020155256  1.0000
  H   H40       1.0  0.4748042920309459  0.33966177194679403  0.0714780770155272  1.0000
  H   H41       1.0  0.5878551447301916  0.588079744345201  0.7886824820426952  1.0000
  H   H42       1.0  0.5878551447301916  0.41192072182737866  0.2886812320426984  1.0000
  H   H43       1.0  0.6251052613550103  0.5543026939905715  0.6858199924501704  1.0000
  H   H44       1.0  0.6251039343113123  0.4456977721820081  0.18581925329323212  1.0000
  H   H45       1.0  0.020736384837171308  0.8654977522643393  0.8056644414010421  1.0000
  H   H46       1.0  0.020736384837171308  0.1345018338391881  0.3056650664010405  1.0000
  H   H47       1.0  0.08793256956870013  0.997193925954214  0.7653655173982941  1.0000
  H   H48       1.0  0.08793256956870013  0.0028039000112017  0.2653661423982925  1.0000
  H   H49       1.0  0.0739004094977744  0.0980159309313677  0.9062309218764355  1.0000
  H   H50       1.0  0.0739017365414796  0.9019827751031003  0.4062316610333738  1.0000
  H   H51       1.0  0.0006502514124023  0.9656328894816327  0.9446696869023725  1.0000
  H   H52       1.0  0.0006515784561003001  0.0343666966218876  0.4446704260593179  1.0000
  H   H53       1.0  0.2874681871612737  0.8671197195338395  0.9196033945982691  1.0000
  H   H54       1.0  0.2874681871612737  0.1328798665696809  0.4196027695982707  1.0000
  H   H55       1.0  0.3638607847253681  0.005877101153416201  0.8932230782148238  1.0000
  H   H56       1.0  0.3638621117690662  0.994122484950104  0.3932238173717693  1.0000
  C   C1        1.0  0.4979824372738761  0.49292755812081174  0.9432506921928265  1.0000
  C   C2        1.0  0.4979837643175742  0.507072908051768  0.44324955634976965  1.0000
  C   C3        1.0  0.306456855447145  0.4607715949666371  0.910169366304558  1.0000
  C   C4        1.0  0.3064595095345482  0.5392279911368902  0.4101677196184426  1.0000
  C   C5        1.0  0.2309228551561731  0.5035015878240685  0.820987917230525  1.0000
  C   C6        1.0  0.2309241821998711  0.4964979982794588  0.3209867813874681  1.0000
  C   C7        1.0  0.0444201337293322  0.4567725611779069  0.7899936753738643  1.0000
  C   C8        1.0  0.0444214607730302  0.5432270249256135  0.28999378953081123  1.0000
  C   C9        1.0  0.9712088743469709  0.48267915396814237  0.6976967866023855  1.0000
  C   C10       1.0  0.9712088743469709  0.5173213122044373  0.19769616160238712  1.0000
  C   C11       1.0  0.8608386499192662  0.7754464462863169  0.0258098536013307  1.0000
  C   C12       1.0  0.8608399769629643  0.22455754016248622  0.5258112177582746  1.0000
  C   C13       1.0  0.8413244723286724  0.2049698431915914  0.026198675745362728  1.0000
  C   C14       1.0  0.8413271264160684  0.795029742911929  0.5261989040592496  1.0000
  C   C15       1.0  0.817395220352232  0.9927522174305068  0.7782045727379696  1.0000
  C   C16       1.0  0.817395220352232  0.0072447284658494  0.278205197737968  1.0000
  C   C17       1.0  0.0095454253253422  0.9619321991027547  0.8111486308954738  1.0000
  C   C18       1.0  0.0095454253253422  0.0380665069317132  0.3111486308954738  1.0000
  C   C19       1.0  0.08282345132838743  0.0018587058454642  0.9012853881653484  1.0000
  C   C20       1.0  0.08282477837208553  0.9981400001890038  0.4012861273222939  1.0000
  C   C21       1.0  0.2738858949042396  0.9621671775406071  0.9302731232802941  1.0000
  C   C22       1.0  0.2738858949042396  0.0378315284938608  0.4302731232802941  1.0000
  C   C23       1.0  0.34623100918704364  0.9854221222662645  0.02304337821880151  1.0000
  C   C24       1.0  0.3462336632744468  0.014576583768203501  0.5230436065326884  1.0000
  C   C25       1.0  0.4538131148036086  0.2745252209333202  0.6944423424813095  1.0000
  C   C26       1.0  0.4538117877599107  0.7254752452392594  0.1944416033243641  1.0000
  C   C27       1.0  0.4772911719224666  0.7033335878689613  0.6956988821278713  1.0000
  C   C28       1.0  0.4772924989661647  0.2966677583726778  0.1956977462848144  1.0000
  S   S1        1.0  0.0157201596557712  0.6856547606797038  0.9892429281541482  1.0000
  S   S2        1.0  0.0157228137431673  0.31434746563098775  0.4892450314680374  1.0000
  S   S3        1.0  0.9137040897476467  0.2969106574320294  0.9529518987644039  1.0000
  S   S4        1.0  0.9137080708787408  0.7030915688786621  0.452950991235241  1.0000
  S   S5        1.0  0.2995655175193761  0.1843797475663465  0.7312252992963266  1.0000
  S   S6        1.0  0.2995641904756711  0.8156198385371739  0.2312245601393812  1.0000
  S   S7        1.0  0.4039043283361181  0.7952453598305596  0.7687227639886203  1.0000
  S   S8        1.0  0.40390565537981626  0.20475334620390842  0.2687228781455673  1.0000
  N   N1        1.0  0.9144220203886846  0.8460535065495095  0.0919861576709096  1.0000
  N   N2        1.0  0.9144233474323826  0.1539478396921297  0.5919868968278479  1.0000
  N   N3        1.0  0.6928203201727641  0.7763995610735464  0.9866025788123807  1.0000
  N   N4        1.0  0.6928216472164621  0.22360266523713793  0.4866026929693277  1.0000
  N   N5        1.0  0.7427503393394375  0.1120987959593691  0.9964321088161654  1.0000
  N   N6        1.0  0.7427516663831355  0.8879016702132105  0.4964322229731124  1.0000
  N   N7        1.0  0.8800476074591331  0.22421871357607165  0.10955727536025961  1.0000
  N   N8        1.0  0.8800489345028313  0.7757817525965082  0.6095567645172011  1.0000
  N   N9        1.0  0.6226489034685658  0.2739610966686712  0.7324824379475245  1.0000
  N   N10       1.0  0.6226475764248605  0.7260384894348563  0.2324816987905862  1.0000
  N   N11       1.0  0.3988376754941641  0.3467524883279083  0.6294044127778733  1.0000
  N   N12       1.0  0.398836348450466  0.6532470977756191  0.1294036736209279  1.0000
  N   N13       1.0  0.4389210304158766  0.7225076523837118  0.6123500232599781  1.0000
  N   N14       1.0  0.4389210304158766  0.2774919337198085  0.1123493982599797  1.0000
  N   N15       1.0  0.5764797261442354  0.6107582438394276  0.7255970537219696  1.0000
  N   N16       1.0  0.5764783991005373  0.3892431024022116  0.2255956895650257  1.0000
  O   O1        1.0  0.5598969880842546  0.46666717757022275  0.021572423554467  1.0000
  O   O2        1.0  0.5598996421716509  0.5333324085333047  0.5215714018683499  1.0000
  O   O3        1.0  0.5950065832229328  0.5411263000898572  0.8968526738118783  1.0000
  O   O4        1.0  0.5950118913977251  0.4588759262208342  0.3968518804396552  1.0000
  O   O5        1.0  0.0547631123176444  0.5499824349965436  0.6551227895924541  1.0000
  O   O6        1.0  0.0547631123176444  0.45001715110698376  0.1551227895924541  1.0000
  O   O7        1.0  0.8239999168410748  0.4338450021409415  0.6637283568463772  1.0000
  O   O8        1.0  0.823998589797377  0.5661554640316382  0.1637282426894373  1.0000
  O   O9        1.0  0.755313462035808  0.9650837263909298  0.7001734576014371  1.0000
  O   O10       1.0  0.7553147890795061  0.03491321950542671  0.2001735717583841  1.0000
  O   O11       1.0  0.7207612252506195  0.0418842464949805  0.8244055282603497  1.0000
  O   O12       1.0  0.7207612252506195  0.9581162196775992  0.324407403260345  1.0000
  O   O13       1.0  0.2631686899928738  0.05276806050581231  0.0658918168035996  1.0000
  O   O14       1.0  0.2631700170365718  0.9472315255977082  0.5658919309605466  1.0000
  O   O15       1.0  0.4921354827370409  0.9351024138731818  0.05694209169922711  1.0000
  O   O16       1.0  0.4921354827370409  0.0648989323684503  0.5569414666992287  1.0000
