data_image0
_chemical_formula_structural       Ag4H36C24N20O8
_chemical_formula_sum              "Ag4 H36 C24 N20 O8"
_cell_length_a       9.231630966594048
_cell_length_b       9.760871855221378
_cell_length_c       11.213788123640974
_cell_angle_alpha    89.99986836089677
_cell_angle_beta     111.231168570989
_cell_angle_gamma    90.00075243908393

_space_group_name_H-M_alt    "P 1"
_space_group_IT_number       1

loop_
  _space_group_symop_operation_xyz
  'x, y, z'

loop_
  _atom_site_type_symbol
  _atom_site_label
  _atom_site_symmetry_multiplicity
  _atom_site_fract_x
  _atom_site_fract_y
  _atom_site_fract_z
  _atom_site_occupancy
  Ag  Ag1       1.0  0.24999536562345523  0.19634433282904956  0.2500016291923473  1.0000
  Ag  Ag2       1.0  0.7500063502737432  0.8036613669799025  0.7499982636734188  1.0000
  Ag  Ag3       1.0  0.7500016986802223  0.4969449132851055  0.7500025316731609  1.0000
  Ag  Ag4       1.0  0.24999768984132933  0.503061811007868  0.24999755423366574  1.0000
  H   H1        1.0  0.0784160838413399  0.969942221704848  0.23419489831131565  1.0000
  H   H2        1.0  0.4215676597103267  0.969938152217836  0.2658153798782479  1.0000
  H   H3        1.0  0.9215926744413563  0.030049135189472106  0.7657874900432874  1.0000
  H   H4        1.0  0.5784223365869889  0.030053204506110404  0.7342086392069477  1.0000
  H   H5        1.0  0.9396433649171813  0.043177793621886514  0.29132060739088667  1.0000
  H   H6        1.0  0.5603376655182116  0.04317658417115669  0.20868725269686908  1.0000
  H   H7        1.0  0.06037348994122739  0.9568084408119972  0.7086749128600901  1.0000
  H   H8        1.0  0.4396384236078177  0.9568096499931613  0.7913218900558692  1.0000
  H   H9        1.0  0.8805552003461088  0.9123622351498925  0.17291374917219562  1.0000
  H   H10       1.0  0.619429625623809  0.9123573473435229  0.32709079594113893  1.0000
  H   H11       1.0  0.11945354525585117  0.0876321952356136  0.8270722024228476  1.0000
  H   H12       1.0  0.38056039927263896  0.08763605838839081  0.6729252058641393  1.0000
  H   H13       1.0  0.7890903861450766  0.31599972665706844  0.3694211454005016  1.0000
  H   H14       1.0  0.7109052828322715  0.3160087771418603  0.1305700404393093  1.0000
  H   H15       1.0  0.210914847660959  0.6839844587123309  0.6305708860011165  1.0000
  H   H16       1.0  0.28908598997294627  0.6839918001193226  0.869422258412179  1.0000
  H   H17       1.0  0.7966248210190869  0.4971598182060079  0.370615494600024  1.0000
  H   H18       1.0  0.7033770229578523  0.49716877879287596  0.12938787541287414  1.0000
  H   H19       1.0  0.20337687884406816  0.5028253916240929  0.629388852286219  1.0000
  H   H20       1.0  0.2966223623414663  0.5028317985070389  0.8706131012955185  1.0000
  H   H21       1.0  0.07157068325295769  0.4157879450907205  0.8967942359162964  1.0000
  H   H22       1.0  0.42842957840098705  0.4157925820985114  0.6032064186666233  1.0000
  H   H23       1.0  0.9284321947633528  0.5842198037222418  0.10320600583668234  1.0000
  H   H24       1.0  0.5715674859440155  0.5842182401756162  0.39679296947590365  1.0000
  H   H25       1.0  0.21753170962775667  0.332067957874628  0.02559109795274849  1.0000
  H   H26       1.0  0.2824657320077932  0.33207084459613884  0.47440854661420684  1.0000
  H   H27       1.0  0.7824688473262852  0.6679356929315006  0.9744075552166367  1.0000
  H   H28       1.0  0.7175371364651894  0.6679348552159752  0.5255943675637269  1.0000
  H   H29       1.0  0.5520632247382338  0.34292660492720023  0.831449701240679  1.0000
  H   H30       1.0  0.947937854384122  0.34293028720851043  0.6685549813926812  1.0000
  H   H31       1.0  0.447943123663066  0.6570749969081151  0.16855604120456044  1.0000
  H   H32       1.0  0.052061537297973394  0.6570743880883613  0.33144421370245425  1.0000
  H   H33       1.0  0.5086147372584618  0.21868218841340342  0.9260798984834366  1.0000
  H   H34       1.0  0.9913833032630063  0.21868153259691075  0.5739259097586995  1.0000
  H   H35       1.0  0.4913858196724519  0.7813183888967856  0.07391875468215402  1.0000
  H   H36       1.0  0.008620711356741098  0.7813139222295293  0.4260818073370558  1.0000
  C   C1        1.0  0.9898008482852206  0.276653255148247  0.9924507974338754  1.0000
  C   C2        1.0  0.5101945912673642  0.27666117361781073  0.5075505442267243  1.0000
  C   C3        1.0  0.010203198171303999  0.7233524446765217  0.0075480115829406995  1.0000
  C   C4        1.0  0.48980478460428867  0.7233527221609466  0.4924531049256089  1.0000
  C   C5        1.0  0.7333962172202817  0.2254800762811869  0.944517329820151  1.0000
  C   C6        1.0  0.7666007826308955  0.22548693775277687  0.555482801495316  1.0000
  C   C7        1.0  0.26661015338965643  0.774518452066488  0.055482176957163176  1.0000
  C   C8        1.0  0.23339511957185974  0.774518762021394  0.4445162377561971  1.0000
  C   C9        1.0  0.9157200664553145  0.10759324413468362  0.10356888108686489  1.0000
  C   C10       1.0  0.5842689315747265  0.10759081395975305  0.3964341050626032  1.0000
  C   C11       1.0  0.08428864105817269  0.8924042597325301  0.8964277602219042  1.0000
  C   C12       1.0  0.41572345567155367  0.8924066897944133  0.6035719048071828  1.0000
  C   C13       1.0  0.9566853092074865  0.0015423855403185003  0.20604967383415138  1.0000
  C   C14       1.0  0.5432974250849013  0.0015397178128467  0.2939569994843723  1.0000
  C   C15       1.0  0.0433257574104786  0.9984499958601563  0.7939378663368829  1.0000
  C   C16       1.0  0.4566867924613191  0.9984526633880151  0.7060563670870651  1.0000
  C   C17       1.0  0.9767980893481788  0.39956622268582015  0.32673695348304205  1.0000
  C   C18       1.0  0.5231976530624037  0.3995666962431841  0.17326032569344116  1.0000
  C   C19       1.0  0.0232036391912018  0.600431281138704  0.6732593761359524  1.0000
  C   C20       1.0  0.47679940485355826  0.6004338810421004  0.82674084405474  1.0000
  C   C21       1.0  0.8089694063209548  0.4049878685483321  0.31845362027414836  1.0000
  C   C22       1.0  0.6910287387579004  0.4049924420581021  0.18154526088768108  1.0000
  C   C23       1.0  0.19103347791621417  0.5950024637900172  0.6815448398389848  1.0000
  C   C24       1.0  0.3089683255099942  0.5950081352295626  0.818454127242184  1.0000
  N   N1        1.0  0.1017256191959959  0.3459233746021368  0.9701193771278867  1.0000
  N   N2        1.0  0.39827591824650443  0.34592783125399523  0.5298809117169441  1.0000
  N   N3        1.0  0.8982726199411459  0.6540853986861564  0.029876796660147358  1.0000
  N   N4        1.0  0.6017269439285258  0.6540850400462687  0.470123784088166  1.0000
  N   N5        1.0  0.5822571086050345  0.25520300059984186  0.8846764142243586  1.0000
  N   N6        1.0  0.9177333691679833  0.25520747384047143  0.6153208064429236  1.0000
  N   N7        1.0  0.41774112414162085  0.7448006501928504  0.1153215411756605  1.0000
  N   N8        1.0  0.08226602252953089  0.7447992504536955  0.3846783886547414  1.0000
  N   N9        1.0  0.8405383359957312  0.299177059641579  0.9168995010946263  1.0000
  N   N10       1.0  0.659456299539336  0.2991855990936401  0.5830962025036329  1.0000
  N   N11       1.0  0.1594575725358212  0.7008255666390257  0.08309775653476952  1.0000
  N   N12       1.0  0.34054658803572113  0.7008262477174655  0.4169013668269343  1.0000
  N   N13       1.0  0.03184256100532679  0.18555726974717152  0.0929000961705597  1.0000
  N   N14       1.0  0.4681491731496691  0.18555647893008853  0.40710259362417395  1.0000
  N   N15       1.0  0.9681614949482548  0.8144443320865662  0.9070960404137054  1.0000
  N   N16       1.0  0.531846706813603  0.8144481963371321  0.5929026812901981  1.0000
  N   N17       1.0  0.7665428644516225  0.12127459723374301  0.03115367360015135  1.0000
  N   N18       1.0  0.7334475080151818  0.1212789422010232  0.4688479136429535  1.0000
  N   N19       1.0  0.2334588704319813  0.8787218820945174  0.9688408743992554  1.0000
  N   N20       1.0  0.2665495308604022  0.878723684074437  0.5311586009627264  1.0000
  O   O1        1.0  0.011804294929603998  0.48221896332991343  0.250692712130089  1.0000
  O   O2        1.0  0.48819193632301244  0.4822208822788313  0.24930180289375412  1.0000
  O   O3        1.0  0.9881962556725057  0.5177846874738422  0.7493077226576261  1.0000
  O   O4        1.0  0.5118074553745018  0.5177858420153286  0.7506973922039109  1.0000
  O   O5        1.0  0.0712165971338479  0.3202704797496594  0.4053036279776876  1.0000
  O   O6        1.0  0.42878299743844656  0.32026694742614137  0.09469490357022184  1.0000
  O   O7        1.0  0.9287863093813585  0.6797259995888751  0.5946885964789176  1.0000
  O   O8        1.0  0.5712186898056544  0.6797295318843269  0.905313006566594  1.0000
