data_image0
_chemical_formula_structural       Zn4H32C24O32
_chemical_formula_sum              "Zn4 H32 C24 O32"
_cell_length_a       5.985514904002796
_cell_length_b       10.379166463013146
_cell_length_c       13.251659014016926
_cell_angle_alpha    90.00016150822928
_cell_angle_beta     90.00008667225232
_cell_angle_gamma    90.00007673311065

_space_group_name_H-M_alt    "P 1"
_space_group_IT_number       1

loop_
  _space_group_symop_operation_xyz
  'x, y, z'

loop_
  _atom_site_type_symbol
  _atom_site_label
  _atom_site_symmetry_multiplicity
  _atom_site_fract_x
  _atom_site_fract_y
  _atom_site_fract_z
  _atom_site_occupancy
  Zn  Zn1       1.0  0.5872346544849236  0.1674289619664506  0.0500552495570901  1.0000
  Zn  Zn2       1.0  0.9127672318472688  0.8325720176564457  0.5500500965826945  1.0000
  Zn  Zn3       1.0  0.08723428332719149  0.3325737210299948  0.9499486258689277  1.0000
  Zn  Zn4       1.0  0.41276308654774135  0.6674254533118571  0.44994756062949665  1.0000
  H   H1        1.0  0.11250223378706888  0.10149813127225119  0.3001670953761178  1.0000
  H   H2        1.0  0.3874979729517207  0.8985014689243866  0.8001643350576445  1.0000
  H   H3        1.0  0.6124886732790599  0.39849686167139  0.6998375518239471  1.0000
  H   H4        1.0  0.8875103762043252  0.6015075459815903  0.1998385873647309  1.0000
  H   H5        1.0  0.3760651136630245  0.028115663217995697  0.3103967662255799  1.0000
  H   H6        1.0  0.12393345683408089  0.9718830102282965  0.8103947439380195  1.0000
  H   H7        1.0  0.8760500342704773  0.47188433166617466  0.6896012684182509  1.0000
  H   H8        1.0  0.6239539928230896  0.5281171488358536  0.18959894396504506  1.0000
  H   H9        1.0  0.19997592486501498  0.8450413914881167  0.24391838725581047  1.0000
  H   H10       1.0  0.30002576311674994  0.1549560798968344  0.7439259954468158  1.0000
  H   H11       1.0  0.6999819839951014  0.654954966968475  0.7560798800296029  1.0000
  H   H12       1.0  0.800022267023081  0.3450419348026443  0.2560772699018443  1.0000
  H   H13       1.0  0.949652458991089  0.914237880657609  0.19853647619874693  1.0000
  H   H14       1.0  0.5503482567977898  0.08575785110847528  0.6985369699925246  1.0000
  H   H15       1.0  0.4496543025536894  0.5857644334913202  0.8014612060773916  1.0000
  H   H16       1.0  0.0503475792446366  0.41423324441679904  0.3014600887607558  1.0000
  H   H17       1.0  0.6598858641936971  0.9771641614233173  0.9177218709251493  1.0000
  H   H18       1.0  0.8401105778216829  0.022840064809933797  0.4177208386140735  1.0000
  H   H19       1.0  0.15989849108519388  0.5228437305849666  0.08228089687661112  1.0000
  H   H20       1.0  0.3401009817163825  0.47715701449195796  0.5822801900940606  1.0000
  H   H21       1.0  0.5278574108633337  0.9228683747567316  0.13777187524902965  1.0000
  H   H22       1.0  0.9721414295494596  0.07713484665178778  0.6377711272297122  1.0000
  H   H23       1.0  0.027854425100372296  0.577130753545731  0.8622277843593411  1.0000
  H   H24       1.0  0.4721476613901387  0.4228671424741748  0.36222772731177605  1.0000
  H   H25       1.0  0.78080829292427  0.1069401109312267  0.8790835223505626  1.0000
  H   H26       1.0  0.7191880189371176  0.8930620496807292  0.37908282511588015  1.0000
  H   H27       1.0  0.28080862416746294  0.3930665615267514  0.12092048457684262  1.0000
  H   H28       1.0  0.21918763738934635  0.6069352857045017  0.6209184737094022  1.0000
  H   H29       1.0  0.11342976698361437  0.7962255945363594  0.9435484399632303  1.0000
  H   H30       1.0  0.38656758134436586  0.2037803011163533  0.44354934901210913  1.0000
  H   H31       1.0  0.6134335933645544  0.703777447583768  0.05645278702703391  1.0000
  H   H32       1.0  0.886558290319229  0.2962206645987919  0.5564509566366953  1.0000
  C   C1        1.0  0.24085175812093235  0.0232565739684389  0.15982613369115486  1.0000
  C   C2        1.0  0.259151317289934  0.9767463763781309  0.6598242140186699  1.0000
  C   C3        1.0  0.7408472224674583  0.47674718009234596  0.8401763368434491  1.0000
  C   C4        1.0  0.7591539704351291  0.5232529139358206  0.3401763573348263  1.0000
  C   C5        1.0  0.09614740977278297  0.11023640938896047  0.09093442929930973  1.0000
  C   C6        1.0  0.4038420679679787  0.8897624397998597  0.5909293968744296  1.0000
  C   C7        1.0  0.5961478974786446  0.3897624259752916  0.9090686975547728  1.0000
  C   C8        1.0  0.9038568688826982  0.6102350249248686  0.4090690089037282  1.0000
  C   C9        1.0  0.274139043394193  0.0909866775545893  0.2617576082230784  1.0000
  C   C10       1.0  0.22586103396828608  0.9090137482510273  0.7617570252411101  1.0000
  C   C11       1.0  0.7741306510478552  0.40901228247409455  0.7382426210498495  1.0000
  C   C12       1.0  0.7258718691943286  0.5909874456835098  0.23824276888031198  1.0000
  C   C13       1.0  0.380135101066422  0.22353396310546  0.2593769569646299  1.0000
  C   C14       1.0  0.11986830967133237  0.7764654906832148  0.7593737446829751  1.0000
  C   C15       1.0  0.8801263802793569  0.27646988850981563  0.7406233443179036  1.0000
  C   C16       1.0  0.6198644530824424  0.723526957787783  0.24062597742173616  1.0000
  C   C17       1.0  0.12436333532035347  0.8939565447339393  0.17911747274860806  1.0000
  C   C18       1.0  0.3756398050748261  0.1060455113901142  0.6791174777982648  1.0000
  C   C19       1.0  0.6243644764780639  0.6060455415804924  0.8208867801569685  1.0000
  C   C20       1.0  0.87563665143913  0.39395159280022807  0.3208835750474819  1.0000
  C   C21       1.0  0.12540892874950058  0.8026003028094093  0.09074202224313413  1.0000
  C   C22       1.0  0.37459725538465694  0.1974139612136838  0.5907497750628609  1.0000
  C   C23       1.0  0.6254105994910617  0.6974008207595972  0.9092569490143634  1.0000
  C   C24       1.0  0.8745891553832408  0.3025869961200555  0.4092520316997508  1.0000
  O   O1        1.0  0.4520999788019607  0.0043398213377444  0.11191822072931502  1.0000
  O   O2        1.0  0.0478979231348333  0.9956619935862534  0.6119184632951831  1.0000
  O   O3        1.0  0.9521006646297251  0.49565733640586274  0.8880806201905573  1.0000
  O   O4        1.0  0.5479023603342411  0.5043419660958648  0.3880797006898079  1.0000
  O   O5        1.0  0.19581965127549947  0.1665683889715339  0.017437312895332006  1.0000
  O   O6        1.0  0.3041745910010291  0.8334321233587897  0.517435861172409  1.0000
  O   O7        1.0  0.69582191425998  0.33343244314505677  0.9825658816700272  1.0000
  O   O8        1.0  0.8041864410720123  0.666566235024753  0.4825639861454933  1.0000
  O   O9        1.0  0.8949342191624721  0.12314335857639241  0.11619645757100733  1.0000
  O   O10       1.0  0.6050612071555221  0.8768501506983598  0.616191948222621  1.0000
  O   O11       1.0  0.3949437618136855  0.37685183219601726  0.8838046083838479  1.0000
  O   O12       1.0  0.1050617387505426  0.6231451777959691  0.38380097222567866  1.0000
  O   O13       1.0  0.4620143658995913  0.2723267829811817  0.17895918326230034  1.0000
  O   O14       1.0  0.0379854325567166  0.7276733456331853  0.6789573165880328  1.0000
  O   O15       1.0  0.9620074628410649  0.2276771259891888  0.8210426828874092  1.0000
  O   O16       1.0  0.5379936656149198  0.7723219359000596  0.3210461230124437  1.0000
  O   O17       1.0  0.3759351802276427  0.2856431447996215  0.3426405612384755  1.0000
  O   O18       1.0  0.12407018167349548  0.7143517905041249  0.8426364596881799  1.0000
  O   O19       1.0  0.8759226799021673  0.21435299612853945  0.657362001048675  1.0000
  O   O20       1.0  0.6240528366948438  0.7856445147793353  0.15736326527059677  1.0000
  O   O21       1.0  0.1011502878117838  0.8598619592193584  0.002268626720692201  1.0000
  O   O22       1.0  0.3988388912732361  0.14013849866827136  0.5022694776324671  1.0000
  O   O23       1.0  0.6011805131208233  0.6401401108390843  0.9977318373133816  1.0000
  O   O24       1.0  0.8988278932886686  0.35985669482246146  0.4977263086104316  1.0000
  O   O25       1.0  0.1458899103875027  0.6850128530874142  0.10206576421790464  1.0000
  O   O26       1.0  0.3541280067665439  0.3149831456816514  0.6020730087964028  1.0000
  O   O27       1.0  0.6458701223808561  0.8149959925624656  0.897930202463826  1.0000
  O   O28       1.0  0.8541245822611143  0.18500816262571357  0.3979257655621496  1.0000
  O   O29       1.0  0.6490418672637546  0.07237473240649449  0.9145914462578448  1.0000
  O   O30       1.0  0.8509545642014728  0.9276275556505311  0.4145886511857314  1.0000
  O   O31       1.0  0.14905052013880038  0.4276308842883481  0.08541096191581943  1.0000
  O   O32       1.0  0.35094896320784835  0.5723717989593952  0.5854097186605147  1.0000
