data_image0
_chemical_formula_structural       Cu2H18C20N8O8
_chemical_formula_sum              "Cu2 H18 C20 N8 O8"
_cell_length_a       8.120657444468085
_cell_length_b       7.927526609959004
_cell_length_c       11.9316259686239
_cell_angle_alpha    76.55456882694712
_cell_angle_beta     85.60493066085907
_cell_angle_gamma    61.52935983732089

_space_group_name_H-M_alt    "P 1"
_space_group_IT_number       1

loop_
  _space_group_symop_operation_xyz
  'x, y, z'

loop_
  _atom_site_type_symbol
  _atom_site_label
  _atom_site_symmetry_multiplicity
  _atom_site_fract_x
  _atom_site_fract_y
  _atom_site_fract_z
  _atom_site_occupancy
  Cu  Cu1       1.0  0.9442440231408045  0.9899711686019047  0.22994533799153763  1.0000
  Cu  Cu2       1.0  0.055773977267421095  0.010007862622565318  0.7700438659443591  1.0000
  H   H1        1.0  0.32635294355942074  0.7762437324647565  0.5956074131407831  1.0000
  H   H2        1.0  0.673654875765699  0.2237504063101667  0.40439012311595945  1.0000
  H   H3        1.0  0.3035325515579359  0.33944390827586096  0.2788512758616121  1.0000
  H   H4        1.0  0.6964448759674369  0.6605692686512938  0.7211564829377364  1.0000
  H   H5        1.0  0.5627879059066958  0.7325215346419823  0.3921011274612097  1.0000
  H   H6        1.0  0.4372174997911173  0.2674927743373914  0.6079007772145388  1.0000
  H   H7        1.0  0.47335614352586214  0.8329130334849282  0.248234123321076  1.0000
  H   H8        1.0  0.5266318852507438  0.16711887242674817  0.7517717531847126  1.0000
  H   H9        1.0  0.3185890715633022  0.0525286733072363  0.44322964016469507  1.0000
  H   H10       1.0  0.6813974812969905  0.9474891458008512  0.5567809071367689  1.0000
  H   H11       1.0  0.17225836714017367  0.5474339952628497  0.6394082866672475  1.0000
  H   H12       1.0  0.8277530914769567  0.4525602713580028  0.3605907230637797  1.0000
  H   H13       1.0  0.9619822149226424  0.645931941392469  0.4371694298176719  1.0000
  H   H14       1.0  0.038031849335922636  0.3540561915806677  0.5628290332970352  1.0000
  H   H15       1.0  0.8322611693222723  0.4338420930447953  0.09272414543989527  1.0000
  H   H16       1.0  0.16772344929989916  0.566136485771139  0.9072920882703313  1.0000
  H   H17       1.0  0.04606797042775676  0.6102215875715088  0.13015641758470758  1.0000
  H   H18       1.0  0.9538910493882685  0.3897824795449766  0.869855836971105  1.0000
  C   C1        1.0  0.6141281228041322  0.9695116006850597  0.30885043250277266  1.0000
  C   C2        1.0  0.3858846928435113  0.030488244244175212  0.6911465135529226  1.0000
  C   C3        1.0  0.48792084911406175  0.871901765356398  0.32813618858650523  1.0000
  C   C4        1.0  0.5120785426667425  0.1281179041536618  0.6718699614728861  1.0000
  C   C5        1.0  0.29346236060502656  0.9960310524090376  0.373893702445244  1.0000
  C   C6        1.0  0.7065414398245055  0.003969443040858826  0.6261145065325522  1.0000
  C   C7        1.0  0.2062040422959796  0.8690526791432944  0.4271686206640694  1.0000
  C   C8        1.0  0.7938037208055065  0.1309472609672753  0.5728369780220959  1.0000
  C   C9        1.0  0.1608338499170472  0.645511557092952  0.5566575350522809  1.0000
  C   C10       1.0  0.8391816826540789  0.35447899920372095  0.4433378276698008  1.0000
  C   C11       1.0  0.05690838555528892  0.6954630005939891  0.4574345012729565  1.0000
  C   C12       1.0  0.9431060105355658  0.30453011389248985  0.5425671237520787  1.0000
  C   C13       1.0  0.1693239106727731  0.16984745803161164  0.28333613954431053  1.0000
  C   C14       1.0  0.8306664775213335  0.8301556325433666  0.7166671589096366  1.0000
  C   C15       1.0  0.9521845672608935  0.3793696535584203  0.150378384992635  1.0000
  C   C16       1.0  0.04779516345834614  0.6206205093676901  0.8496348581842952  1.0000
  C   C17       1.0  0.05545174016563687  0.46768153692090664  0.16720444670440318  1.0000
  C   C18       1.0  0.9445165905609298  0.5323210977667684  0.8328009004177446  1.0000
  C   C19       1.0  0.8990796838041321  0.08906329498172032  0.9899340458563229  1.0000
  C   C20       1.0  0.10092459821005664  0.910927895045283  0.010044918453296161  1.0000
  N   N1        1.0  0.25387872338395573  0.7559055146906812  0.5359263733897774  1.0000
  N   N2        1.0  0.746129474379508  0.24409058724978644  0.4640741048131502  1.0000
  N   N3        1.0  0.08594726546628102  0.8351873398918456  0.3776293318389888  1.0000
  N   N4        1.0  0.9140607097331  0.164815072018321  0.6223732197985612  1.0000
  N   N5        1.0  0.025346929659818312  0.19358836795856146  0.22282656408586377  1.0000
  N   N6        1.0  0.9746445777932352  0.8064032839344151  0.7771798849334601  1.0000
  N   N7        1.0  0.19064747526844164  0.3338462890936498  0.2509162945045773  1.0000
  N   N8        1.0  0.8093327699962599  0.6661632259853862  0.7490878706298503  1.0000
  O   O1        1.0  0.7704887243915196  0.8712258070908588  0.26555629188925417  1.0000
  O   O2        1.0  0.2295190672460806  0.12876823296116413  0.7344496836218397  1.0000
  O   O3        1.0  0.5618077352348081  0.130339724253119  0.3391090955307163  1.0000
  O   O4        1.0  0.4382102775184721  0.869683079180767  0.6608744235820508  1.0000
  O   O5        1.0  0.806599327715027  0.1354291874102671  0.0793400753266909  1.0000
  O   O6        1.0  0.19342312625077074  0.8645396489691421  0.9206333354049148  1.0000
  O   O7        1.0  0.16099667937446338  0.8218699946266455  0.11206231698194802  1.0000
  O   O8        1.0  0.8390102776984563  0.1781470338449722  0.8879111695380997  1.0000
