data_image0
_chemical_formula_structural       Sr4H56C44O44
_chemical_formula_sum              "Sr4 H56 C44 O44"
_cell_length_a       6.7344194
_cell_length_b       13.684071599438072
_cell_length_c       15.8144
_cell_angle_alpha    104.74322716784961
_cell_angle_beta     90.0
_cell_angle_gamma    90.0

_space_group_name_H-M_alt    "P 1"
_space_group_IT_number       1

loop_
  _space_group_symop_operation_xyz
  'x, y, z'

loop_
  _atom_site_type_symbol
  _atom_site_label
  _atom_site_symmetry_multiplicity
  _atom_site_fract_x
  _atom_site_fract_y
  _atom_site_fract_z
  _atom_site_occupancy
  Sr  Sr1       1.0  0.2586889673072648  0.2617538938990123  0.3983697660024462  1.0000
  Sr  Sr2       1.0  0.7586830722185169  0.2382477076379814  0.6016295433128394  1.0000
  Sr  Sr3       1.0  0.7413111217872768  0.7382447752399202  0.6016310159035073  1.0000
  Sr  Sr4       1.0  0.2413125621490124  0.7617532284684785  0.3983711054580469  1.0000
  H   H1        1.0  0.45625759512393665  0.0896842578906316  0.43924074774593447  1.0000
  H   H2        1.0  0.9562502151261895  0.4103196106138824  0.5607584284342907  1.0000
  H   H3        1.0  0.5437528883336284  0.9103159225599812  0.5607597346249521  1.0000
  H   H4        1.0  0.0437483890593455  0.5896820811484176  0.4392423867366092  1.0000
  H   H5        1.0  0.5660606762923024  0.0663601846874045  0.34673237675033164  1.0000
  H   H6        1.0  0.0660487524730016  0.4336406611937491  0.6532667661649469  1.0000
  H   H7        1.0  0.433946837347257  0.9336399957632153  0.6532681056205549  1.0000
  H   H8        1.0  0.9339498517125335  0.5663587636010234  0.34673165280066354  1.0000
  H   H9        1.0  0.1657143598748831  0.4548949930471551  0.33335874936464194  1.0000
  H   H10       1.0  0.6657099496951417  0.0451043415223111  0.6666406930857038  1.0000
  H   H11       1.0  0.8342857292196582  0.5451044317476175  0.6666447282816678  1.0000
  H   H12       1.0  0.334299048853417  0.9548935719607812  0.33335676074480614  1.0000
  H   H13       1.0  0.1675853452192158  0.37988783856565794  0.24103359381277306  1.0000
  H   H14       1.0  0.6675853897664865  0.1201122516596485  0.7589653827024991  1.0000
  H   H15       1.0  0.832416228784325  0.6201100749174344  0.7589670216931739  1.0000
  H   H16       1.0  0.3324250936910786  0.8798879287909644  0.24103446733330008  1.0000
  H   H17       1.0  0.24336025166475386  0.494392368225661  0.5236496693964343  1.0000
  H   H18       1.0  0.7433662358480362  0.0056077219996524  0.47634993945391824  1.0000
  H   H19       1.0  0.7566353827027752  0.5056085678807989  0.47635161170954643  1.0000
  H   H20       1.0  0.2566323683374989  0.9943901914834399  0.5236475143765846  1.0000
  H   H21       1.0  0.3842706915461775  0.4215924844571362  0.5610231846210142  1.0000
  H   H22       1.0  0.8842722210024547  0.0784098727356977  0.4389775557644527  1.0000
  H   H23       1.0  0.6157264277303581  0.5784092073051639  0.43897889522006045  1.0000
  H   H24       1.0  0.11572192845607528  0.921590307714915  0.5610216619362589  1.0000
  H   H25       1.0  0.2702816518971147  0.0191135588544853  0.8295927492298747  1.0000
  H   H26       1.0  0.7702816964443855  0.48088502005914086  0.17040273280994006  1.0000
  H   H27       1.0  0.7297258617424376  0.9808866215961274  0.17040204212522533  1.0000
  H   H28       1.0  0.2297198775591553  0.5191174273589994  0.8296007781013233  1.0000
  H   H29       1.0  0.7622720972798332  0.2009379561205691  0.9987525143994777  1.0000
  H   H30       1.0  0.2622720527325626  0.2990628897605774  0.0012403051649271892  1.0000
  H   H31       1.0  0.23772502199670234  0.7990675139209318  0.0012440740907707362  1.0000
  H   H32       1.0  0.7377220967259602  0.7009365350341952  0.9987600108059456  1.0000
  H   H33       1.0  0.8146730511022255  0.2717459310909476  0.15791591002954422  1.0000
  H   H34       1.0  0.3146759763729605  0.2282624713486143  0.8420779411998682  1.0000
  H   H35       1.0  0.18532555308331664  0.7282572719830327  0.8420814439308516  1.0000
  H   H36       1.0  0.685324112721581  0.7717429986928863  0.15792307363599184  1.0000
  H   H37       1.0  0.20456403413187726  0.075264077467601  0.049374725282227395  1.0000
  H   H38       1.0  0.704559623952143  0.42472694488760965  0.9506228867680167  1.0000
  H   H39       1.0  0.7954330851446514  0.9247338360154913  0.9506227285482826  1.0000
  H   H40       1.0  0.2954256160523627  0.5752649233487546  0.04937892687819813  1.0000
  H   H41       1.0  0.132863717991782  0.9997432574645089  0.17442349459115292  1.0000
  H   H42       1.0  0.6328667323570583  0.5002555018997299  0.8255743668248031  1.0000
  H   H43       1.0  0.8671363711027595  0.0002546560185834  0.8255739592393496  1.0000
  H   H44       1.0  0.3671392963734944  0.4997446785508828  0.17442738021625104  1.0000
  H   H45       1.0  0.9799538175481002  0.0964012826655818  0.1506582879900122  1.0000
  H   H46       1.0  0.47994486354681226  0.40359880755972455  0.849345747205952  1.0000
  H   H47       1.0  0.0200566659094648  0.9035981421291908  0.8493432926510354  1.0000
  H   H48       1.0  0.5200537406387227  0.5964043955142557  0.1506585624404053  1.0000
  H   H49       1.0  0.7119321971542192  0.3822772223364268  0.3042039230416195  1.0000
  H   H50       1.0  0.2119291827889427  0.1177311801031351  0.69579308986323  1.0000
  H   H51       1.0  0.2880738315763338  0.6177244694258733  0.6957918334485884  1.0000
  H   H52       1.0  0.7880664515785867  0.8822712673150053  0.30421042104803325  1.0000
  H   H53       1.0  0.8658459851787654  0.2734778942796297  0.2839245752568901  1.0000
  H   H54       1.0  0.3658503953585068  0.22652824119241197  0.7160719384479324  1.0000
  H   H55       1.0  0.1341570737337818  0.7265200192034627  0.7160735109087071  1.0000
  H   H56       1.0  0.6341541484630469  0.7734734505698881  0.2839295090580549  1.0000
  C   C1        1.0  0.4534778454695001  0.09556326033737153  0.9195601526461276  1.0000
  C   C2        1.0  0.9534912541978002  0.4044330516087271  0.0804360948638347  1.0000
  C   C3        1.0  0.5465133341710171  0.9044376757690813  0.0804392314545908  1.0000
  C   C4        1.0  0.04651180471474699  0.5955686401535729  0.9195666173123274  1.0000
  C   C5        1.0  0.48148471418338085  0.1338954142083111  0.015067976376926097  1.0000
  C   C6        1.0  0.981486243639651  0.3661054316728354  0.984926740192748  1.0000
  C   C7        1.0  0.5185138900021613  0.8661077888656692  0.9849300099185642  1.0000
  C   C8        1.0  0.018507905818872  0.6338947487777773  0.015072477507963828  1.0000
  C   C9        1.0  0.6525759295597168  0.18885879749446136  0.04561772660247953  1.0000
  C   C10       1.0  0.15257588501244607  0.3111375144516444  0.9543759915671333  1.0000
  C   C11       1.0  0.347425644443824  0.8111436499236788  0.9543794609579097  1.0000
  C   C12       1.0  0.8474242040820954  0.688861154687288  0.04562162866338328  1.0000
  C   C13       1.0  0.6815465042168325  0.22813854379061385  0.13502540878168656  1.0000
  C   C14       1.0  0.1815420049425498  0.2718675916814277  0.8649698402529611  1.0000
  C   C15       1.0  0.31844913015069654  0.7718684375625743  0.864972777178757  1.0000
  C   C16       1.0  0.8184476897889681  0.7281288104899843  0.13503107478805285  1.0000
  C   C17       1.0  0.5400524950970507  0.21205063092543242  0.19453161944188221  1.0000
  C   C18       1.0  0.0400569052767921  0.2879517262674014  0.8054640622628852  1.0000
  C   C19       1.0  0.4599461090884844  0.7879472825576601  0.8054658343886204  1.0000
  C   C20       1.0  0.9599416989087428  0.7120507211507388  0.19453944864837078  1.0000
  C   C21       1.0  0.3646208907036623  0.1569875010682082  0.1638043499837138  1.0000
  C   C22       1.0  0.864620935250926  0.34301258915709815  0.8361933618613764  1.0000
  C   C23       1.0  0.6353821682088848  0.8430134350382519  0.8361918724415677  1.0000
  C   C24       1.0  0.1353821236616213  0.656984568670147  0.16380835191473153  1.0000
  C   C25       1.0  0.3370817683258664  0.1181029627771437  0.07462597040387921  1.0000
  C   C26       1.0  0.8370743883281192  0.3818910822014274  0.9253723072463985  1.0000
  C   C27       1.0  0.6629227754956872  0.8818964620176288  0.9253673898810392  1.0000
  C   C28       1.0  0.1629093667673871  0.6180985190674022  0.07463216887522611  1.0000
  C   C29       1.0  0.0721888512022275  0.0762547422757862  0.20118003676265062  1.0000
  C   C30       1.0  0.5721888957494983  0.42374459229368  0.7988225673631322  1.0000
  C   C31       1.0  0.9278127228013133  0.9237461938306666  0.7988206120082426  1.0000
  C   C32       1.0  0.427806738618031  0.5762518098777321  0.20118150935331874  1.0000
  C   C33       1.0  0.9418718412458842  0.07584139853049271  0.28015745990745  1.0000
  C   C34       1.0  0.4418673419716015  0.4241586916948137  0.7198446782832522  1.0000
  C   C35       1.0  0.0581312176666628  0.9241572706084329  0.7198420573283287  1.0000
  C   C36       1.0  0.55813274712294  0.5758445113791666  0.28015836669293037  1.0000
  C   C37       1.0  0.7288245219773515  0.3069209548561673  0.31642678951189407  1.0000
  C   C38       1.0  0.22882150761207498  0.1930829136483538  0.6835692249929011  1.0000
  C   C39       1.0  0.2711770520261894  0.6930807369061327  0.6835695993134011  1.0000
  C   C40       1.0  0.7711756116644608  0.8069195337697864  0.31643302124818723  1.0000
  C   C41       1.0  0.7536225023347995  0.3166711821788297  0.4137826458760047  1.0000
  C   C42       1.0  0.253619487969523  0.1833341976373717  0.5862137014288038  1.0000
  C   C43       1.0  0.2463761018507427  0.6833320208951577  0.5862147080843984  1.0000
  C   C44       1.0  0.7463806011250185  0.8166667384690884  0.4137901090175192  1.0000
  O   O1        1.0  0.23131318491984834  0.1474201424591826  0.2272586936237673  1.0000
  O   O2        1.0  0.7313072898311004  0.3525761694869161  0.7727413478967124  1.0000
  O   O3        1.0  0.7686958136287174  0.8525777710239099  0.7727406572120047  1.0000
  O   O4        1.0  0.2686883445364288  0.6474194770286488  0.22726003307937506  1.0000
  O   O5        1.0  0.43443240259138344  0.0740195122966796  0.37508521019758945  1.0000
  O   O6        1.0  0.9344235376846299  0.4259805779286268  0.6249137663176755  1.0000
  O   O7        1.0  0.5655736261391766  0.9259814238097805  0.6249154385733038  1.0000
  O   O8        1.0  0.0655750665009052  0.5740180912103057  0.3750863832531906  1.0000
  O   O9        1.0  0.9943366461554177  0.1255983130688207  0.3553575827464428  1.0000
  O   O10       1.0  0.49431581288209964  0.3744047997798532  0.6446414270337757  1.0000
  O   O11       1.0  0.0056708674841346  0.8744003560701117  0.6446387728138988  1.0000
  O   O12       1.0  0.5056723969404118  0.6255946250149194  0.3553614182774468  1.0000
  O   O13       1.0  0.2148841517057889  0.3867907546776054  0.3011047252782079  1.0000
  O   O14       1.0  0.7148782566170411  0.1132116025152214  0.698894118102004  1.0000
  O   O15       1.0  0.7851174222977588  0.6132101814288475  0.6988984528330349  1.0000
  O   O16       1.0  0.2851337117495234  0.8867878222795511  0.3011049331987011  1.0000
  O   O17       1.0  0.7821773024709415  0.0240986204407534  0.26472276447324117  1.0000
  O   O18       1.0  0.28216983337866  0.4759014697845529  0.735279373717461  1.0000
  O   O19       1.0  0.21782278662359286  0.975899293042339  0.7352759540274437  1.0000
  O   O20       1.0  0.7178287708068821  0.5241009776335872  0.2647228725236205  1.0000
  O   O21       1.0  0.315330821243478  0.430482019776349  0.5080067665345283  1.0000
  O   O22       1.0  0.8153323506997481  0.0695203374164848  0.49199460618602603  1.0000
  O   O23       1.0  0.6846603583970463  0.5695181606742707  0.49199624517670065  1.0000
  O   O24       1.0  0.1846528893047577  0.930480598689968  0.5080028809094304  1.0000
  O   O25       1.0  0.2871799163562656  0.0437207356765583  0.8971933345798677  1.0000
  O   O26       1.0  0.7871799609035363  0.4562755762695474  0.10280291293008761  1.0000
  O   O27       1.0  0.7128157180112636  0.9562786891182213  0.10280318738048076  1.0000
  O   O28       1.0  0.21282012819100515  0.5437215815577048  0.8971988008460203  1.0000
  O   O29       1.0  0.5748825206817401  0.1131534170154325  0.8659145155400624  1.0000
  O   O30       1.0  0.074873566680445  0.3868436505865134  0.13408063369973178  1.0000
  O   O31       1.0  0.4251279627758251  0.8868467634351875  0.13408470216064225  1.0000
  O   O32       1.0  0.9251265224140894  0.6131557742082592  0.865919682271141  1.0000
  O   O33       1.0  0.5600111570122905  0.2448521396925472  0.28318745588028094  1.0000
  O   O34       1.0  0.060009627556013384  0.255152484467807  0.7168112543648706  1.0000
  O   O35       1.0  0.4399919019002567  0.7551480407580655  0.716810497150256  1.0000
  O   O36       1.0  0.9399919464475275  0.7448492072944859  0.2831908254762042  1.0000
  O   O37       1.0  0.6261801871145707  0.279307023440829  0.45510081442988354  1.0000
  O   O38       1.0  0.1261756878402878  0.22069306678447734  0.5448937357397698  1.0000
  O   O39       1.0  0.3738154472529587  0.7206969352889915  0.5448954412603443  1.0000
  O   O40       1.0  0.8738184616182352  0.7793025797310875  0.45510764523631764  1.0000
  O   O41       1.0  0.9095928893291114  0.3644633915292914  0.4465795196259848  1.0000
  O   O42       1.0  0.4095972995088459  0.1355457665661106  0.5534195566841336  1.0000
  O   O43       1.0  0.0904027450384248  0.6355375445771614  0.5534217614799959  1.0000
  O   O44       1.0  0.5904013046766892  0.8644581921637099  0.446582390021888  1.0000
