data_image0
_chemical_formula_structural       Hg2H20C14S10I4O4
_chemical_formula_sum              "Hg2 H20 C14 S10 I4 O4"
_cell_length_a       4.371008645555165
_cell_length_b       13.800533927307491
_cell_length_c       14.733220959835064
_cell_angle_alpha    116.73888537851956
_cell_angle_beta     93.20076870250737
_cell_angle_gamma    93.52836640580118

_space_group_name_H-M_alt    "P 1"
_space_group_IT_number       1

loop_
  _space_group_symop_operation_xyz
  'x, y, z'

loop_
  _atom_site_type_symbol
  _atom_site_label
  _atom_site_symmetry_multiplicity
  _atom_site_fract_x
  _atom_site_fract_y
  _atom_site_fract_z
  _atom_site_occupancy
  Hg  Hg1       1.0  0.06622735794246644  0.3457192913807533  0.17514301479135247  1.0000
  Hg  Hg2       1.0  0.9337674047592658  0.6542805675309324  0.8248545898709877  1.0000
  H   H1        1.0  0.914836232108698  0.6408082493127552  0.30942137569424943  1.0000
  H   H2        1.0  0.08516542372040449  0.35919161385992737  0.6905783758643905  1.0000
  H   H3        1.0  0.5749951620990216  0.33511705630530025  0.6726820656787779  1.0000
  H   H4        1.0  0.425003994790373  0.6648820026138583  0.3273193460731322  1.0000
  H   H5        1.0  0.05311692948451714  0.7571160388517982  0.12142809065282735  1.0000
  H   H6        1.0  0.9468918275086864  0.24288463451298276  0.8785721121260932  1.0000
  H   H7        1.0  0.3638165225457541  0.7716341207355127  0.21250729350041556  1.0000
  H   H8        1.0  0.6361869808882618  0.22836411650573754  0.7874931642956111  1.0000
  H   H9        1.0  0.7566302728074065  0.6210345198764315  0.1567312407909967  1.0000
  H   H10       1.0  0.24336749338743147  0.37896779542384  0.843270154267614  1.0000
  H   H11       1.0  0.11865035532747475  0.5802236406877483  0.11288640764463764  1.0000
  H   H12       1.0  0.8813441993375264  0.41977541229283577  0.8871128926937214  1.0000
  H   H13       1.0  0.8216714200702526  0.20125241184484818  0.5178956770748399  1.0000
  H   H14       1.0  0.17833435384829247  0.7987458144250895  0.4821027757558766  1.0000
  H   H15       1.0  0.7178128585451233  0.21015146650106684  0.40414335089067766  1.0000
  H   H16       1.0  0.28218719855268387  0.7898508471216272  0.595858079650682  1.0000
  H   H17       1.0  0.6079163779917138  0.37883348930395755  0.5448044614685158  1.0000
  H   H18       1.0  0.3920924130322306  0.621167199550392  0.4551991420571682  1.0000
  H   H19       1.0  0.2448875754298498  0.30611195020468784  0.4879476563671616  1.0000
  H   H20       1.0  0.755118454168468  0.693887103681732  0.512053861832996  1.0000
  C   C1        1.0  0.9487245959090059  0.0817006130197839  0.16492720824508206  1.0000
  C   C2        1.0  0.05126330769611096  0.9182992571204665  0.8350716502677216  1.0000
  C   C3        1.0  0.19111101099901617  0.05599804074129371  0.31822754961815036  1.0000
  C   C4        1.0  0.8089000232848633  0.9440026247500841  0.6817713283448228  1.0000
  C   C5        1.0  0.9923458703069202  0.964055949453048  0.26163885768635725  1.0000
  C   C6        1.0  0.007657612708655399  0.035942278494467  0.7383595596616173  1.0000
  C   C7        1.0  0.11356560310579772  0.752791108862283  0.19284167430223684  1.0000
  C   C8        1.0  0.8864408697905831  0.2472095692779916  0.8071591731432901  1.0000
  C   C9        1.0  0.006638899252507737  0.6392436140105033  0.17768284047762967  1.0000
  C   C10       1.0  0.9933581815767952  0.36075625561525726  0.8223175202648674  1.0000
  C   C11       1.0  0.6252627871512644  0.2054845018290195  0.47016545629040957  1.0000
  C   C12       1.0  0.37474803228973036  0.7945153546333401  0.5298344371992272  1.0000
  C   C13       1.0  0.45743749175309023  0.30535243810282253  0.5310146852809012  1.0000
  C   C14       1.0  0.5425664685912822  0.6946474295881019  0.46898646205919187  1.0000
  S   S1        1.0  0.8496240557594419  0.12864415044106187  0.08200593691179849  1.0000
  S   S2        1.0  0.1503556184729362  0.8713589966025949  0.9179961992062144  1.0000
  S   S3        1.0  0.21063299025032486  0.15147113443472193  0.2711094469825639  1.0000
  S   S4        1.0  0.7893615644146764  0.8485279185458622  0.7288898533558025  1.0000
  S   S5        1.0  0.794126639500604  0.9590822532914345  0.15337262871581456  1.0000
  S   S6        1.0  0.2058727118132282  0.0409176053629992  0.8466257270613794  1.0000
  S   S7        1.0  0.9241421433154074  0.8585079657279735  0.2942109821315384  1.0000
  S   S8        1.0  0.07586203867799671  0.1414927140898783  0.7057898298312394  1.0000
  S   S9        1.0  0.40282491700607903  0.0747914365290754  0.4293959351947905  1.0000
  S   S10       1.0  0.5971764899494049  0.9252076021250275  0.570601431143764  1.0000
  I   I1        1.0  0.866795596903927  0.41990052385395427  0.36189941603913667  1.0000
  I   I2        1.0  0.13319021702879044  0.5801001507970652  0.6380970311655502  1.0000
  I   I3        1.0  0.4789850717191158  0.3677264829007997  0.05128289209574183  1.0000
  I   I4        1.0  0.5210023613633368  0.6322717505939509  0.9487139165742845  1.0000
  O   O1        1.0  0.08711474008057259  0.6206029874890576  0.2636056267220184  1.0000
  O   O2        1.0  0.9128844031965286  0.37939606523428177  0.7363944247311947  1.0000
  O   O3        1.0  0.3792169295811902  0.3098220229866797  0.625516764713467  1.0000
  O   O4        1.0  0.6207840681069714  0.6901754069031371  0.3744846731264673  1.0000
