data_image0
_chemical_formula_structural       Cd2H12C8S4N16
_chemical_formula_sum              "Cd2 H12 C8 S4 N16"
_cell_length_a       5.309600576057321
_cell_length_b       7.821688746799479
_cell_length_c       11.48575306224949
_cell_angle_alpha    90.78117876671504
_cell_angle_beta     89.99962181937518
_cell_angle_gamma    89.99952061802954

_space_group_name_H-M_alt    "P 1"
_space_group_IT_number       1

loop_
  _space_group_symop_operation_xyz
  'x, y, z'

loop_
  _atom_site_type_symbol
  _atom_site_label
  _atom_site_symmetry_multiplicity
  _atom_site_fract_x
  _atom_site_fract_y
  _atom_site_fract_z
  _atom_site_occupancy
  Cd  Cd1       1.0  0.5000015682096403  0.49999862098718506  0.4999996036289573  1.0000
  Cd  Cd2       1.0  2.4566784869999563e-07  0.9999999920602748  0.5000021212905709  1.0000
  H   H1        1.0  0.8880408153220216  0.20153701930205165  0.8514515394773028  1.0000
  H   H2        1.0  0.3880484955189799  0.29845316942239464  0.1485374708812444  1.0000
  H   H3        1.0  0.11195667092066938  0.7984653369288498  0.1485477475134118  1.0000
  H   H4        1.0  0.6119471073996932  0.70154539848501  0.8514582743304473  1.0000
  H   H5        1.0  0.6940857833335483  0.1412779650418089  0.9726480366799137  1.0000
  H   H6        1.0  0.1941005260108852  0.3587119442608896  0.027344877295497803  1.0000
  H   H7        1.0  0.3059173530111821  0.8587269127801992  0.027353901657349407  1.0000
  H   H8        1.0  0.8059026104247379  0.6412840309912655  0.9726534395342272  1.0000
  H   H9        1.0  0.6416875996785903  0.34102720510524176  0.9001842673174849  1.0000
  H   H10       1.0  0.1417017494259341  0.15897061092991294  0.09981236752751241  1.0000
  H   H11       1.0  0.3583098865641006  0.6589751511256596  0.0998150196732297  1.0000
  H   H12       1.0  0.8582995035855631  0.8410330475273402  0.9001851983973027  1.0000
  C   C1        1.0  0.5055958543116005  0.13283600345204155  0.6928608224427535  1.0000
  C   C2        1.0  0.005614829033817199  0.3671598358551906  0.30714739882431275  1.0000
  C   C3        1.0  0.4943959818070026  0.8671612148766245  0.30714012582123473  1.0000
  C   C4        1.0  0.9943883073698386  0.6328373824429862  0.6928535494268077  1.0000
  C   C5        1.0  0.6991806556943272  0.2071793721531067  0.8891870876962856  1.0000
  C   C6        1.0  0.19918532691523436  0.2928153990041339  0.1108224338530519  1.0000
  C   C7        1.0  0.30081871392278703  0.792820391437779  0.1108147709189069  1.0000
  C   C8        1.0  0.8008046258126098  0.70718567868677  0.8891768332146485  1.0000
  S   S1        1.0  0.7221508213784205  0.2381660891609557  0.6092820559694873  1.0000
  S   S2        1.0  0.22214140304649269  0.261846635511681  0.39071463489383973  1.0000
  S   S3        1.0  0.27785043162946  0.7618298150676922  0.3907214838419861  1.0000
  S   S4        1.0  0.7778636167784894  0.7381480611750749  0.6092836620021559  1.0000
  N   N1        1.0  0.29804060901987117  0.04296120542438331  0.6629843569198854  1.0000
  N   N2        1.0  0.7980426943432305  0.45704598366445753  0.3370129519251748  1.0000
  N   N3        1.0  0.7019606439794899  0.9570359773645908  0.33701920282318554  1.0000
  N   N4        1.0  0.2019604420838732  0.5429512701480167  0.6629853848361407  1.0000
  N   N5        1.0  0.19799216906004344  0.9810854405174259  0.7621843230039859  1.0000
  N   N6        1.0  0.6980017670093445  0.5189185680463099  0.23781182782373383  1.0000
  N   N7        1.0  0.8020015503989126  0.018914299412514903  0.2378192766108356  1.0000
  N   N8        1.0  0.3019957192347462  0.48108120738776017  0.7621891602969981  1.0000
  N   N9        1.0  0.3319228990060381  0.02784527292465101  0.8519085083592941  1.0000
  N   N10       1.0  0.8319395141061033  0.47215144563556793  0.148092916360973  1.0000
  N   N11       1.0  0.6680745871975659  0.9721570241157667  0.14809513111441672  1.0000
  N   N12       1.0  0.16805985553376246  0.5278496438680237  0.851905480199413  1.0000
  N   N13       1.0  0.5245134160922404  0.1219551775403502  0.81081823187246  1.0000
  N   N14       1.0  0.02456452288001999  0.37802700448263954  0.18915229568783332  1.0000
  N   N15       1.0  0.4754859535561522  0.8780446334029224  0.18918014475633532  1.0000
  N   N16       1.0  0.9754461471180561  0.6219690299396704  0.810841668650319  1.0000
