data_image0
_chemical_formula_structural       Ag2H12C12S4N2O10
_chemical_formula_sum              "Ag2 H12 C12 S4 N2 O10"
_cell_length_a       8.114348048610337
_cell_length_b       8.183717091287782
_cell_length_c       8.183775209933154
_cell_angle_alpha    92.57913413264966
_cell_angle_beta     113.19247413939094
_cell_angle_gamma    113.1919600831913

_space_group_name_H-M_alt    "P 1"
_space_group_IT_number       1

loop_
  _space_group_symop_operation_xyz
  'x, y, z'

loop_
  _atom_site_type_symbol
  _atom_site_label
  _atom_site_symmetry_multiplicity
  _atom_site_fract_x
  _atom_site_fract_y
  _atom_site_fract_z
  _atom_site_occupancy
  Ag  Ag1       1.0  0.6886227278803645  0.9574620023599606  0.9574645612969592  1.0000
  Ag  Ag2       1.0  0.3113778293159014  0.0425365985139123  0.042535025457084395  1.0000
  H   H1        1.0  0.4191035638934153  0.7281271069831873  0.106611034925308  1.0000
  H   H2        1.0  0.5808978952373067  0.8933889996662643  0.2718731656533677  1.0000
  H   H3        1.0  0.5808990036289784  0.2718701367759238  0.8933880358789282  1.0000
  H   H4        1.0  0.41910534174444786  0.10660961236511919  0.7281262331466962  1.0000
  H   H5        1.0  0.775574583827307  0.2685051002754051  0.6927714922872852  1.0000
  H   H6        1.0  0.22443087322383792  0.3072303619350618  0.7314934089921153  1.0000
  H   H7        1.0  0.22443066590066257  0.7314976109723618  0.30723011385641297  1.0000
  H   H8        1.0  0.7755736919922993  0.6927764597734194  0.26850569902462235  1.0000
  H   H9        1.0  0.7492141619802908  0.17749994715687478  0.38720427093600324  1.0000
  H   H10       1.0  0.2507779535293366  0.612790634123641  0.8224984473096485  1.0000
  H   H11       1.0  0.250779699884376  0.8224931610913658  0.6127948974437702  1.0000
  H   H12       1.0  0.7492145337334789  0.38720797248092953  0.17749313981335035  1.0000
  C   C1        1.0  0.7876174694430206  0.5313095646566666  0.6495446653585191  1.0000
  C   C2        1.0  0.21237677281050085  0.35044603509658856  0.4686902025284426  1.0000
  C   C3        1.0  0.2123743345180102  0.4686958805741952  0.3504457852842507  1.0000
  C   C4        1.0  0.7876191180629063  0.6495484218005955  0.5313147049728073  1.0000
  C   C5        1.0  0.7717236187957396  0.35942537980000105  0.5999952233057969  1.0000
  C   C6        1.0  0.22827899878139143  0.400021509148857  0.6405768451815561  1.0000
  C   C7        1.0  0.22826961487088934  0.6405608478401702  0.4000131273461137  1.0000
  C   C8        1.0  0.7717255263834703  0.5999935530609903  0.3594141142139336  1.0000
  C   C9        1.0  0.7557472585608948  0.3090969754855096  0.42676828861136346  1.0000
  C   C10       1.0  0.24424828038628021  0.5732053458679758  0.690907217900218  1.0000
  C   C11       1.0  0.24424452161137825  0.6909139596792856  0.573217545188001  1.0000
  C   C12       1.0  0.7557483199977498  0.4267822388001292  0.3091061662181077  1.0000
  S   S1        1.0  0.8266784365035845  0.6374070004419253  0.8642697196067034  1.0000
  S   S2        1.0  0.1733381542330719  0.1357270585585866  0.3626030037714543  1.0000
  S   S3        1.0  0.1733395375863154  0.3626025940187887  0.1357322569991339  1.0000
  S   S4        1.0  0.8266724713283934  0.8642729244367828  0.6374017582421205  1.0000
  N   N1        1.0  0.7694488614977287  0.80079009133415  0.8007890441808456  1.0000
  N   N2        1.0  0.2305597462113695  0.19921398814248187  0.19921514871698076  1.0000
  O   O1        1.0  0.5000004129567087  0.8625147942349755  0.13748227487148768  1.0000
  O   O2        1.0  0.5000055006524348  0.137486562719964  0.8625170742651705  1.0000
  O   O3        1.0  0.037760914263351666  0.7054169591978475  0.9936723171809945  1.0000
  O   O4        1.0  0.9622374965704026  0.006321046275665799  0.2945832732146557  1.0000
  O   O5        1.0  0.9622329269706567  0.29457890521828733  0.006322096064785307  1.0000
  O   O6        1.0  0.037761739179707494  0.9936747956517847  0.705420550972292  1.0000
  O   O7        1.0  0.6830080693932458  0.5191908776885369  0.9228573813303812  1.0000
  O   O8        1.0  0.31698691087940023  0.07714313452454752  0.480806459283933  1.0000
  O   O9        1.0  0.3169904949494508  0.4808090578982344  0.07714761479803658  1.0000
  O   O10       1.0  0.6830136455788605  0.9228636564464948  0.5191959890541257  1.0000
