data_image0
_chemical_formula_structural       Cd2P4H68C50N8O16
_chemical_formula_sum              "Cd2 P4 H68 C50 N8 O16"
_cell_length_a       8.92076721477015
_cell_length_b       12.930446120576171
_cell_length_c       13.095
_cell_angle_alpha    82.77810402066164
_cell_angle_beta     70.9446749159718
_cell_angle_gamma    87.45885662888192

_space_group_name_H-M_alt    "P 1"
_space_group_IT_number       1

loop_
  _space_group_symop_operation_xyz
  'x, y, z'

loop_
  _atom_site_type_symbol
  _atom_site_label
  _atom_site_symmetry_multiplicity
  _atom_site_fract_x
  _atom_site_fract_y
  _atom_site_fract_z
  _atom_site_occupancy
  Cd  Cd1       1.0  0.9999996691000561  7.795577375e-07  0.49999990046192283  1.0000
  Cd  Cd2       1.0  9.961545756998654e-07  0.4999997554917144  0.499999923344106  1.0000
  P   P1        1.0  0.9321018566877796  0.0934354513313593  0.7385039159852981  1.0000
  P   P2        1.0  0.06790217248781262  0.9065656187675372  0.2614944441307259  1.0000
  P   P3        1.0  0.018423962824087405  0.5854042030467781  0.7356599040004141  1.0000
  P   P4        1.0  0.9815765167850331  0.4145953079366507  0.2643409664128669  1.0000
  H   H1        1.0  0.0791183872514409  0.1859229604581074  0.8227598205293846  1.0000
  H   H2        1.0  0.9208832699915347  0.8140781096407963  0.17724135807928582  1.0000
  H   H3        1.0  0.9215284585012212  0.1126149102624652  0.9196889540389394  1.0000
  H   H4        1.0  0.07847082264291322  0.8873869393941689  0.08031036531892975  1.0000
  H   H5        1.0  0.9998890690586109  0.8956884497041884  0.8474696663110138  1.0000
  H   H6        1.0  0.00011022041798009998  0.104311840836985  0.1525313720312624  1.0000
  H   H7        1.0  0.19593255838461937  0.7619935187549698  0.8679626305038968  1.0000
  H   H8        1.0  0.8040667352581963  0.2380059922284588  0.1320369763798369  1.0000
  H   H9        1.0  0.5040129325504594  0.0022591583133078  0.8859144475148641  1.0000
  H   H10       1.0  0.4959875428924363  0.9977411322278584  0.11408327245546711  1.0000
  H   H11       1.0  0.3039487027582979  0.1340769142389036  0.8705060674924001  1.0000
  H   H12       1.0  0.6960505908845178  0.8659225967445323  0.1294943030415823  1.0000
  H   H13       1.0  0.4079258834628803  0.6726616593357093  0.8175531738087402  1.0000
  H   H14       1.0  0.5920745961462401  0.3273378516477266  0.18244693295429232  1.0000
  H   H15       1.0  0.6309860404154719  0.554150953930538  0.8138775081760344  1.0000
  H   H16       1.0  0.3690144391936485  0.4458485570528978  0.1861233622372396  1.0000
  H   H17       1.0  0.8274325770111233  0.7717130445832439  0.9583850489678343  1.0000
  H   H18       1.0  0.17256671246546768  0.2282872459579224  0.04161675302469093  1.0000
  H   H19       1.0  0.6085659592441175  0.8922279929226846  0.9596635057199097  1.0000
  H   H20       1.0  0.3914333302324664  0.1077722976184816  0.04033676897211791  1.0000
  H   H21       1.0  0.8572589781643954  0.5048766686760047  0.9086866018602607  1.0000
  H   H22       1.0  0.1427391295121154  0.49512284230743114  0.09131403244467153  1.0000
  H   H23       1.0  0.9605782478258075  0.6140085149826859  0.923079956969062  1.0000
  H   H24       1.0  0.03942104581700791  0.3859909960007499  0.07692117721516921  1.0000
  H   H25       1.0  0.5950018148781026  0.2196637783037403  0.7836016199558102  1.0000
  H   H26       1.0  0.4049986647310178  0.7803357326796955  0.2163977231569732  1.0000
  H   H27       1.0  0.6777595402392009  0.1628901476475377  0.8839519715572238  1.0000
  H   H28       1.0  0.3222409393699195  0.837109363335898  0.11604660790531093  1.0000
  H   H29       1.0  0.5933295964796628  0.3499263165498832  0.9099678895615145  1.0000
  H   H30       1.0  0.4066708831294648  0.6500731944335526  0.09003221720151798  1.0000
  H   H31       1.0  0.7305781835676299  0.390930273803761  0.7777713422700077  1.0000
  H   H32       1.0  0.2694222960414905  0.6090692371796749  0.22222876449301762  1.0000
  H   H33       1.0  0.8008690534785502  0.3325990867949002  0.883491763716471  1.0000
  H   H34       1.0  0.19913142613057028  0.6674004241885285  0.1165068157460638  1.0000
  H   H35       1.0  0.0928587835938757  0.4021028952483263  0.8687871189232581  1.0000
  H   H36       1.0  0.9071416918490199  0.597897395292847  0.1312128919978194  1.0000
  H   H37       1.0  0.12460981451469169  0.3778508541416841  0.731957677597322  1.0000
  H   H38       1.0  0.8753906650944288  0.6221486568417518  0.2680431928159593  1.0000
  H   H39       1.0  0.337073516211241  0.2961485262656751  0.8052968358863739  1.0000
  H   H40       1.0  0.6629269633978794  0.7038509847177608  0.19470250722640972  1.0000
  H   H41       1.0  0.3874738250054505  0.4210282183581242  0.8268246712279465  1.0000
  H   H42       1.0  0.6125266587699016  0.5789705130675742  0.17317553137703368  1.0000
  H   H43       1.0  0.4186137116035624  0.391076051100029  0.6920353662873922  1.0000
  H   H44       1.0  0.5813879539718626  0.6089234598834068  0.3079637130544344  1.0000
  H   H45       1.0  0.2270088195045332  0.8730984256865639  0.6400060582596584  1.0000
  H   H46       1.0  0.7729892798395284  0.1269026444123398  0.3599943843613645  1.0000
  H   H47       1.0  0.6366433047695423  0.890750731016645  0.3603742457363596  1.0000
  H   H48       1.0  0.3633571790058099  0.10924800040906038  0.6396267205188695  1.0000
  H   H49       1.0  0.3704697327677664  0.961769220147346  0.30119657382262244  1.0000
  H   H50       1.0  0.629531928641434  0.0382310703938273  0.6988031733275052  1.0000
  H   H51       1.0  0.6569685786302415  0.8749607891132313  0.5699863306206154  1.0000
  H   H52       1.0  0.34302716127988475  0.125037942312467  0.4300141634179227  1.0000
  H   H53       1.0  0.4796200190049902  0.8255391674469621  0.6707199273751672  1.0000
  H   H54       1.0  0.5203769027052161  0.1744603435364738  0.32927944340022464  1.0000
  H   H55       1.0  0.8570308062295098  0.7550570140372983  0.48526866657282147  1.0000
  H   H56       1.0  0.1429684874133059  0.24494249694613757  0.5147347585621489  1.0000
  H   H57       1.0  0.6073269975919543  0.47097214370622  0.5582115753452044  1.0000
  H   H58       1.0  0.39267703574986257  0.5290281468349534  0.4417876442630161  1.0000
  H   H59       1.0  0.3919277098504637  0.6319562726939765  0.6269415934112674  1.0000
  H   H60       1.0  0.6080751541899544  0.368040899616254  0.3730575096854737  1.0000
  H   H61       1.0  0.053190204730981294  0.1984598079372759  0.3399928072944008  1.0000
  H   H62       1.0  0.946809080579378  0.8015412621616278  0.6600058442551743  1.0000
  H   H63       1.0  0.147516463324628  0.09541318930267549  0.29526523806593025  1.0000
  H   H64       1.0  0.852484007952043  0.9045878807962281  0.7047339133629437  1.0000
  H   H65       1.0  0.1340343796706165  0.6865861195815057  0.5335267420547041  1.0000
  H   H66       1.0  0.8659649098059675  0.3134141709596605  0.4664742962875722  1.0000
  H   H67       1.0  0.15131785721847277  0.7142518440056023  0.406893785989702  1.0000
  H   H68       1.0  0.8486814322581181  0.285748446535564  0.5931072523525744  1.0000
  C   C1        1.0  0.020532082027699503  0.1095052544612969  0.8430705199793354  1.0000
  C   C2        1.0  0.9794695752152762  0.8904958156376066  0.1569291313288375  1.0000
  C   C3        1.0  0.13662972098531867  0.0252093380040677  0.8574076409854927  1.0000
  C   C4        1.0  0.863370754457577  0.9747909525370986  0.14259236993558497  1.0000
  C   C5        1.0  0.10980702290822819  0.9190081397608907  0.8573858704798739  1.0000
  C   C6        1.0  0.890192262402138  0.080992930338013  0.1426135447199499  1.0000
  C   C7        1.0  0.2216566992038906  0.8435570853543197  0.8689421248924065  1.0000
  C   C8        1.0  0.7783437804052297  0.15644242562911606  0.13105645457012838  1.0000
  C   C9        1.0  0.3658360523738295  0.8708065259484243  0.880719813167403  1.0000
  C   C10       1.0  0.6341644230690662  0.1291937645927419  0.1192794341034258  1.0000
  C   C11       1.0  0.3913735929495985  0.9772995693253107  0.8814182978292069  1.0000
  C   C12       1.0  0.6086268866595219  0.0226999416581251  0.11858028163332797  1.0000
  C   C13       1.0  0.279094439090052  0.0521859333912502  0.87051616715884  1.0000
  C   C14       1.0  0.7209060363528437  0.9478143571499159  0.12948231646173977  1.0000
  C   C15       1.0  0.49026682047077236  0.7935125970585304  0.8875989911838149  1.0000
  C   C16       1.0  0.5097336549721233  0.2064876934826358  0.11240025608701391  1.0000
  C   C17       1.0  0.498379538539929  0.695517512540647  0.8497864444728478  1.0000
  C   C18       1.0  0.5016209369029666  0.3044827780005193  0.15021356644822972  1.0000
  C   C19       1.0  0.624082878234745  0.6273163450608407  0.8484253205879569  1.0000
  C   C20       1.0  0.3759176013743825  0.372683165922588  0.15157478617507547  1.0000
  C   C21       1.0  0.7458543382738085  0.6539460372563681  0.8862480280606208  1.0000
  C   C22       1.0  0.2541461413353119  0.3460534737270677  0.11375284235265337  1.0000
  C   C23       1.0  0.7345265935286633  0.7494761602191531  0.9280422835703634  1.0000
  C   C24       1.0  0.2654726959479277  0.2505241303220131  0.07195799112166408  1.0000
  C   C25       1.0  0.6098231886704467  0.8178683193438018  0.9287311866549787  1.0000
  C   C26       1.0  0.3901761008061442  0.18213197119736438  0.07126908803705592  1.0000
  C   C27       1.0  0.8897860327831139  0.5866226517851203  0.8770544320819129  1.0000
  C   C28       1.0  0.1102144509922383  0.4133760796405781  0.12294653417331601  1.0000
  C   C29       1.0  0.6940619790234093  0.22455394396950365  0.8153581749654109  1.0000
  C   C30       1.0  0.305938500585718  0.7754455670139322  0.1846404044971237  1.0000
  C   C31       1.0  0.7048686654444439  0.33104075088451873  0.848313488622793  1.0000
  C   C32       1.0  0.29513181416467665  0.6689587600989171  0.15168585448999042  1.0000
  C   C33       1.0  0.17321744418406126  0.4169791954874142  0.7840965390136037  1.0000
  C   C34       1.0  0.8267830312588345  0.5830210950537591  0.215903471907474  1.0000
  C   C35       1.0  0.33904752477808836  0.3797038628755445  0.7763567944152285  1.0000
  C   C36       1.0  0.6609529506648073  0.6202964276656218  0.22364321650584884  1.0000
  C   C37       1.0  0.2992026547790374  0.8880932187012291  0.5551976565311989  1.0000
  C   C38       1.0  0.7007966388637783  0.1119062922822067  0.4448027140027834  1.0000
  C   C39       1.0  0.5120454064243702  0.8965724681746108  0.40710072048950974  1.0000
  C   C40       1.0  0.48795389138467726  0.1034262632510874  0.5928989822361787  1.0000
  C   C41       1.0  0.3813678950129784  0.9319737439937938  0.379596159962354  1.0000
  C   C42       1.0  0.6186313902973879  0.0680273261051099  0.6204040188877188  1.0000
  C   C43       1.0  0.5527740605043262  0.8264114925513795  0.5852226939161441  1.0000
  C   C44       1.0  0.4472204851070387  0.1735887979897868  0.41477481760845347  1.0000
  C   C45       1.0  0.7634222991615116  0.6971732931677934  0.5142928818000386  1.0000
  C   C46       1.0  0.23657937058014514  0.302825438257905  0.48571011163497974  1.0000
  C   C47       1.0  0.6260468254581396  0.5538664153576036  0.553414567604925  1.0000
  C   C48       1.0  0.37395127805213957  0.4461338751835626  0.4465874981585501  1.0000
  C   C49       1.0  0.5194520642315225  0.6322213223235522  0.587747202318198  1.0000
  C   C50       1.0  0.4805472294112931  0.3677781886598765  0.41225240456553547  1.0000
  N   N1        1.0  0.24967862183891035  0.9265682906658128  0.47275511593907293  1.0000
  N   N2        1.0  0.750319477505144  0.0734327794330909  0.5272453266819497  1.0000
  N   N3        1.0  0.776905209092085  0.5953802033695581  0.5078719538588601  1.0000
  N   N4        1.0  0.22309408871695516  0.4046185280561403  0.4921308034678163  1.0000
  N   N5        1.0  0.45767479744296924  0.8690525210467825  0.5186659301191341  1.0000
  N   N6        1.0  0.5423221242672298  0.1309469899366462  0.4813334406562575  1.0000
  N   N7        1.0  0.608951725698482  0.7224052383461482  0.562486433921329  1.0000
  N   N8        1.0  0.391049927378269  0.2775966113104857  0.43751312154489613  1.0000
  O   O1        1.0  0.060025172641204  0.0916752099678533  0.6286452396626885  1.0000
  O   O2        1.0  0.9399776622356197  0.9083274192465183  0.3713539561906247  1.0000
  O   O3        1.0  0.8145950966783957  0.0046773464043639  0.7799595604458034  1.0000
  O   O4        1.0  0.18541368052864016  0.9953229441368021  0.22004089502935648  1.0000
  O   O5        1.0  0.838774704615524  0.2039291849994456  0.7279977875531147  1.0000
  O   O6        1.0  0.16122695679367638  0.7960711055417207  0.2720011959467641  1.0000
  O   O7        1.0  0.070800803906188  0.6943949494035948  0.6806723653978538  1.0000
  O   O8        1.0  0.929198485570403  0.3056053411375714  0.31932867294442263  1.0000
  O   O9        1.0  0.9388639256266273  0.518008318706265  0.682169843765337  1.0000
  O   O10       1.0  0.0611365539824931  0.4819911922771709  0.31783102664793733  1.0000
  O   O11       1.0  0.1782397059041898  0.5282135090028532  0.7499002496669576  1.0000
  O   O12       1.0  0.8217607695387059  0.471786781538313  0.2500997612541199  1.0000
  O   O13       1.0  0.11588183883407768  0.1376059721009995  0.35822663740631816  1.0000
  O   O14       1.0  0.8841174506425133  0.8623943184401668  0.6417736372857094  1.0000
  O   O15       1.0  0.1611878903588746  0.6582515346215912  0.4626305838758284  1.0000
  O   O16       1.0  0.8388125850840209  0.341748755919582  0.5373701906954909  1.0000
