data_image0
_chemical_formula_structural       Hg2H22C30I4N6O2
_chemical_formula_sum              "Hg2 H22 C30 I4 N6 O2"
_cell_length_a       9.861676493877175
_cell_length_b       9.77184204706107
_cell_length_c       10.083154113889261
_cell_angle_alpha    61.016531063257816
_cell_angle_beta     89.93468862998525
_cell_angle_gamma    89.86464441133128

_space_group_name_H-M_alt    "P 1"
_space_group_IT_number       1

loop_
  _space_group_symop_operation_xyz
  'x, y, z'

loop_
  _atom_site_type_symbol
  _atom_site_label
  _atom_site_symmetry_multiplicity
  _atom_site_fract_x
  _atom_site_fract_y
  _atom_site_fract_z
  _atom_site_occupancy
  Hg  Hg1       1.0  0.2499993266505172  0.3281778150618564  0.34364957586002737  1.0000
  Hg  Hg2       1.0  0.7499985978170685  0.671822620208978  0.6563510023951339  1.0000
  H   H1        1.0  0.2749050731330911  0.9464943109858054  0.5386115654696227  1.0000
  H   H2        1.0  0.2250947056364296  0.5148971473322915  0.5386081290330296  1.0000
  H   H3        1.0  0.7250948907142457  0.05350290209853623  0.46138990286654297  1.0000
  H   H4        1.0  0.7749052467680854  0.4851032867241968  0.46139246902062336  1.0000
  H   H5        1.0  0.1715961396898393  0.7104129764592245  0.757030127958615  1.0000
  H   H6        1.0  0.32840248269751987  0.5325554063060097  0.7570294009580821  1.0000
  H   H7        1.0  0.8284028044676218  0.2895858477183708  0.2429708953370451  1.0000
  H   H8        1.0  0.671597474153593  0.4674460224023065  0.24297020796712593  1.0000
  H   H9        1.0  0.969948235158483  0.7450210632538019  0.8869918582390286  1.0000
  H   H10       1.0  0.5300516851039562  0.36798186123805005  0.8869958585801427  1.0000
  H   H11       1.0  0.030050717892159205  0.2549797502274487  0.11300718679974862  1.0000
  H   H12       1.0  0.4699482819151584  0.6320189516360201  0.1130031963578801  1.0000
  H   H13       1.0  0.9893602192178007  0.24117115636298078  0.5719711743092121  1.0000
  H   H14       1.0  0.5106367064995325  0.18685467347260237  0.5719711935320008  1.0000
  H   H15       1.0  0.010639753522724497  0.7588280460250231  0.42802831577007094  1.0000
  H   H16       1.0  0.4893632516263935  0.8131441500978128  0.42802983966290514  1.0000
  H   H17       1.0  0.9322382446520124  0.8581514774674872  0.0412730744556598  1.0000
  H   H18       1.0  0.5677668377470795  0.100570169865982  0.041278845244086405  1.0000
  H   H19       1.0  0.06776274650356844  0.1418487189651712  0.9587254363944242  1.0000
  H   H20       1.0  0.43223412862591454  0.8994302635833266  0.9587217627088123  1.0000
  H   H21       1.0  0.7500046424652282  0.9062076209483365  0.18757662259300634  1.0000
  H   H22       1.0  0.24999734804423213  0.09379219605956016  0.8124234412719533  1.0000
  C   C1        1.0  0.1875587504058913  0.9568312457988526  0.5996089836860535  1.0000
  C   C2        1.0  0.3124400615182026  0.44356167804944147  0.5996074667585488  1.0000
  C   C3        1.0  0.8124402039195714  0.043166962544489686  0.4003914856224214  1.0000
  C   C4        1.0  0.6875588769178549  0.5564387566142202  0.40039312139585104  1.0000
  C   C5        1.0  0.13010777784350583  0.8263973188779089  0.7211355672593174  1.0000
  C   C6        1.0  0.3698873101486981  0.45246305162268646  0.721137649841019  1.0000
  C   C7        1.0  0.8698901523454908  0.17360150590685208  0.27886544613709674  1.0000
  C   C8        1.0  0.630112642255824  0.5475373824338021  0.278862948212634  1.0000
  C   C9        1.0  0.0169471796501384  0.8462631848779054  0.7925225707115829  1.0000
  C   C10       1.0  0.4830490489526795  0.3612088657086333  0.7925261250572575  1.0000
  C   C11       1.0  0.983051779121915  0.15373601811727164  0.20747690946844702  1.0000
  C   C12       1.0  0.5169509136198442  0.6387909525136095  0.20747391900920342  1.0000
  C   C13       1.0  0.9633906790992129  0.9967405081985559  0.741507286951702  1.0000
  C   C14       1.0  0.5366076864153513  0.26174918499807376  0.741509297860553  1.0000
  C   C15       1.0  0.03660928791990159  0.0032603046755141922  0.25849176798632106  1.0000
  C   C16       1.0  0.46339228060375587  0.7382516278760036  0.2584897570774773  1.0000
  C   C17       1.0  0.026747562475407008  0.12175080471227778  0.6172449358614003  1.0000
  C   C18       1.0  0.47324963083373456  0.2610000250989729  0.6172466349571764  1.0000
  C   C19       1.0  0.9732534242335832  0.8782483970685533  0.3827545641171213  1.0000
  C   C20       1.0  0.5267493177703173  0.7389997937304428  0.3827533992100457  1.0000
  C   C21       1.0  0.8519196506187113  0.02049898805152135  0.8253095914939339  1.0000
  C   C22       1.0  0.6480806278880991  0.1541889273109617  0.8253119580367853  1.0000
  C   C23       1.0  0.1480803265684045  0.9795012089883102  0.17468890945690427  1.0000
  C   C24       1.0  0.35192035309948005  0.8458118849559424  0.17468710680048363  1.0000
  C   C25       1.0  0.850090911792563  0.9402854400258178  0.9831507380575317  1.0000
  C   C26       1.0  0.6499128827125632  0.07656072300472551  0.9831531016141996  1.0000
  C   C27       1.0  0.14991006474842553  0.05971437758925899  0.016849315908181898  1.0000
  C   C28       1.0  0.3500880938284253  0.9234390946103516  0.016846952351514333  1.0000
  C   C29       1.0  0.7500020308543612  0.967825306233365  0.06434700671893281  1.0000
  C   C30       1.0  0.24999895457980867  0.0321765006853597  0.9356510689898984  1.0000
  I   I1        1.0  0.4458434991765188  0.20626956183972564  0.24311998918132363  1.0000
  I   I2        1.0  0.0541514478751921  0.5506094046521071  0.2431344197395617  1.0000
  I   I3        1.0  0.5541544697569805  0.7937408199493916  0.7568706977894096  1.0000
  I   I4        1.0  0.9458484359029596  0.4493901299682861  0.756872904763796  1.0000
  N   N1        1.0  0.135858463994623  0.10112904333377773  0.549462006451897  1.0000
  N   N2        1.0  0.36413913658151387  0.3494081243899032  0.5494606053566216  1.0000
  N   N3        1.0  0.8641415246353076  0.8988679327339071  0.4505373647814468  1.0000
  N   N4        1.0  0.6358598120225378  0.6505916944395125  0.45053942881059333  1.0000
  N   N5        1.0  0.7499982581933863  0.126947873938292  0.7461013123041554  1.0000
  N   N6        1.0  0.2500017043791373  0.8730519442839506  0.2538987317623056  1.0000
  O   O1        1.0  0.7499959990061242  0.20014315204504374  0.599704387885808  1.0000
  O   O2        1.0  0.2500029495979277  0.7998566667843717  0.40029564628141423  1.0000
