data_image0
_chemical_formula_structural       Zn2H20C56I10N2O8
_chemical_formula_sum              "Zn2 H20 C56 I10 N2 O8"
_cell_length_a       14.460905664959704
_cell_length_b       15.082349210219496
_cell_length_c       15.082458125160628
_cell_angle_alpha    79.5487670549447
_cell_angle_beta     84.29172469341104
_cell_angle_gamma    84.2960575288301

_space_group_name_H-M_alt    "P 1"
_space_group_IT_number       1

loop_
  _space_group_symop_operation_xyz
  'x, y, z'

loop_
  _atom_site_type_symbol
  _atom_site_label
  _atom_site_symmetry_multiplicity
  _atom_site_fract_x
  _atom_site_fract_y
  _atom_site_fract_z
  _atom_site_occupancy
  Zn  Zn1       1.0  0.5819214926453213  0.5382023134967753  0.5185838652549106  1.0000
  Zn  Zn2       1.0  0.41807539162393687  0.48139948510618785  0.46180343729246676  1.0000
  H   H1        1.0  0.6457306757444173  0.9330533061326137  0.7210704780810031  1.0000
  H   H2        1.0  0.21285404711182573  0.05861258206115141  0.5149156079734423  1.0000
  H   H3        1.0  0.3542452536200003  0.27894457223629127  0.06695628654845358  1.0000
  H   H4        1.0  0.7871806410325277  0.48501740189269077  0.9413988349879999  1.0000
  H   H5        1.0  0.8772310850741009  0.41108697481006823  0.42193020968424827  1.0000
  H   H6        1.0  0.12275100246004199  0.5779606449425003  0.5890698277162867  1.0000
  H   H7        1.0  0.49730281090351286  0.7819153461758364  0.5564830775459412  1.0000
  H   H8        1.0  0.4509438127625814  0.22613485554817464  0.522190972033556  1.0000
  H   H9        1.0  0.5026858807727878  0.44352547152260513  0.21807055201175973  1.0000
  H   H10       1.0  0.5491025140218824  0.47773755698870707  0.7738634635425183  1.0000
  H   H11       1.0  0.7275623896023974  0.07473529364768441  0.6722545354089389  1.0000
  H   H12       1.0  0.19783123613495943  0.923985102867171  0.445097917692088  1.0000
  H   H13       1.0  0.2724395450078346  0.3277189837037326  0.9252759247376614  1.0000
  H   H14       1.0  0.802186789895224  0.554885679272992  0.0759991604623949  1.0000
  H   H15       1.0  0.0138766547331173  0.3319653240713478  0.3544493091878707  1.0000
  H   H16       1.0  0.9860912600931258  0.6454251782724187  0.6681776127557268  1.0000
  H   H17       1.0  0.7689765014055183  0.4844731528840285  0.46683896423746746  1.0000
  H   H18       1.0  0.23101531211311505  0.5331377558092143  0.5155716015081778  1.0000
  H   H19       1.0  0.6519430141289035  0.6430166414163594  0.6517736105327571  1.0000
  H   H20       1.0  0.3480471409797373  0.3482234476338633  0.3569945957327292  1.0000
  C   C1        1.0  0.5758190608496959  0.5204715084436985  0.3277522888520537  1.0000
  C   C2        1.0  0.4349456284043711  0.4754303290285762  0.6580710384326237  1.0000
  C   C3        1.0  0.4241797858525587  0.6722364437256444  0.4795300898407786  1.0000
  C   C4        1.0  0.5650873832411352  0.34193389713441047  0.5245341894625708  1.0000
  C   C5        1.0  0.5914724367795757  0.9631404202378988  0.6769750732904569  1.0000
  C   C6        1.0  0.2828079518161104  0.030941558421147902  0.5315082232044188  1.0000
  C   C7        1.0  0.4085189937826073  0.32302453008765747  0.03687208428875269  1.0000
  C   C8        1.0  0.717222819200977  0.46843733207708743  0.9690587398654312  1.0000
  C   C9        1.0  0.19683785765560205  0.35506203384338153  0.37297480232643915  1.0000
  C   C10       1.0  0.8031302091367888  0.6270103407261873  0.6450000067347756  1.0000
  C   C11       1.0  0.2834640132313311  0.3793212297574585  0.38599173013948007  1.0000
  C   C12       1.0  0.7165178420633324  0.6140118314898757  0.6207026656216783  1.0000
  C   C13       1.0  0.21721295988082548  0.4827663818328817  0.47637544156912526  1.0000
  C   C14       1.0  0.7827715470690252  0.5236555690478468  0.5172334194069845  1.0000
  C   C15       1.0  0.1259634949146573  0.46249384373830094  0.46749782648875976  1.0000
  C   C16       1.0  0.8740210246951821  0.5325246515636624  0.5375262366749424  1.0000
  C   C17       1.0  0.11448282203753728  0.39790975358101827  0.4115358201955103  1.0000
  C   C18       1.0  0.8855016345179507  0.5884505765384488  0.6021484321555517  1.0000
  C   C19       1.0  0.04510715096223087  0.5054749358591552  0.5121061227360356  1.0000
  C   C20       1.0  0.9548636530479371  0.4879334668783883  0.4945246416162446  1.0000
  C   C21       1.0  0.9461740293739141  0.42541518685755625  0.43575999464297144  1.0000
  C   C22       1.0  0.053808018234555305  0.5641633313566246  0.5747003875679153  1.0000
  C   C23       1.0  0.022620787975995392  0.3808388166242268  0.3973988411231061  1.0000
  C   C24       1.0  0.9773641592499375  0.6025386959162802  0.6192598563994236  1.0000
  C   C25       1.0  0.5826043976420578  0.24287320202440554  0.5617295370396461  1.0000
  C   C26       1.0  0.38000640557996224  0.7644813707506372  0.4906937157097672  1.0000
  C   C27       1.0  0.4174271842320181  0.4382210952531907  0.7571262492041413  1.0000
  C   C28       1.0  0.6199955130179617  0.5093087476985546  0.23550465421121194  1.0000
  C   C29       1.0  0.6652805014198934  0.10851511377462231  0.6417662617441875  1.0000
  C   C30       1.0  0.2620839650384638  0.8915618868439736  0.472680596062915  1.0000
  C   C31       1.0  0.3347304286941722  0.35819557882921776  0.8914901210404691  1.0000
  C   C32       1.0  0.7379438282522841  0.5272953381997781  0.10843105044545344  1.0000
  C   C33       1.0  0.6623731413735995  0.1995046208782797  0.6038928140315462  1.0000
  C   C34       1.0  0.2933807776479113  0.8045018707635736  0.4599948615715589  1.0000
  C   C35       1.0  0.33765966534476644  0.39605749294919695  0.8004960010341191  1.0000
  C   C36       1.0  0.7066325869428596  0.5399931675936716  0.19548490050762973  1.0000
  C   C37       1.0  0.5087333071262207  0.19135254120372017  0.5587673143430151  1.0000
  C   C38       1.0  0.42941159896976444  0.8129176343269221  0.537560736441172  1.0000
  C   C39       1.0  0.4913148172305313  0.4411508002768372  0.8086395429489597  1.0000
  C   C40       1.0  0.570585702560635  0.4624377081698369  0.18708003003445117  1.0000
  C   C41       1.0  0.5079145012088092  0.0995840457118291  0.5977361054130339  1.0000
  C   C42       1.0  0.39716635253276417  0.8990795235615254  0.556457595577285  1.0000
  C   C43       1.0  0.49211399987769516  0.4022159844418668  0.9004179036644472  1.0000
  C   C44       1.0  0.602838600050994  0.44352331479545637  0.10092541992604954  1.0000
  C   C45       1.0  0.5892566770123793  0.057025861539223406  0.6391287866278572  1.0000
  C   C46       1.0  0.3133181258390181  0.9407495851338582  0.5194184426539505  1.0000
  C   C47       1.0  0.4107363171304996  0.3608524801820677  0.942987943898906  1.0000
  C   C48       1.0  0.6867025785649831  0.4805549788996046  0.059248590256146365  1.0000
  C   C49       1.0  0.43312902503713246  0.046039982467199494  0.5881554097379932  1.0000
  C   C50       1.0  0.45146884660936604  0.9503308464932873  0.6012195559062475  1.0000
  C   C51       1.0  0.5668905879690058  0.4118117302102675  0.9539683726126281  1.0000
  C   C52       1.0  0.5485339339358929  0.39875152114311163  0.04968181255835449  1.0000
  C   C53       1.0  0.5250911729000551  0.9120723470938473  0.6580213780597999  1.0000
  C   C54       1.0  0.3408139434058342  0.08178064940410928  0.5640809618367298  1.0000
  C   C55       1.0  0.4749017023701896  0.3419683438743491  0.08793336064311319  1.0000
  C   C56       1.0  0.6592181515226943  0.43585761754476954  0.9182323881293895  1.0000
  I   I1        1.0  0.20948166964486603  0.7420579572375348  0.38643850968770005  1.0000
  I   I2        1.0  0.7863508438540878  0.26327442600693723  0.6030767406684346  1.0000
  I   I3        1.0  0.7905206955686453  0.6135679796188427  0.25791212860708856  1.0000
  I   I4        1.0  0.21370664514753202  0.3968077564320609  0.7367237120106366  1.0000
  I   I5        1.0  0.5193376009217019  0.780604815891337  0.7366642803851418  1.0000
  I   I6        1.0  0.27894345293881173  0.20452513012779858  0.6030723449164339  1.0000
  I   I7        1.0  0.48062296743063365  0.26333703994587415  0.21941855375177963  1.0000
  I   I8        1.0  0.7211061703279354  0.3968813157854072  0.7954738793268772  1.0000
  I   I9        1.0  0.1912852831671827  0.25081767607844085  0.2985933995909704  1.0000
  I   I10       1.0  0.8086729902941843  0.7013889778371549  0.7492549414063985  1.0000
  N   N1        1.0  0.29245678058057223  0.44375929936651204  0.43600367765586157  1.0000
  N   N2        1.0  0.7075319004536453  0.56402467130782  0.5562379365971778  1.0000
  O   O1        1.0  0.6299097221578053  0.5225077773250746  0.38870169731721654  1.0000
  O   O2        1.0  0.3916397275871262  0.4443340615315705  0.6028405985304985  1.0000
  O   O3        1.0  0.3700923464701802  0.6112721921693167  0.47750540909400735  1.0000
  O   O4        1.0  0.6083953670845048  0.39716076318539717  0.5556325256602503  1.0000
  O   O5        1.0  0.4871897803046608  0.5233957421071197  0.3383134303451313  1.0000
  O   O6        1.0  0.4969564340655381  0.5319297537914026  0.637060080258216  1.0000
  O   O7        1.0  0.5128088829042383  0.6616833185543955  0.47659364795379117  1.0000
  O   O8        1.0  0.5030640515566844  0.36295102052114464  0.46804051618907744  1.0000
