data_image0
_chemical_formula_structural       Cd4H36C68N16O16
_chemical_formula_sum              "Cd4 H36 C68 N16 O16"
_cell_length_a       10.379308062
_cell_length_b       12.526736213405501
_cell_length_c       13.4774
_cell_angle_alpha    111.03525566302606
_cell_angle_beta     90.0
_cell_angle_gamma    90.0

_space_group_name_H-M_alt    "P 1"
_space_group_IT_number       1

loop_
  _space_group_symop_operation_xyz
  'x, y, z'

loop_
  _atom_site_type_symbol
  _atom_site_label
  _atom_site_symmetry_multiplicity
  _atom_site_fract_x
  _atom_site_fract_y
  _atom_site_fract_z
  _atom_site_occupancy
  Cd  Cd1       1.0  0.724578166008385  0.5694584147780049  0.825540471396998  1.0000
  Cd  Cd2       1.0  0.22457855437723853  0.43054148198858405  0.674459197368776  1.0000
  Cd  Cd3       1.0  0.2754220207092644  0.43054148198858405  0.1744599393516495  1.0000
  Cd  Cd4       1.0  0.775421632340411  0.5694584147780049  0.325540471396998  1.0000
  H   H1        1.0  0.5074991481643139  0.5934107897958114  0.43295131356040173  1.0000
  H   H2        1.0  0.007501463443894402  0.4065908175492439  0.0670496678772494  1.0000
  H   H3        1.0  0.492500075097972  0.4065899622600071  0.5670486405498707  1.0000
  H   H4        1.0  0.9924996867291185  0.593409079217345  0.932950742871398  1.0000
  H   H5        1.0  0.7025439418930689  0.8095723145280473  0.033470960668111574  1.0000
  H   H6        1.0  0.2025414398958389  0.19042587166006802  0.46653036335727893  1.0000
  H   H7        1.0  0.2974581717353004  0.19042501637083833  0.9665293360299072  1.0000
  H   H8        1.0  0.7974558564557199  0.8095723145280473  0.533470218685231  1.0000
  H   H9        1.0  0.8378477590272341  0.9796140778574838  0.11769727313432551  1.0000
  H   H10       1.0  0.3378471839407311  0.0203858189091051  0.3823023956314486  1.0000
  H   H11       1.0  0.16215242769041543  0.0203849636198683  0.8823021102869432  1.0000
  H   H12       1.0  0.6621530027769182  0.9796140778574838  0.6176980151171989  1.0000
  H   H13       1.0  0.3270555204376393  0.7303571361884807  0.4638498745000277  1.0000
  H   H14       1.0  0.8270560955241422  0.2696453264458114  0.03615213426500221  1.0000
  H   H15       1.0  0.67294466628001  0.2696436158673379  0.5361508215931181  1.0000
  H   H16       1.0  0.1729431277381437  0.7303554256100142  0.9638478198452702  1.0000
  H   H17       1.0  0.9019869093466326  0.7235533103264373  0.7484142148539306  1.0000
  H   H18       1.0  0.4019872977154932  0.2764457311509219  0.7515859105502116  1.0000
  H   H19       1.0  0.0980132773710167  0.2764457311509219  0.2515844265844649  1.0000
  H   H20       1.0  0.5980128890021561  0.723554165615667  0.24841524218130226  1.0000
  H   H21       1.0  0.6232207350779362  0.7544266858314472  0.7612162615884442  1.0000
  H   H22       1.0  0.1232201599914333  0.2455732109351416  0.7387841491602032  1.0000
  H   H23       1.0  0.37677945163971327  0.2455732109351416  0.2387841491602032  1.0000
  H   H24       1.0  0.876780026726216  0.7544266858314472  0.2612155196055639  1.0000
  H   H25       1.0  0.0432928666647001  0.8900396363072147  0.8175139759701792  1.0000
  H   H26       1.0  0.543293441751203  0.10996026045937411  0.6824849508127142  1.0000
  H   H27       1.0  0.9567063565975857  0.10996111574861091  0.18248523615721268  1.0000
  H   H28       1.0  0.4567077084218099  0.8900396363072147  0.3175147179530526  1.0000
  H   H29       1.0  0.442698104011626  0.8892194139311371  0.7926487921656998  1.0000
  H   H30       1.0  0.9426967521874091  0.11078219341391823  0.7073529312548175  1.0000
  H   H31       1.0  0.5573030461613797  0.1107813381246885  0.20735190392744574  1.0000
  H   H32       1.0  0.0573034345302403  0.8892185586419004  0.2926470228554479  1.0000
  H   H33       1.0  0.996024969896496  0.3248876028259318  0.4936016457212843  1.0000
  H   H34       1.0  0.49602439480999294  0.6751131492298938  0.006398308388988023  1.0000
  H   H35       1.0  0.0039752168211535  0.6751131492298938  0.506398308388988  1.0000
  H   H36       1.0  0.5039748284523  0.3248884581151685  0.9936019310657896  1.0000
  C   C1        1.0  0.9224429935799705  0.4246784742847042  0.6593248029657346  1.0000
  C   C2        1.0  0.4224424184934677  0.5753214224818848  0.8406748658000325  1.0000
  C   C3        1.0  0.0775571931376788  0.5753214224818848  0.3406748658000325  1.0000
  C   C4        1.0  0.5775577682241817  0.4246784742847042  0.1593248029657346  1.0000
  C   C5        1.0  0.6851304496910515  0.5827949398147041  0.5755475967400443  1.0000
  C   C6        1.0  0.185132764970632  0.4172049569518848  0.9244528140086032  1.0000
  C   C7        1.0  0.3148687735712343  0.4172049569518848  0.4244528140085961  1.0000
  C   C8        1.0  0.8148693486577443  0.5827940845254673  0.07554731139553893  1.0000
  C   C9        1.0  0.8321720434932018  0.4693921401856542  0.5986684044192074  1.0000
  C   C10       1.0  0.3321724318620554  0.5306077565809346  0.9013312643465596  1.0000
  C   C11       1.0  0.167827179769084  0.5306077565809346  0.4013312643465595  1.0000
  C   C12       1.0  0.667827754855594  0.4693921401856542  0.0986684044192074  1.0000
  C   C13       1.0  0.8317885882593643  0.4591526174678151  0.49150673049100385  1.0000
  C   C14       1.0  0.3317889766282178  0.5408464240095441  0.008492652930264912  1.0000
  C   C15       1.0  0.16821063500292874  0.5408472792987737  0.5084929382747632  1.0000
  C   C16       1.0  0.6682102466340681  0.4591526174678151  0.9915059885081304  1.0000
  C   C17       1.0  0.5780192633422985  0.663793396208618  0.5950758080691328  1.0000
  C   C18       1.0  0.07801965171115201  0.3362065005579709  0.9049246026795146  1.0000
  C   C19       1.0  0.4219799599199945  0.3362065005579709  0.4049246026795145  1.0000
  C   C20       1.0  0.9219814984618608  0.663793396208618  0.09507506608625961  1.0000
  C   C21       1.0  0.4936311716922647  0.6585017217135203  0.5115817099345107  1.0000
  C   C22       1.0  0.9936327102341309  0.3415007409207718  0.9884195568476385  1.0000
  C   C23       1.0  0.5063680515700284  0.3414990303422982  0.4884182441757615  1.0000
  C   C24       1.0  0.006367476483518401  0.6585000111350539  0.011580397262633818  1.0000
  C   C25       1.0  0.7793833607865039  0.8309519795278747  0.9885573284091648  1.0000
  C   C26       1.0  0.279382785699994  0.1690470619494775  0.5114435389778578  1.0000
  C   C27       1.0  0.22061778938650892  0.1690470619494775  0.011442796994977309  1.0000
  C   C28       1.0  0.720616437562292  0.8309519795278747  0.4885573284091648  1.0000
  C   C29       1.0  0.9561321372021894  0.950966164941164  0.9760778370348504  1.0000
  C   C30       1.0  0.45613156211568656  0.04903287653618801  0.523920804403545  1.0000
  C   C31       1.0  0.04386804951546  0.04903287653618801  0.023921546386418396  1.0000
  C   C32       1.0  0.5438686246019628  0.9509670202304008  0.47607812237934866  1.0000
  C   C33       1.0  0.8556562679274295  0.9269761571970252  0.034956545460765764  1.0000
  C   C34       1.0  0.3556566562962828  0.0730237395695639  0.4650431233050014  1.0000
  C   C35       1.0  0.1443429553348565  0.0730228842803271  0.9650428379605029  1.0000
  C   C36       1.0  0.644344493876723  0.9269770124862619  0.534956830805271  1.0000
  C   C37       1.0  0.3914682920796793  0.7346147659988276  0.5289042547585368  1.0000
  C   C38       1.0  0.8914698306215457  0.2653868413462348  0.9710974686619807  1.0000
  C   C39       1.0  0.6085309311826066  0.265385986056998  0.471096441334609  1.0000
  C   C40       1.0  0.10853035609610372  0.734613055420354  0.02890220010378641  1.0000
  C   C41       1.0  0.8899090329360748  0.7828941327192425  0.829717630173448  1.0000
  C   C42       1.0  0.3899103847602916  0.21710490875810962  0.6702817532478206  1.0000
  C   C43       1.0  0.11009019032621843  0.21710490875810962  0.17028101126494016  1.0000
  C   C44       1.0  0.6100898019573577  0.7828949880084792  0.3297179155179463  1.0000
  C   C45       1.0  0.5579350728784647  0.7474740396425616  0.6961175250769358  1.0000
  C   C46       1.0  0.0579344977919618  0.252526712413264  0.8038831710162099  1.0000
  C   C47       1.0  0.44206511383918473  0.252526712413264  0.3038824290333366  1.0000
  C   C48       1.0  0.9420647254703312  0.7474731843533249  0.1961172397324303  1.0000
  C   C49       1.0  0.9701263263265858  0.8772359564637355  0.8700515456230846  1.0000
  C   C50       1.0  0.4701267146954464  0.1227630850136165  0.6299485797810576  1.0000
  C   C51       1.0  0.029871933480336607  0.1227622297243798  0.1299468104708055  1.0000
  C   C52       1.0  0.5298725085668465  0.8772368117529723  0.37005183096759  1.0000
  C   C53       1.0  0.37115479923983236  0.8172322849140343  0.6309261157428452  1.0000
  C   C54       1.0  0.8711553743263425  0.1827701777202577  0.8690766350050508  1.0000
  C   C55       1.0  0.6288453874778172  0.1827684671417913  0.36907458035030055  1.0000
  C   C56       1.0  0.1288438489359507  0.8172314296247976  0.1309236044497197  1.0000
  C   C57       1.0  0.45584541587334837  0.8235588593831196  0.7143581321262005  1.0000
  C   C58       1.0  0.9558440640491315  0.17644189267270602  0.7856433059498186  1.0000
  C   C59       1.0  0.5441557342996575  0.17644189267270602  0.2856425639669453  1.0000
  C   C60       1.0  0.044155159213154604  0.8235580040938829  0.21435636281594841  1.0000
  C   C61       1.0  0.2655148092279447  0.8947625434612405  0.6512019251575296  1.0000
  C   C62       1.0  0.7655182746805309  0.1052416297515251  0.8488006542964968  1.0000
  C   C63       1.0  0.7344853774897047  0.1052382085945851  0.34879877093561606  1.0000
  C   C64       1.0  0.2344809485817549  0.8947582670150638  0.15119901446927037  1.0000
  C   C65       1.0  0.9033877734421198  0.3846654780176735  0.39809982811129874  1.0000
  C   C66       1.0  0.4033871983556097  0.615335274038145  0.10190012599897363  1.0000
  C   C67       1.0  0.09661241327552973  0.615335274038145  0.6019001259989736  1.0000
  C   C68       1.0  0.5966129883620398  0.3846654780176735  0.898100570094172  1.0000
  N   N1        1.0  0.7391533187157081  0.5468248957601034  0.6500608676375421  1.0000
  N   N2        1.0  0.23915370708456152  0.4531750010064854  0.8499395431110982  1.0000
  N   N3        1.0  0.2608468680019413  0.4531750010064854  0.3499395431110983  1.0000
  N   N4        1.0  0.7608474430884443  0.5468248957601034  0.15006086763754214  1.0000
  N   N5        1.0  0.7971600756597752  0.7585363506041887  0.8879750279715849  1.0000
  N   N6        1.0  0.2971595005732652  0.24146269087317052  0.6120258394154304  1.0000
  N   N7        1.0  0.2028401110578741  0.24146183558393372  0.1120240701051785  1.0000
  N   N8        1.0  0.7028397226890206  0.7585372058934183  0.38797531331609036  1.0000
  N   N9        1.0  0.7406293323293767  0.5321284608402337  0.47903153725785325  1.0000
  N   N10       1.0  0.24063068415359373  0.4678714359263552  0.020968131507920897  1.0000
  N   N11       1.0  0.25936989093290924  0.4678714359263552  0.5209681315079209  1.0000
  N   N12       1.0  0.759370466019412  0.5321284608402337  0.9790322792407266  1.0000
  N   N13       1.0  0.1789974812292101  0.9588690374698032  0.6704717324723077  1.0000
  N   N14       1.0  0.678996129404986  0.0411308592967856  0.8295301622420794  1.0000
  N   N15       1.0  0.8210027054884392  0.0411308592967856  0.32952867827633264  1.0000
  N   N16       1.0  0.3210050207680197  0.9588698927590401  0.1704690498853125  1.0000
  O   O1        1.0  0.9130830247439263  0.4583127234393345  0.7587180264863631  1.0000
  O   O2        1.0  0.4130824496574235  0.5416871733272544  0.7412816422794108  1.0000
  O   O3        1.0  0.086917161973723  0.5416871733272544  0.24128164227941076  1.0000
  O   O4        1.0  0.5869167736048624  0.4583127234393345  0.2587180264863633  1.0000
  O   O5        1.0  0.013049039414859501  0.3564058664139083  0.6058382762255832  1.0000
  O   O6        1.0  0.5130486510460059  0.6435940303526806  0.8941613925401839  1.0000
  O   O7        1.0  0.9869511473027899  0.6435931750634438  0.39416110719567843  1.0000
  O   O8        1.0  0.4869515356716435  0.356406721703145  0.10583856157008849  1.0000
  O   O9        1.0  0.9843555985591693  0.3094239734625361  0.41108051464685497  1.0000
  O   O10       1.0  0.4843550234726592  0.6905776338825262  0.08891972480791571  1.0000
  O   O11       1.0  0.015643624703123703  0.6905767785932896  0.5889194394634102  1.0000
  O   O12       1.0  0.5156441997896266  0.3094239734625361  0.9110805146468622  1.0000
  O   O13       1.0  0.886542719903325  0.3909039576955848  0.3085907648127559  1.0000
  O   O14       1.0  0.386542144816822  0.6090967943602337  0.1914091892975165  1.0000
  O   O15       1.0  0.11345650335896103  0.6090967943602337  0.6914091892975165  1.0000
  O   O16       1.0  0.6134580419008273  0.3909039576955848  0.8085907648127557  1.0000
