data_image0
_chemical_formula_structural       Co4H32C40N8O16
_chemical_formula_sum              "Co4 H32 C40 N8 O16"
_cell_length_a       4.869539817005504
_cell_length_b       10.702466910031582
_cell_length_c       19.42324786735105
_cell_angle_alpha    95.15045288421913
_cell_angle_beta     89.99985824710117
_cell_angle_gamma    89.99991498364346

_space_group_name_H-M_alt    "P 1"
_space_group_IT_number       1

loop_
  _space_group_symop_operation_xyz
  'x, y, z'

loop_
  _atom_site_type_symbol
  _atom_site_label
  _atom_site_symmetry_multiplicity
  _atom_site_fract_x
  _atom_site_fract_y
  _atom_site_fract_z
  _atom_site_occupancy
  Co  Co1       1.0  0.3690528528613584  0.6524114737301191  0.7179009990551322  1.0000
  Co  Co2       1.0  0.8690571614435213  0.3475923913007719  0.782098382446975  1.0000
  Co  Co3       1.0  0.6309467774908837  0.34759195646145  0.2820984644639282  1.0000
  Co  Co4       1.0  0.13094246891221667  0.6524091626494837  0.21790099666667123  1.0000
  H   H1        1.0  0.7450424208098666  0.8264337688989514  0.8195480616569171  1.0000
  H   H2        1.0  0.24505647838681446  0.17357303780162428  0.6804535890437435  1.0000
  H   H3        1.0  0.2549469416136744  0.17357251393943332  0.1804541045162793  1.0000
  H   H4        1.0  0.7549534198641793  0.8264313611312702  0.3195479775087406  1.0000
  H   H5        1.0  0.010773202357363199  0.9237575531367811  0.9203266063100841  1.0000
  H   H6        1.0  0.5107988779246568  0.0762447915449656  0.579678079077013  1.0000
  H   H7        1.0  0.9892058921453922  0.0762459612806339  0.0796785245095037  1.0000
  H   H8        1.0  0.4892212882235896  0.9237559161506327  0.42032744032942304  1.0000
  H   H9        1.0  0.5472432974086914  0.7052343338965555  0.05623488793922601  1.0000
  H   H10       1.0  0.04726052233318259  0.2947556006750886  0.4437646371456196  1.0000
  H   H11       1.0  0.4527419578904385  0.2947559702675592  0.9437644999551581  1.0000
  H   H12       1.0  0.9527596438554797  0.7052356569084139  0.5562358233570137  1.0000
  H   H13       1.0  0.9120270800002146  0.8631691640064147  0.03902060919744341  1.0000
  H   H14       1.0  0.4120467059700984  0.13682712190453117  0.4609836076819249  1.0000
  H   H15       1.0  0.0879561216815929  0.13682777590862116  0.960983710993304  1.0000
  H   H16       1.0  0.5879734601894169  0.8631688875316073  0.5390211855024418  1.0000
  H   H17       1.0  0.0706586009956141  0.9566150097736709  0.7289345766178386  1.0000
  H   H18       1.0  0.5706619610752739  0.0433890955619134  0.7710655168231426  1.0000
  H   H19       1.0  0.9293410293462897  0.0433912500922062  0.2710660439264032  1.0000
  H   H20       1.0  0.42933972285400285  0.9566143499411908  0.22893497711228863  1.0000
  H   H21       1.0  0.8501658208708844  0.985320744713775  0.6592223388475276  1.0000
  H   H22       1.0  0.35016854995070185  0.0146850342531408  0.8407786851382256  1.0000
  H   H23       1.0  0.14983175588377412  0.014685530465236197  0.3407793121144351  1.0000
  H   H24       1.0  0.6498331339785748  0.985318411249963  0.15922180879721282  1.0000
  H   H25       1.0  0.17157007858509837  0.9048033413726131  0.6437595146435982  1.0000
  H   H26       1.0  0.671576536236465  0.09520070059674877  0.8562415426829092  1.0000
  H   H27       1.0  0.8284274981721109  0.09520292615023608  0.3562416211098451  1.0000
  H   H28       1.0  0.32842309410973775  0.90480461349231  0.1437585204500991  1.0000
  H   H29       1.0  0.8099107790912682  0.4271952883952963  0.9915674269056537  1.0000
  H   H30       1.0  0.30992111828625457  0.5727954737428077  0.5084303723315956  1.0000
  H   H31       1.0  0.19008269054569377  0.5727968537260965  0.00842946934883321  1.0000
  H   H32       1.0  0.690088780001922  0.4271957532200261  0.4915680273403353  1.0000
  C   C1        1.0  0.49684226217217287  0.7126833828711766  0.8804467888599846  1.0000
  C   C2        1.0  0.9968504245780704  0.2873157148902266  0.6195538430018601  1.0000
  C   C3        1.0  0.5031512074329639  0.28731631780865996  0.11955405147583781  1.0000
  C   C4        1.0  0.0031553665140008997  0.7126830706326499  0.3804485007527632  1.0000
  C   C5        1.0  0.4440423318284275  0.6792318319001325  0.9483332629476918  1.0000
  C   C6        1.0  0.944051054112485  0.32076446969693245  0.5516657314910347  1.0000
  C   C7        1.0  0.555949084210951  0.32076315520870213  0.051665820749690304  1.0000
  C   C8        1.0  0.05596089774400068  0.6792314631807271  0.44833390961080977  1.0000
  C   C9        1.0  0.10790836169028488  0.5284830859321802  0.9047456283694474  1.0000
  C   C10       1.0  0.6079099997204551  0.47151249368256026  0.5952504542294437  1.0000
  C   C11       1.0  0.8920892151125769  0.4715109171165963  0.09525032187205082  1.0000
  C   C12       1.0  0.3920937378253413  0.528483385605128  0.4047455804154509  1.0000
  C   C13       1.0  0.17297639312285898  0.566055722749411  0.8352100826538307  1.0000
  C   C14       1.0  0.6729815756684941  0.4339473264101556  0.6647873250835445  1.0000
  C   C15       1.0  0.8270191300770618  0.43394673869843087  0.16478727782978814  1.0000
  C   C16       1.0  0.3270242154438704  0.5660541969130222  0.3352099931939776  1.0000
  C   C17       1.0  0.8549631690630475  0.7941720216391983  0.6861365026368844  1.0000
  C   C18       1.0  0.35496759110049675  0.20583375358672373  0.8138645181854401  1.0000
  C   C19       1.0  0.1450323541077267  0.2058351916612793  0.3138651905284675  1.0000
  C   C20       1.0  0.6450299856756487  0.7941677927081585  0.1861343457203546  1.0000
  C   C21       1.0  0.703001270307311  0.8018991733229867  0.8716936552371096  1.0000
  C   C22       1.0  0.2030137081562486  0.1981039213298529  0.6283083695793154  1.0000
  C   C23       1.0  0.2969880921214667  0.1981042951534207  0.12830838432795838  1.0000
  C   C24       1.0  0.7969982436795604  0.8018976708964304  0.37169358557288495  1.0000
  C   C25       1.0  0.848903806678301  0.8561882479269374  0.9282074245425918  1.0000
  C   C26       1.0  0.3489210867688115  0.14381286438347018  0.5717949348824263  1.0000
  C   C27       1.0  0.15108144858632497  0.14381242150142984  0.07179551883274371  1.0000
  C   C28       1.0  0.6510970258092498  0.856186874567598  0.42820848148788576  1.0000
  C   C29       1.0  0.5911080161046841  0.7345686267923953  0.00508060042552931  1.0000
  C   C30       1.0  0.09112277907443908  0.2654278557372791  0.4949202215763294  1.0000
  C   C31       1.0  0.40887929276101426  0.2654273214072091  0.9949200711014825  1.0000
  C   C32       1.0  0.9088912263565303  0.7345681001080848  0.5050809651504053  1.0000
  C   C33       1.0  0.7932432418339417  0.8227073792438798  0.9950041579177126  1.0000
  C   C34       1.0  0.2932631245317551  0.17729283834155748  0.504998196000507  1.0000
  C   C35       1.0  0.20673995984854085  0.1772932901852897  0.004998785458298004  1.0000
  C   C36       1.0  0.7067529344667136  0.8227068929541446  0.49500470516196055  1.0000
  C   C37       1.0  0.9938714091394157  0.9177035175477852  0.6781810933957857  1.0000
  C   C38       1.0  0.4938761572996879  0.08230215703200369  0.8218203510533542  1.0000
  C   C39       1.0  0.006126167615242699  0.0823027576312256  0.3218205575661842  1.0000
  C   C40       1.0  0.5061255266278409  0.9177022265917573  0.1781801850847913  1.0000
  N   N1        1.0  0.35163794287788613  0.6565665316867283  0.8247126766747926  1.0000
  N   N2        1.0  0.8516392111731432  0.3434354477133538  0.6752850862789046  1.0000
  N   N3        1.0  0.6483657946523421  0.3434349916372526  0.1752846416034117  1.0000
  N   N4        1.0  0.14836247276983264  0.6565660909237607  0.3247132624170206  1.0000
  N   N5        1.0  0.2464755095419093  0.5892127017546186  0.9577236967366858  1.0000
  N   N6        1.0  0.7464799224594214  0.41078090123765787  0.5422727253076687  1.0000
  N   N7        1.0  0.7535179600976106  0.41077943271061207  0.04227268430927471  1.0000
  N   N8        1.0  0.2535258686643402  0.5892131247764211  0.45772477055669475  1.0000
  O   O1        1.0  0.04723385127166319  0.5101150963817744  0.7835755171188127  1.0000
  O   O2        1.0  0.5472301271211535  0.48988710504175254  0.7164214161117854  1.0000
  O   O3        1.0  0.9527719398467408  0.48988454304392076  0.21642120154476882  1.0000
  O   O4        1.0  0.4527715568337739  0.5101134648500293  0.2835748295473337  1.0000
  O   O5        1.0  0.9292057850059762  0.4451122915450512  0.9114249336025538  1.0000
  O   O6        1.0  0.4292133390323371  0.554878346959086  0.5885707261508345  1.0000
  O   O7        1.0  0.0707876846387734  0.5548770285581953  0.08857132083527831  1.0000
  O   O8        1.0  0.5707883449425849  0.44511283406994545  0.4114245822726588  1.0000
  O   O9        1.0  0.592363381613083  0.7945218022547565  0.6910569153920036  1.0000
  O   O10       1.0  0.09236785332569039  0.20548227850171935  0.8089426485302199  1.0000
  O   O11       1.0  0.4076341951544648  0.2054816355937774  0.3089430633362582  1.0000
  O   O12       1.0  0.9076317770300406  0.7945192754485291  0.19105673058342632  1.0000
  O   O13       1.0  0.99438101260818  0.6941533799672897  0.6885191647776808  1.0000
  O   O14       1.0  0.494387184158981  0.3058513484377984  0.8114817219237693  1.0000
  O   O15       1.0  0.005614510566886099  0.3058528875563624  0.31148197097643765  1.0000
  O   O16       1.0  0.5056103926230762  0.6941511130092407  0.1885156385591671  1.0000
