data_image0
_chemical_formula_structural       Na2V2H32C20N12O12
_chemical_formula_sum              "Na2 V2 H32 C20 N12 O12"
_cell_length_a       7.937115435239276
_cell_length_b       8.686570688592942
_cell_length_c       12.185207910100017
_cell_angle_alpha    102.52467897273739
_cell_angle_beta     107.52297386461616
_cell_angle_gamma    103.72861664496942

_space_group_name_H-M_alt    "P 1"
_space_group_IT_number       1

loop_
  _space_group_symop_operation_xyz
  'x, y, z'

loop_
  _atom_site_type_symbol
  _atom_site_label
  _atom_site_symmetry_multiplicity
  _atom_site_fract_x
  _atom_site_fract_y
  _atom_site_fract_z
  _atom_site_occupancy
  Na  Na1       1.0  0.004207863249334254  0.5472076314213082  0.6559021656769344  1.0000
  Na  Na2       1.0  0.9957365269120756  0.45277342047216257  0.3441015250010934  1.0000
  V   V1        1.0  0.47439197002572797  0.2602610284480776  0.7489049911082545  1.0000
  V   V2        1.0  0.5256018159374918  0.739732483007579  0.2510954634669531  1.0000
  H   H1        1.0  0.5791227385111313  0.16754133454232092  0.37218560192809486  1.0000
  H   H2        1.0  0.42088724182889337  0.8324745915846775  0.627838727017419  1.0000
  H   H3        1.0  0.5440691611561305  0.3625947932400706  0.3789823284164697  1.0000
  H   H4        1.0  0.455923489839904  0.637413684441796  0.6210218807955741  1.0000
  H   H5        1.0  0.25945444716090543  0.11427335704561874  0.2316424970910447  1.0000
  H   H6        1.0  0.7405524000570765  0.8857413361337907  0.7683728244017017  1.0000
  H   H7        1.0  0.2113979622702544  0.24132899805981375  0.3448999528650559  1.0000
  H   H8        1.0  0.788613731329626  0.7586844382596141  0.6551202172137351  1.0000
  H   H9        1.0  0.2721195425443029  0.9031799833055987  0.3344962574206392  1.0000
  H   H10       1.0  0.7278500260506531  0.09680853685751599  0.6655118463502205  1.0000
  H   H11       1.0  0.06410801251034562  0.9491217356073705  0.3260235228550457  1.0000
  H   H12       1.0  0.9358751449153287  0.050900459706952  0.6739875470059146  1.0000
  H   H13       1.0  0.9980719965780124  0.34431361914082  0.9144359362106869  1.0000
  H   H14       1.0  0.0019442330328444857  0.6557198061946607  0.08556443226288478  1.0000
  H   H15       1.0  0.2078482508466095  0.4808008133244571  0.0327575258422641  1.0000
  H   H16       1.0  0.7921980338688711  0.5192026438543281  0.9672513926646146  1.0000
  H   H17       1.0  0.08860445503503199  0.09750896568337453  0.9470419011566732  1.0000
  H   H18       1.0  0.9114049265340182  0.902469592200198  0.05294201639189565  1.0000
  H   H19       1.0  0.10753920108709988  0.2265930990845035  0.0875449544464715  1.0000
  H   H20       1.0  0.8924555362133759  0.7734179202317436  0.9124272294108309  1.0000
  H   H21       1.0  0.4505603160661165  0.3455462390640065  0.14957354027328756  1.0000
  H   H22       1.0  0.5493832046686082  0.6544759883384473  0.8504273747525417  1.0000
  H   H23       1.0  0.39015724947283553  0.1247504932288379  0.10166140403037358  1.0000
  H   H24       1.0  0.6098732415832087  0.8752717408482767  0.8983096242323823  1.0000
  H   H25       1.0  0.8365957170154344  0.6490014823963293  0.43228119344599486  1.0000
  H   H26       1.0  0.1633856896827695  0.3510307291015309  0.5677064781086258  1.0000
  H   H27       1.0  0.03433144401882519  0.7782043069590827  0.5181075817858698  1.0000
  H   H28       1.0  0.9656606830238698  0.2217916760804286  0.4819093494391566  1.0000
  H   H29       1.0  0.24552808228281725  0.829162686538922  0.8829957129895618  1.0000
  H   H30       1.0  0.754454129876265  0.17082085709158426  0.11699929819518926  1.0000
  H   H31       1.0  0.212583369335455  0.9026310299880433  0.7723627364748251  1.0000
  H   H32       1.0  0.7874181015594672  0.0973475287245407  0.22762292756019778  1.0000
  C   C1        1.0  0.5417162029490824  0.2827071723635655  0.5322271987691494  1.0000
  C   C2        1.0  0.45829004786311595  0.717295050471762  0.46778442102578305  1.0000
  C   C3        1.0  0.4986223612894775  0.24579762195850213  0.39895421622095023  1.0000
  C   C4        1.0  0.5013729531638234  0.7542108465376601  0.6010554328562276  1.0000
  C   C5        1.0  0.2883930998161688  0.1547554894158553  0.3288970516043506  1.0000
  C   C6        1.0  0.7116008261879329  0.8452454888849629  0.6711160838892665  1.0000
  C   C7        1.0  0.2170334937711259  0.0018765834352621005  0.36635094669772167  1.0000
  C   C8        1.0  0.7829547793171584  0.9981306367339327  0.6336612435819475  1.0000
  C   C9        1.0  0.27798593328125776  0.0491275235308066  0.5011865761254412  1.0000
  C   C10       1.0  0.7220151041083013  0.9508784365195595  0.4988303586249003  1.0000
  C   C11       1.0  0.24317115703598796  0.3606727991630976  0.8733557482614244  1.0000
  C   C12       1.0  0.7568324664943873  0.639340691441582  0.1266300361400567  1.0000
  C   C13       1.0  0.14567346066009884  0.3594537492129959  0.9609951041554227  1.0000
  C   C14       1.0  0.8543364085692531  0.640565971082303  0.03899450597228337  1.0000
  C   C15       1.0  0.16737060128929218  0.21949280526130363  0.017006468170357874  1.0000
  C   C16       1.0  0.8326326878707633  0.780494499143984  0.9829702439948989  1.0000
  C   C17       1.0  0.3740227828324051  0.2320209285527426  0.07095007497657949  1.0000
  C   C18       1.0  0.6259770857449779  0.7680075228849008  0.9290438784230801  1.0000
  C   C19       1.0  0.4594510921160976  0.23878148251913703  0.9775235782939546  1.0000
  C   C20       1.0  0.540544773963326  0.7612756407471154  0.02248719938444308  1.0000
  N   N1        1.0  0.4321356652299286  0.183777975327466  0.5744564734983654  1.0000
  N   N2        1.0  0.5678504213110995  0.8162304937309133  0.42555548687486316  1.0000
  N   N3        1.0  0.679516905594255  0.40779708592818764  0.6171058985447715  1.0000
  N   N4        1.0  0.3205152373561972  0.592160211176342  0.38290620640067624  1.0000
  N   N5        1.0  0.19231409586010528  0.9710059387326027  0.5588724039052977  1.0000
  N   N6        1.0  0.8076650025982416  0.0289401960286995  0.44111042462451167  1.0000
  N   N7        1.0  0.3930110941619914  0.30381229188635933  0.8876160497824583  1.0000
  N   N8        1.0  0.607049640139877  0.6962597635645266  0.11240226828935106  1.0000
  N   N9        1.0  0.19378438291307273  0.4099188441375574  0.778500723345715  1.0000
  N   N10       1.0  0.8062388171029511  0.5900111020029044  0.22144875357331276  1.0000
  N   N11       1.0  0.5947193929544952  0.1798807970984981  0.9709339165151859  1.0000
  N   N12       1.0  0.40525545546091724  0.820107720487087  0.029074391573935487  1.0000
  O   O1        1.0  0.673200990805334  0.4026812388561964  0.7300059285554994  1.0000
  O   O2        1.0  0.3269006976100214  0.5973222028001358  0.26999733403049214  1.0000
  O   O3        1.0  0.28298814121898624  0.0477724191329543  0.683937204851766  1.0000
  O   O4        1.0  0.7170400150321822  0.9521773750934911  0.3160877279847013  1.0000
  O   O5        1.0  0.31475776139605227  0.39124141191292244  0.7158590288257187  1.0000
  O   O6        1.0  0.6852286754983793  0.6086884866649244  0.2841333618846491  1.0000
  O   O7        1.0  0.6319657959693572  0.20002957098006394  0.8689315427534366  1.0000
  O   O8        1.0  0.36798284049478264  0.7999490256570425  0.13104386624357292  1.0000
  O   O9        1.0  0.9506912522640718  0.6616816270134791  0.4998402463180867  1.0000
  O   O10       1.0  0.0492744889254411  0.3383218782808797  0.5001596027401405  1.0000
  O   O11       1.0  0.15832208945999335  0.8117065208754185  0.8001162535370554  1.0000
  O   O12       1.0  0.8416685488906949  0.18828576249230622  0.1998719088432281  1.0000
