data_image0
_chemical_formula_structural       Cd4H48C56N16O16
_chemical_formula_sum              "Cd4 H48 C56 N16 O16"
_cell_length_a       11.619418641666948
_cell_length_b       13.722437965115406
_cell_length_c       13.83418317281276
_cell_angle_alpha    102.95930814195604
_cell_angle_beta     90.00135653731239
_cell_angle_gamma    115.06768443737903

_space_group_name_H-M_alt    "P 1"
_space_group_IT_number       1

loop_
  _space_group_symop_operation_xyz
  'x, y, z'

loop_
  _atom_site_type_symbol
  _atom_site_label
  _atom_site_symmetry_multiplicity
  _atom_site_fract_x
  _atom_site_fract_y
  _atom_site_fract_z
  _atom_site_occupancy
  Cd  Cd1       1.0  0.44387544033671844  0.43803151551742314  0.8572238466014921  1.0000
  Cd  Cd2       1.0  0.005233475545118526  0.5615187580461624  0.6425875045030907  1.0000
  Cd  Cd3       1.0  0.5561217348234493  0.5619690525500758  0.14277246960789114  1.0000
  Cd  Cd4       1.0  0.9947607974185431  0.43847600785001384  0.3574083045151468  1.0000
  H   H1        1.0  0.18234173458863975  0.18886863797270345  0.5626008024459068  1.0000
  H   H2        1.0  0.9935500595055515  0.8107701416666516  0.9371899462156817  1.0000
  H   H3        1.0  0.8176645129728328  0.8111311413045003  0.43739823825102053  1.0000
  H   H4        1.0  0.006444063176331833  0.18923120626371315  0.06280292078939452  1.0000
  H   H5        1.0  0.06455064045328385  0.22180726291590258  0.6239753955827467  1.0000
  H   H6        1.0  0.8425604893849796  0.7772680191148001  0.8757691657260552  1.0000
  H   H7        1.0  0.9354525596260146  0.7781933061936716  0.37602092092272704  1.0000
  H   H8        1.0  0.1574320371926277  0.22272669663614417  0.12422301814334702  1.0000
  H   H9        1.0  0.12721515363077884  0.2899104181764899  0.4597703857027041  1.0000
  H   H10       1.0  0.8373875682537032  0.7102403430982278  0.04038044132494886  1.0000
  H   H11       1.0  0.8727889473193076  0.7100867902783538  0.5402223267617074  1.0000
  H   H12       1.0  0.16261694791006687  0.28975941594224264  0.9596171492616816  1.0000
  H   H13       1.0  0.27878330493064146  0.37879736436892136  0.5250321314403051  1.0000
  H   H14       1.0  0.9000481873682844  0.6211025076943459  0.9756489538685429  1.0000
  H   H15       1.0  0.7212194748393016  0.6212023644653186  0.47496328402317534  1.0000
  H   H16       1.0  0.09994438437350078  0.3788888572224991  0.02434035093035188  1.0000
  H   H17       1.0  0.25849028028252263  0.18858951785266956  0.8527338618090283  1.0000
  H   H18       1.0  0.06893891094664194  0.8107581365148636  0.6468703636171681  1.0000
  H   H19       1.0  0.7415098472344541  0.811413511521558  0.14726080753382587  1.0000
  H   H20       1.0  0.9310668411645864  0.189244093504101  0.3531263050311892  1.0000
  H   H21       1.0  0.2569329783453185  0.0053512262458780945  0.8622646598001678  1.0000
  H   H22       1.0  0.2505760087621667  0.9941362285355453  0.6373034976254884  1.0000
  H   H23       1.0  0.7430607438125777  0.9946527618467443  0.137739610400466  1.0000
  H   H24       1.0  0.7494349326456059  0.005864331944330601  0.36269209424783355  1.0000
  H   H25       1.0  0.6689379200004026  0.17039704635423197  0.8927744730820705  1.0000
  H   H26       1.0  0.4979694636838659  0.8296075871416662  0.6074269806653659  1.0000
  H   H27       1.0  0.3310555471182824  0.8295995493373668  0.10723401312828429  1.0000
  H   H28       1.0  0.5020322604966694  0.170381428217084  0.39257194673356816  1.0000
  H   H29       1.0  0.653156509053936  0.34802847020301203  0.8892346441826432  1.0000
  H   H30       1.0  0.30443633539533016  0.6517571008369175  0.6106618504427104  1.0000
  H   H31       1.0  0.346842912938655  0.6519697072374557  0.1107683942369988  1.0000
  H   H32       1.0  0.6955609599703578  0.3482385456591858  0.389337759795815  1.0000
  H   H33       1.0  0.19347199652095545  0.6943574619117501  0.8675846980841867  1.0000
  H   H34       1.0  0.49839315930943673  0.3050958377194562  0.6318252641916969  1.0000
  H   H35       1.0  0.8065452746072309  0.3056540322658067  0.13242333239014667  1.0000
  H   H36       1.0  0.501597715808366  0.6948990173067461  0.3681770697729831  1.0000
  H   H37       1.0  0.2252293047080656  0.5228982336850977  0.860088274563928  1.0000
  H   H38       1.0  0.7016791703576146  0.4765854770011162  0.6388893761850482  1.0000
  H   H39       1.0  0.7747786091024552  0.47710487678493524  0.13991219526241142  1.0000
  H   H40       1.0  0.2983069510600204  0.523406756908628  0.3611030043559893  1.0000
  H   H41       1.0  0.6136937220439691  0.6885101194263897  0.8436194666585093  1.0000
  H   H42       1.0  0.9247507803516866  0.3117947753249339  0.6576290837058278  1.0000
  H   H43       1.0  0.3863119450336897  0.31149366139087686  0.1563695788644921  1.0000
  H   H44       1.0  0.0752442930626247  0.688205031925499  0.342372131479749  1.0000
  H   H45       1.0  0.6011170535237657  0.8699225444249099  0.8556601985232462  1.0000
  H   H46       1.0  0.7306997491010703  0.1302973975618684  0.6457918624680515  1.0000
  H   H47       1.0  0.39889848620671836  0.13008892951591378  0.14434638184079057  1.0000
  H   H48       1.0  0.26929713055316273  0.869704299747589  0.3542263801136301  1.0000
  C   C1        1.0  0.25555140411949406  0.31536439669180544  0.697568750195792  1.0000
  C   C2        1.0  0.9400890492242838  0.6838094570559292  0.8025386252638212  1.0000
  C   C3        1.0  0.7444554988060688  0.68464357538376  0.3024240754820156  1.0000
  C   C4        1.0  0.05990474327749956  0.3161877894905062  0.1974569867443989  1.0000
  C   C5        1.0  0.16225091140603357  0.25795770689754255  0.6030498047322226  1.0000
  C   C6        1.0  0.904317948280479  0.7414524127383048  0.8969535165787617  1.0000
  C   C7        1.0  0.8377513779097966  0.7420444826479553  0.3969439636955413  1.0000
  C   C8        1.0  0.0956707101807268  0.2585414521723308  0.1030370410666066  1.0000
  C   C9        1.0  0.17684727507224807  0.3353162337545399  0.5348439517688915  1.0000
  C   C10       1.0  0.8416309399447428  0.6644990232813871  0.9654853836342951  1.0000
  C   C11       1.0  0.8231498400349511  0.6646859349587546  0.46514836637938123  1.0000
  C   C12       1.0  0.15836744108661802  0.3355056762274061  0.03451036265279582  1.0000
  C   C13       1.0  0.13157690771812716  0.42356732763202837  0.576435901684313  1.0000
  C   C14       1.0  0.7080865421032384  0.5761509560394629  0.9240181157122718  1.0000
  C   C15       1.0  0.8684204128272625  0.5764249281519797  0.423557929432306  1.0000
  C   C16       1.0  0.2919029067168212  0.42384965056623264  0.07598110016780879  1.0000
  C   C17       1.0  0.3464493281454608  0.18013125153562026  0.8642995483988685  1.0000
  C   C18       1.0  0.16546390213135717  0.8194034723698921  0.6354001320623154  1.0000
  C   C19       1.0  0.6535512546536992  0.8198726879004358  0.1357010970759163  1.0000
  C   C20       1.0  0.8345389376915691  0.1805946558185454  0.3645992814622757  1.0000
  C   C21       1.0  0.34586409134470836  0.07973574784092112  0.8681083567393273  1.0000
  C   C22       1.0  0.2652682855392144  0.9198779132446477  0.6316338749269689  1.0000
  C   C23       1.0  0.6541314273595448  0.920264949532339  0.13189738455248093  1.0000
  C   C24       1.0  0.7347401388094568  0.08012105611232562  0.3683664398934069  1.0000
  C   C25       1.0  0.4638631601089073  0.0756061452203838  0.8778544707811091  1.0000
  C   C26       1.0  0.38745568063040997  0.9241377653867889  0.6220896977573886  1.0000
  C   C27       1.0  0.5361340599167762  0.9243962328524093  0.1221530726369835  1.0000
  C   C28       1.0  0.612549325887926  0.07586125322221451  0.377914241958038  1.0000
  C   C29       1.0  0.5767237288500411  0.17258321366635  0.88549453651148  1.0000
  C   C30       1.0  0.40346154850902144  0.8272506903366196  0.6145635724995414  1.0000
  C   C31       1.0  0.4232726906254456  0.8274158433319769  0.11451230283234537  1.0000
  C   C32       1.0  0.5965413965310659  0.17274248637192366  0.3854369600156459  1.0000
  C   C33       1.0  0.5681258319689917  0.2701237461451811  0.8829562862930372  1.0000
  C   C34       1.0  0.2973146484654878  0.7296331108904897  0.6169698390022518  1.0000
  C   C35       1.0  0.43187525127653004  0.7298777525186112  0.11704745624317073  1.0000
  C   C36       1.0  0.7026809655632391  0.27036089478408354  0.38303086916138795  1.0000
  C   C37       1.0  0.39672821130014324  0.7958797361600606  0.8650980271852832  1.0000
  C   C38       1.0  0.6002609691748688  0.20394239067319123  0.6351573149496018  1.0000
  C   C39       1.0  0.6032775705886877  0.20412599423549693  0.1349123957263174  1.0000
  C   C40       1.0  0.3997324979438164  0.7960542050184076  0.3648511712607458  1.0000
  C   C41       1.0  0.2890841706621003  0.6975832786685388  0.865410694267183  1.0000
  C   C42       1.0  0.5908614878145144  0.30207236628572803  0.6343177677456494  1.0000
  C   C43       1.0  0.7109249889885589  0.302424042998787  0.134595005739655  1.0000
  C   C44       1.0  0.4091306983916426  0.6979216687018736  0.3656851152873415  1.0000
  C   C45       1.0  0.3060436258030421  0.6018007796026339  0.860661909455679  1.0000
  C   C46       1.0  0.7035883701083419  0.39783247175911646  0.6388834214161178  1.0000
  C   C47       1.0  0.6939663645736329  0.39820648239656015  0.13933944051636618  1.0000
  C   C48       1.0  0.296401204012902  0.6021615029648828  0.3611151114128859  1.0000
  C   C49       1.0  0.5238365978523234  0.6953170304349642  0.8518349694756606  1.0000
  C   C50       1.0  0.8279799707927323  0.3047318405998213  0.6489658869340076  1.0000
  C   C51       1.0  0.4761743234714118  0.30468521044670643  0.14816242443934155  1.0000
  C   C52       1.0  0.17201467721654506  0.695268836685571  0.3510384042898166  1.0000
  C   C53       1.0  0.5166837403052186  0.7945625552375265  0.8574445418182676  1.0000
  C   C54       1.0  0.7215757360173568  0.20548848466573597  0.643491985413192  1.0000
  C   C55       1.0  0.48332417340574807  0.2054422755122971  0.1425606301011442  1.0000
  C   C56       1.0  0.27842236969165407  0.7945139434034232  0.3565191831114446  1.0000
  N   N1        1.0  0.4553247027833791  0.27355775386276093  0.8717434805709984  1.0000
  N   N2        1.0  0.18100577739322438  0.7260674883735306  0.6279834482210093  1.0000
  N   N3        1.0  0.5446759501605529  0.7264428845867104  0.12825791089751704  1.0000
  N   N4        1.0  0.8189957112728478  0.2739331003773061  0.3720143182255668  1.0000
  N   N5        1.0  0.47987127411992264  0.9789211508820801  0.877493972307377  1.0000
  N   N6        1.0  0.5002350165226089  0.020859799561925695  0.6224466434279063  1.0000
  N   N7        1.0  0.5201276071586918  0.021084548414037806  0.12251427522727448  1.0000
  N   N8        1.0  0.4997700000875228  0.9791375187062815  0.37755404422014754  1.0000
  N   N9        1.0  0.37688150617891136  0.8920015023831668  0.8701138830501023  1.0000
  N   N10       1.0  0.4842341240235442  0.10779969706715781  0.6300811096611836  1.0000
  N   N11       1.0  0.6231226644181759  0.10800100648405933  0.1299030858734156  1.0000
  N   N12       1.0  0.5157653879987408  0.892196939544512  0.36993027689665325  1.0000
  N   N13       1.0  0.4209062069871479  0.6008557025180608  0.8547882281258834  1.0000
  N   N14       1.0  0.8194317749893258  0.3989202441521088  0.6451401159346659  1.0000
  N   N15       1.0  0.5791076115369833  0.3991523305654354  0.1452089479674044  1.0000
  N   N16       1.0  0.18056246280239924  0.6010778925171607  0.35486002217978546  1.0000
  O   O1        1.0  0.3726557553956837  0.37405344997704054  0.686674871757077  1.0000
  O   O2        1.0  0.9988673739010068  0.6254962516021723  0.8135179921614508  1.0000
  O   O3        1.0  0.6273470739752797  0.6259635841875167  0.3133148147283435  1.0000
  O   O4        1.0  0.0011306218933954024  0.3745059571379913  0.1864772260805196  1.0000
  O   O5        1.0  0.21709505788622607  0.3023337407408704  0.7816144201336499  1.0000
  O   O6        1.0  0.9141508573085064  0.6964293935348708  0.7183877301509297  1.0000
  O   O7        1.0  0.7829153329148892  0.6976726013758637  0.21838022873591706  1.0000
  O   O8        1.0  0.08584088370726317  0.303562031050106  0.2816059246827507  1.0000
  O   O9        1.0  0.12558803187248915  0.4522856609494356  0.6691548851219478  1.0000
  O   O10       1.0  0.6734746564433323  0.5468515370490296  0.8312086894861891  1.0000
  O   O11       1.0  0.8744182057962959  0.5477123781089689  0.33083800345620756  1.0000
  O   O12       1.0  0.3265160483086619  0.453151580413163  0.1687925045070173  1.0000
  O   O13       1.0  0.09955886530212876  0.46855559089357984  0.5155387225583822  1.0000
  O   O14       1.0  0.6308622056931127  0.5316869734764397  0.9849795360397806  1.0000
  O   O15       1.0  0.9004282018518167  0.5314350923667278  0.4844612811502955  1.0000
  O   O16       1.0  0.36913289769790936  0.46831289359099065  0.015026029222894996  1.0000
