data_image0
_chemical_formula_structural       Co8H96C148N16O32
_chemical_formula_sum              "Co8 H96 C148 N16 O32"
_cell_length_a       11.339336812532961
_cell_length_b       17.543184512299547
_cell_length_c       26.338908433054815
_cell_angle_alpha    89.99961996494031
_cell_angle_beta     89.99904242873029
_cell_angle_gamma    90.0005530535323

_space_group_name_H-M_alt    "P 1"
_space_group_IT_number       1

loop_
  _space_group_symop_operation_xyz
  'x, y, z'

loop_
  _atom_site_type_symbol
  _atom_site_label
  _atom_site_symmetry_multiplicity
  _atom_site_fract_x
  _atom_site_fract_y
  _atom_site_fract_z
  _atom_site_occupancy
  Co  Co1       1.0  0.06474577745214562  0.2637760744709823  0.3567983285626397  1.0000
  Co  Co2       1.0  0.9352587273957054  0.7637772401982089  0.6432026808787938  1.0000
  Co  Co3       1.0  0.06473686919993328  0.7637804309117654  0.1432029524889131  1.0000
  Co  Co4       1.0  0.9352632262872546  0.2637751638446346  0.8567953992982495  1.0000
  Co  Co5       1.0  0.9770998999804944  0.4843806559901651  0.3930967294858335  1.0000
  Co  Co6       1.0  0.022915828232740396  0.984381607679886  0.6069036862515986  1.0000
  Co  Co7       1.0  0.977079164857173  0.9843836642816299  0.1069038118802936  1.0000
  Co  Co8       1.0  0.0229083430771553  0.4843825894631876  0.8930947056181395  1.0000
  H   H1        1.0  0.9522945762275015  0.19522198578146538  0.9938315399551813  1.0000
  H   H2        1.0  0.04769391531502269  0.6952347829579609  0.0061731889843770005  1.0000
  H   H3        1.0  0.9523112418496423  0.6952254286213062  0.5061739330559192  1.0000
  H   H4        1.0  0.04770017864082377  0.19522221983505975  0.4938315551537258  1.0000
  H   H5        1.0  0.013804250990652599  0.5568184261374896  0.2557325543034139  1.0000
  H   H6        1.0  0.9861513130845054  0.05683341035350511  0.7442545614114522  1.0000
  H   H7        1.0  0.013833378055743098  0.056840272846386604  0.2442624148963688  1.0000
  H   H8        1.0  0.9861715715207423  0.5568292344184868  0.7557368499274446  1.0000
  H   H9        1.0  0.12809547296077284  0.40566206237626556  0.0299277484058535  1.0000
  H   H10       1.0  0.8718970355811491  0.9056732530098729  0.9700684587101306  1.0000
  H   H11       1.0  0.12809070076254866  0.9056728498157868  0.47007244829946165  1.0000
  H   H12       1.0  0.8719088627526687  0.40566303558406963  0.5299298334530249  1.0000
  H   H13       1.0  0.12454506168450759  0.2209077115100655  0.1382196725293383  1.0000
  H   H14       1.0  0.8754605683313625  0.7209131639322309  0.861782285371149  1.0000
  H   H15       1.0  0.12454270662100698  0.7209167286751353  0.3617817446783249  1.0000
  H   H16       1.0  0.8754620415044697  0.22091041699245306  0.6382228708767032  1.0000
  H   H17       1.0  0.2806153613183824  0.3971546226366415  0.0979824275803054  1.0000
  H   H18       1.0  0.7193858392041649  0.8971598377414549  0.9020187527170479  1.0000
  H   H19       1.0  0.2806079253060787  0.897166088684685  0.4020159439356448  1.0000
  H   H20       1.0  0.7193906295710875  0.3971529318549401  0.5979863753605841  1.0000
  H   H21       1.0  0.27494075724640515  0.3235314832566872  0.1437965820138558  1.0000
  H   H22       1.0  0.7250540552099594  0.8235389007368995  0.8562041638017776  1.0000
  H   H23       1.0  0.2749368538520898  0.8235456862473569  0.3562002570366829  1.0000
  H   H24       1.0  0.7250667774795615  0.32353096800753184  0.6438020073990316  1.0000
  H   H25       1.0  0.5627741739116132  0.4597694188138631  0.47020702089174904  1.0000
  H   H26       1.0  0.43722884133248385  0.9597800009670721  0.5297935034577607  1.0000
  H   H27       1.0  0.5627705259205199  0.9597800362820904  0.0298027010727679  1.0000
  H   H28       1.0  0.43722455231714  0.45977166354852284  0.9702004809656088  1.0000
  H   H29       1.0  0.1360168167108569  0.33178289081470774  0.21711901150546714  1.0000
  H   H30       1.0  0.8639957563228291  0.831787918206068  0.782883975843852  1.0000
  H   H31       1.0  0.1359945787458372  0.8317932646763994  0.2828841115849983  1.0000
  H   H32       1.0  0.8640021203872549  0.331784384556073  0.717119255473115  1.0000
  H   H33       1.0  0.255982733761897  0.22141911431777575  0.4306417168056528  1.0000
  H   H34       1.0  0.7440193763607325  0.72142780060031  0.5693598591776166  1.0000
  H   H35       1.0  0.2559899046479188  0.7214167968406215  0.06936216425260971  1.0000
  H   H36       1.0  0.7440130873724229  0.22142384785406216  0.9306363744096586  1.0000
  H   H37       1.0  0.8721651186979215  0.1963726063885504  0.42280284788038364  1.0000
  H   H38       1.0  0.12784279168327117  0.696397881480337  0.577195801221464  1.0000
  H   H39       1.0  0.8721631683649277  0.6964038420201818  0.07719934355786513  1.0000
  H   H40       1.0  0.1278403327555822  0.1963843165243944  0.9227974071886678  1.0000
  H   H41       1.0  0.16383848762134076  0.515483918793592  0.1084761901061739  1.0000
  H   H42       1.0  0.8361332164115964  0.015497066317088604  0.8915156639239612  1.0000
  H   H43       1.0  0.1638672207853489  0.015504867174868807  0.3915148387195728  1.0000
  H   H44       1.0  0.8361318216867061  0.51549207859955  0.6084842288391172  1.0000
  H   H45       1.0  0.6515675909196688  0.3329179071548722  0.2912341108652328  1.0000
  H   H46       1.0  0.3484414716747821  0.8329432500053429  0.7087665934454249  1.0000
  H   H47       1.0  0.6515455689063927  0.8329489708277648  0.2087683147668713  1.0000
  H   H48       1.0  0.348443210596237  0.33294011736281703  0.7912285928909881  1.0000
  H   H49       1.0  0.6542422173787585  0.19404393298281516  0.427281807135607  1.0000
  H   H50       1.0  0.3457647764860781  0.6940763159307509  0.5727164725617655  1.0000
  H   H51       1.0  0.6542422038476303  0.6940797734765668  0.0727166557857828  1.0000
  H   H52       1.0  0.3457612627588206  0.19406099624974624  0.9272747898828796  1.0000
  H   H53       1.0  0.3958551443120939  0.4093892900083134  0.4557788918521553  1.0000
  H   H54       1.0  0.6041541755338854  0.9094093226088874  0.5442233734018842  1.0000
  H   H55       1.0  0.3958456480668815  0.9094174342609379  0.044232259947655506  1.0000
  H   H56       1.0  0.6041442703365547  0.4093999889948705  0.9557749409989854  1.0000
  H   H57       1.0  0.47486490826076977  0.22062687017893987  0.43628049233184646  1.0000
  H   H58       1.0  0.5251371902369898  0.7206524844282073  0.5637184294443927  1.0000
  H   H59       1.0  0.4748749427511783  0.7206474098345125  0.063719530666198  1.0000
  H   H60       1.0  0.5251306834352079  0.22064163517550384  0.9362755944113559  1.0000
  H   H61       1.0  0.4801307458946908  0.3097967528608691  0.2828961676418729  1.0000
  H   H62       1.0  0.5198735626319361  0.8097985738388613  0.7171057777501774  1.0000
  H   H63       1.0  0.48012163006726627  0.8098049325500157  0.21710722059494  1.0000
  H   H64       1.0  0.5198888518705758  0.3098029346818977  0.7828886500838266  1.0000
  H   H65       1.0  0.2621452819779151  0.3097612863444042  0.285602839051279  1.0000
  H   H66       1.0  0.7378616715869981  0.8097587974528863  0.7144021438288348  1.0000
  H   H67       1.0  0.2621309791439471  0.8097518223114761  0.21440364507446935  1.0000
  H   H68       1.0  0.7378768563534096  0.30976370133391384  0.7855971614815048  1.0000
  H   H69       1.0  0.8676401323866398  0.3247718296094746  0.2911813329465502  1.0000
  H   H70       1.0  0.1323670449612422  0.8247878402042803  0.7088220649980457  1.0000
  H   H71       1.0  0.8676225176826333  0.8247977625611328  0.2088233621168598  1.0000
  H   H72       1.0  0.13237143163659226  0.3247886982573931  0.7911769984848435  1.0000
  H   H73       1.0  0.38684415064398797  0.5562304210386273  0.3237279497005474  1.0000
  H   H74       1.0  0.6131854827758545  0.056247170414323505  0.6762754939944172  1.0000
  H   H75       1.0  0.38680358766176676  0.0562386948730591  0.1762920392814848  1.0000
  H   H76       1.0  0.6131740143270507  0.556220085685723  0.823712923309003  1.0000
  H   H77       1.0  0.5659612751897569  0.5129247743619133  0.30974086478085644  1.0000
  H   H78       1.0  0.4340447840708279  0.012941403967182902  0.6902623904021965  1.0000
  H   H79       1.0  0.565956329698956  0.0129397491344321  0.1902719446461134  1.0000
  H   H80       1.0  0.4340506114053682  0.5129247191240507  0.8097328292033481  1.0000
  H   H81       1.0  0.7816953458520004  0.4640076589309886  0.4677129500410828  1.0000
  H   H82       1.0  0.2183112599198509  0.9640094366985681  0.5322921116127688  1.0000
  H   H83       1.0  0.7816854283493055  0.9640154014006943  0.032296688140427  1.0000
  H   H84       1.0  0.2183053036053053  0.46401480469132383  0.9677068548760988  1.0000
  H   H85       1.0  0.7854819724295367  0.5165228423923125  0.3151347434484606  1.0000
  H   H86       1.0  0.21452414040283682  0.016529602496163406  0.6848662178823943  1.0000
  H   H87       1.0  0.7854807627709092  0.016526470555497504  0.1848715263355132  1.0000
  H   H88       1.0  0.21452799569179595  0.5165174240216786  0.8151275366723497  1.0000
  H   H89       1.0  0.17868550016788728  0.4138997617160172  0.4563328414806023  1.0000
  H   H90       1.0  0.8213221230095654  0.9139086176152772  0.5436697835700102  1.0000
  H   H91       1.0  0.17868219865921015  0.91392734152938  0.0436703698429142  1.0000
  H   H92       1.0  0.8213121964834187  0.41390896884677625  0.9563299771952032  1.0000
  H   H93       1.0  0.16845381894292902  0.5505249347341133  0.3285053359298402  1.0000
  H   H94       1.0  0.8315704381545997  0.050532267228298615  0.6714950956468969  1.0000
  H   H95       1.0  0.1684160862993167  0.0505355363592344  0.17150334948848212  1.0000
  H   H96       1.0  0.8315614308710124  0.5505193853787276  0.8284951839300803  1.0000
  C   C1        1.0  0.0012103833132357997  0.23043867878357818  0.020645749099529098  1.0000
  C   C2        1.0  0.9987786329027343  0.7304511404317395  0.9793565464604299  1.0000
  C   C3        1.0  0.0012202447282518999  0.7304453835456641  0.47935727761117153  1.0000
  C   C4        1.0  0.9987872910186935  0.23043987554261497  0.5206469162241376  1.0000
  C   C5        1.0  0.0341787274263297  0.3047765481878955  0.0074919215093558  1.0000
  C   C6        1.0  0.9658131599875757  0.8047875324441732  0.9925096663906176  1.0000
  C   C7        1.0  0.03418278970296739  0.8047825517530357  0.49250977939611573  1.0000
  C   C8        1.0  0.9658196802813706  0.3047775387510043  0.5074933271402031  1.0000
  C   C9        1.0  0.0699789116383016  0.4408186405700647  0.2411367098017507  1.0000
  C   C10       1.0  0.9300017742538955  0.9408288805972378  0.7588582032452535  1.0000
  C   C11       1.0  0.0699840576644917  0.9408321041500403  0.2588603351916419  1.0000
  C   C12       1.0  0.9300177934751443  0.44082567745558526  0.7411391337536345  1.0000
  C   C13       1.0  0.1385881462341203  0.3183891680526117  0.0878205830785319  1.0000
  C   C14       1.0  0.8614109990732571  0.8183974502118263  0.9121790464085818  1.0000
  C   C15       1.0  0.1385838454199586  0.8184011027985251  0.4121787837713456  1.0000
  C   C16       1.0  0.8614161817844277  0.3183929257424793  0.5878231236949604  1.0000
  C   C17       1.0  0.0523781708977467  0.5174432780526103  0.2283418448872965  1.0000
  C   C18       1.0  0.9475768065889765  0.0174583179027721  0.7716458242232633  1.0000
  C   C19       1.0  0.0524080042884805  0.017466561714734003  0.27165074097347036  1.0000
  C   C20       1.0  0.9475937130842451  0.5174544150796407  0.7283475585860161  1.0000
  C   C21       1.0  0.543036668067522  0.48536203309618736  0.3897492596273082  1.0000
  C   C22       1.0  0.45697378351903944  0.9853770666221349  0.610253050100482  1.0000
  C   C23       1.0  0.543025504288252  0.985375268372046  0.1102635295633476  1.0000
  C   C24       1.0  0.4569690732749905  0.48535813106781234  0.8897406785667172  1.0000
  C   C25       1.0  0.4130713802981417  0.48316191233541156  0.38968557096483636  1.0000
  C   C26       1.0  0.5869443298515974  0.9831811782266086  0.6103171281082211  1.0000
  C   C27       1.0  0.41305315895263567  0.9831797071154117  0.1103300665104996  1.0000
  C   C28       1.0  0.5869378583452018  0.48315768314813584  0.8896730123309026  1.0000
  C   C29       1.0  0.0369801844530997  0.41210228591624076  0.2925608155493862  1.0000
  C   C30       1.0  0.9630194750668366  0.9121126751260822  0.7074376411262975  1.0000
  C   C31       1.0  0.03697144196983259  0.9121242425320449  0.20743697456974533  1.0000
  C   C32       1.0  0.963030863365333  0.41210895922618107  0.7925603430567564  1.0000
  C   C33       1.0  0.07295544616211198  0.6256275435082371  0.16658878284506068  1.0000
  C   C34       1.0  0.9270090799024544  0.12563784876565626  0.8333987885876439  1.0000
  C   C35       1.0  0.07298995044217799  0.12564223111552766  0.3334020378325491  1.0000
  C   C36       1.0  0.9270133784957507  0.6256351316911548  0.6665954047612317  1.0000
  C   C37       1.0  0.102496329623861  0.3481546934514482  0.0411258502998635  1.0000
  C   C38       1.0  0.8974953221773916  0.8481655858188121  0.9588725088806387  1.0000
  C   C39       1.0  0.102496399191466  0.8481655925677669  0.458874405645922  1.0000
  C   C40       1.0  0.8975067170413452  0.348155256737563  0.5411285094893188  1.0000
  C   C41       1.0  0.10021207673646158  0.2454358619116661  0.10159783949485052  1.0000
  C   C42       1.0  0.8997833360843686  0.745445661491111  0.8984040102122605  1.0000
  C   C43       1.0  0.1002127172278549  0.7454473640224463  0.3984032658455022  1.0000
  C   C44       1.0  0.8997923963077453  0.24543814954907364  0.6016016211493495  1.0000
  C   C45       1.0  0.22031482690844936  0.3636210643213502  0.12190854035629431  1.0000
  C   C46       1.0  0.7796841103470908  0.8636297452602549  0.8780908895628629  1.0000
  C   C47       1.0  0.2203083146668376  0.8636350490422161  0.3780892763472394  1.0000
  C   C48       1.0  0.7796906225883546  0.36362260078937686  0.6219128112220176  1.0000
  C   C49       1.0  0.0008394643665568  0.3364295890245401  0.9568346553481676  1.0000
  C   C50       1.0  0.9991573041163733  0.8364456880317521  0.04316375553472081  1.0000
  C   C51       1.0  0.0008414734407509  0.8364355130390848  0.5431656879661233  1.0000
  C   C52       1.0  0.99916411374803  0.3364272235470552  0.456835760244175  1.0000
  C   C53       1.0  0.6302038387571329  0.2640827904817797  0.35961112959112995  1.0000
  C   C54       1.0  0.36980243464392265  0.7641095187889421  0.640388739434883  1.0000
  C   C55       1.0  0.6301950393072316  0.7641139660032366  0.1403898559236936  1.0000
  C   C56       1.0  0.36980417929035525  0.2641005741312128  0.8596039384155106  1.0000
  C   C57       1.0  0.6074168933061515  0.4716330332829913  0.4344392158189621  1.0000
  C   C58       1.0  0.39259423561667023  0.971644689646041  0.5655631544876059  1.0000
  C   C59       1.0  0.6074030455147224  0.9716444340985436  0.0655716495367002  1.0000
  C   C60       1.0  0.3925886819230441  0.4716355688537774  0.9344314801679232  1.0000
  C   C61       1.0  0.12289677362294778  0.3911974307557884  0.20618149664882424  1.0000
  C   C62       1.0  0.8770999288042913  0.8912064212676116  0.7938170522750312  1.0000
  C   C63       1.0  0.12288557801917929  0.8912139658495591  0.2938176624969699  1.0000
  C   C64       1.0  0.8771111244416756  0.39120128659931197  0.7061835440669241  1.0000
  C   C65       1.0  0.0327384305331151  0.20122434657135096  0.0680933757512534  1.0000
  C   C66       1.0  0.9672545598183787  0.7012319539580505  0.9319113267004367  1.0000
  C   C67       1.0  0.0327448324931723  0.7012315244455963  0.43190993144537515  1.0000
  C   C68       1.0  0.9672640318280229  0.2012281962650562  0.5680947709413502  1.0000
  C   C69       1.0  0.4999995803241645  0.2649904278554303  0.35969056919082487  1.0000
  C   C70       1.0  0.5000049427647468  0.7650088509471118  0.6403092958552464  1.0000
  C   C71       1.0  0.4999978389581443  0.765010773777206  0.1403098356105374  1.0000
  C   C72       1.0  0.5000066843352826  0.2650021855783038  0.8596847140749873  1.0000
  C   C73       1.0  0.3102917789208561  0.24073007498674304  0.3990103263684119  1.0000
  C   C74       1.0  0.6897088551109789  0.7407398162461476  0.6009915440823548  1.0000
  C   C75       1.0  0.3103021380359934  0.7407331423229735  0.10099421556677163  1.0000
  C   C76       1.0  0.6897064330180883  0.2407356089060073  0.8990046175261597  1.0000
  C   C77       1.0  0.8191839526314479  0.22605305425703653  0.3944494831696588  1.0000
  C   C78       1.0  0.1808252818142577  0.726081228102622  0.6055490349677797  1.0000
  C   C79       1.0  0.8191756163595301  0.7260879973008798  0.1055518216214892  1.0000
  C   C80       1.0  0.18082215380670155  0.22606908591740904  0.8944432795090196  1.0000
  C   C81       1.0  0.0012418926877443997  0.12144447703082761  0.08231331342928878  1.0000
  C   C82       1.0  0.9987472634787193  0.6214524231822055  0.9176932596984173  1.0000
  C   C83       1.0  0.0012523711694570003  0.6214506566633914  0.4176909532790276  1.0000
  C   C84       1.0  0.9987579502925994  0.12144624362530013  0.5823137214398386  1.0000
  C   C85       1.0  0.1380424468250254  0.49322657677218723  0.1455492432084284  1.0000
  C   C86       1.0  0.8619249097038093  0.9932399981001935  0.8544427809853303  1.0000
  C   C87       1.0  0.1380685953372378  0.9932470675944245  0.3544436610626391  1.0000
  C   C88       1.0  0.8619305090365117  0.493234327907821  0.645556335979144  1.0000
  C   C89       1.0  0.6949458526825296  0.30089007054149874  0.32126867855429714  1.0000
  C   C90       1.0  0.3050600871067601  0.8009125914569708  0.6787321670840285  1.0000
  C   C91       1.0  0.6949346910004337  0.80091915365707  0.17873243553500373  1.0000
  C   C92       1.0  0.3050641939907948  0.3009074492690401  0.8212627150791931  1.0000
  C   C93       1.0  0.086372461221373  0.543576849205685  0.1803719466462539  1.0000
  C   C94       1.0  0.9135802599274071  0.043590058063365716  0.8196148478395672  1.0000
  C   C95       1.0  0.0864119070720051  0.04359224428797151  0.3196191389631338  1.0000
  C   C96       1.0  0.9135893176456024  0.543586063510908  0.6803798046486591  1.0000
  C   C97       1.0  0.15851549159162198  0.416986712857316  0.15838851785952096  1.0000
  C   C98       1.0  0.8414736580813127  0.9169955740340189  0.8416083986411279  1.0000
  C   C99       1.0  0.1585174428721814  0.9169982112637599  0.3416076121171585  1.0000
  C   C100      1.0  0.841482289406727  0.41698977586300157  0.6583927213307348  1.0000
  C   C101      1.0  0.6966705679741025  0.2255379301850766  0.3966838848884464  1.0000
  C   C102      1.0  0.3033333675204446  0.7255691726330298  0.6033138762012626  1.0000
  C   C103      1.0  0.6966693731003489  0.7255734655642527  0.10331527113590512  1.0000
  C   C104      1.0  0.3033319169830406  0.22555586812190853  0.8966783135833225  1.0000
  C   C105      1.0  0.3502562805165468  0.44283646805152443  0.42699722836677273  1.0000
  C   C106      1.0  0.6497561832944994  0.9428564988688423  0.5730029909711973  1.0000
  C   C107      1.0  0.35024214552048955  0.9428597651261231  0.0730122074393478  1.0000
  C   C108      1.0  0.6497465073800369  0.44283890192966885  0.9269899103044495  1.0000
  C   C109      1.0  0.4327786088319456  0.24021115581741276  0.4014625297506599  1.0000
  C   C110      1.0  0.5672246632574911  0.7402315559082098  0.5985366852913927  1.0000
  C   C111      1.0  0.43277759825821954  0.7402273580886528  0.0985392300268302  1.0000
  C   C112      1.0  0.5672221464165403  0.2402227639300349  0.9014561883470835  1.0000
  C   C113      1.0  0.4359307043903228  0.29024127113632403  0.3171867059046037  1.0000
  C   C114      1.0  0.564075958525123  0.7902494107153758  0.682814946079354  1.0000
  C   C115      1.0  0.435919384953678  0.7902532128822202  0.1828159493771366  1.0000
  C   C116      1.0  0.5640855143904487  0.2902505794949946  0.8171803872538987  1.0000
  C   C117      1.0  0.3136166560536254  0.2896959443656115  0.3178485285112558  1.0000
  C   C118      1.0  0.6863882348845181  0.7896980152661116  0.6821550242308163  1.0000
  C   C119      1.0  0.3136124171067038  0.7896942121945544  0.1821565327240151  1.0000
  C   C120      1.0  0.6863977652268005  0.28969974747453614  0.8178428436679042  1.0000
  C   C121      1.0  0.8170402719524501  0.29769718975709486  0.321210914319103  1.0000
  C   C122      1.0  0.18297179342330588  0.7977160963736054  0.678791084391726  1.0000
  C   C123      1.0  0.8170194072681412  0.7977251322173231  0.1787912289391969  1.0000
  C   C124      1.0  0.1829714931338415  0.29771266481694175  0.8212054544637439  1.0000
  C   C125      1.0  0.345225370968187  0.5223315083855837  0.3534101188345602  1.0000
  C   C126      1.0  0.6547931749001137  0.022349954063024303  0.646590057464195  1.0000
  C   C127      1.0  0.34519918239212893  0.022344068424430902  0.146603866411553  1.0000
  C   C128      1.0  0.6547858516953511  0.5223231433671955  0.8533970693727682  1.0000
  C   C129      1.0  0.6091931823530317  0.5022162966356803  0.3460102684961086  1.0000
  C   C130      1.0  0.39081712680988545  0.0022290273792507  0.6539915152612679  1.0000
  C   C131      1.0  0.6091843458468702  0.0022276429120112  0.1540007567741668  1.0000
  C   C132      1.0  0.3908180263099652  0.502213120902617  0.846001027021984  1.0000
  C   C133      1.0  0.7296304261041228  0.47466935582897934  0.4337314484395449  1.0000
  C   C134      1.0  0.27037722045403  0.9746756805727516  0.5662716678277206  1.0000
  C   C135      1.0  0.7296218423125965  0.974677899502069  0.066277760023965  1.0000
  C   C136      1.0  0.27037433978431835  0.4746734071070051  0.9337249766044806  1.0000
  C   C137      1.0  0.731666803106222  0.5042054740591484  0.3484393067393725  1.0000
  C   C138      1.0  0.2683382443326536  0.004213472853678  0.651562847937477  1.0000
  C   C139      1.0  0.7316615879365216  0.004212284404523801  0.1515693050539966  1.0000
  C   C140      1.0  0.2683416957315359  0.504203812398785  0.848431710636156  1.0000
  C   C141      1.0  0.2279501911692137  0.44404168099015356  0.42719395567515056  1.0000
  C   C142      1.0  0.7720649361844067  0.944057348521163  0.57280815667756  1.0000
  C   C143      1.0  0.2279343000524108  0.944067830139481  0.0728137019678528  1.0000
  C   C144      1.0  0.7720534889667761  0.4440460198604654  0.9271876511181391  1.0000
  C   C145      1.0  0.2228645344054314  0.5198327075824596  0.3558191709470647  1.0000
  C   C146      1.0  0.7771601474057945  0.0198468123964588  0.644181016364037  1.0000
  C   C147      1.0  0.2228349113786479  0.019847001716499297  0.1441911545507537  1.0000
  C   C148      1.0  0.7771492036607696  0.5198290980039387  0.8558090329146353  1.0000
  N   N1        1.0  0.8798207555647508  0.2619043881009446  0.3574290476884415  1.0000
  N   N2        1.0  0.1201872490836777  0.7619244032490042  0.6425719699568192  1.0000
  N   N3        1.0  0.8798065805026098  0.7619338317711667  0.1425739382798454  1.0000
  N   N4        1.0  0.1201873142004857  0.2619166203852643  0.8574236623705714  1.0000
  N   N5        1.0  0.25051412588824457  0.2652216553150311  0.3579412087692617  1.0000
  N   N6        1.0  0.7494886366834093  0.7652233806189629  0.6420620722979181  1.0000
  N   N7        1.0  0.2505131985912428  0.7652163327862239  0.1420636576254068  1.0000
  N   N8        1.0  0.7494948553406359  0.26522300296767304  0.8579350674377438  1.0000
  N   N9        1.0  0.16362198642520548  0.48134217993822415  0.3921569669205596  1.0000
  N   N10       1.0  0.836396342239503  0.9813510601867819  0.6078434621960442  1.0000
  N   N11       1.0  0.1635994512632379  0.9813605694198558  0.1078487135715491  1.0000
  N   N12       1.0  0.8363844839571681  0.4813423609780758  0.8921501969822716  1.0000
  N   N13       1.0  0.7921041463586316  0.4901042458957222  0.39146368127524783  1.0000
  N   N14       1.0  0.20790373012859928  0.9901074783479231  0.6085386075647604  1.0000
  N   N15       1.0  0.792095694464848  0.9901089479725089  0.1085438681324007  1.0000
  N   N16       1.0  0.2079033632065403  0.4901044863169374  0.8914569020699121  1.0000
  O   O1        1.0  0.0413760645862595  0.4014880901894671  0.9446455533154392  1.0000
  O   O2        1.0  0.9586128542867769  0.9015066642170809  0.05535067221324401  1.0000
  O   O3        1.0  0.041388185716329  0.9014967428025856  0.5553545893170906  1.0000
  O   O4        1.0  0.9586271895502135  0.40148661122336904  0.4446465718049595  1.0000
  O   O5        1.0  0.05668876651058951  0.675523620283606  0.2011884950135752  1.0000
  O   O6        1.0  0.9432712115215479  0.1755355123099491  0.7988011342841405  1.0000
  O   O7        1.0  0.05672989788394029  0.17553922293022595  0.2988052605037907  1.0000
  O   O8        1.0  0.9432829932003627  0.6755307402001592  0.7011934805735651  1.0000
  O   O9        1.0  0.9720999077285483  0.45452211403868864  0.3203417102849642  1.0000
  O   O10       1.0  0.027910966314067292  0.9545371920681307  0.6796607355101257  1.0000
  O   O11       1.0  0.9720887102588093  0.9545551780569853  0.1796608972239113  1.0000
  O   O12       1.0  0.0279177546605069  0.45453433921947817  0.8203373721894709  1.0000
  O   O13       1.0  0.0744657709170014  0.34650934586000653  0.3052124499455644  1.0000
  O   O14       1.0  0.925540848498329  0.8465213368792277  0.6947828791061781  1.0000
  O   O15       1.0  0.0744486982018486  0.8465365588370306  0.1947785244104878  1.0000
  O   O16       1.0  0.9255508663433003  0.3465192048528963  0.8052152859456215  1.0000
  O   O17       1.0  0.9324171089244685  0.2962426739400428  0.9290933227126744  1.0000
  O   O18       1.0  0.0675896436226182  0.7962714806280856  0.0709045060819946  1.0000
  O   O19       1.0  0.9324136376127967  0.7962574416698301  0.5709061534385924  1.0000
  O   O20       1.0  0.067586941542757  0.2962418922878314  0.4290958517421116  1.0000
  O   O21       1.0  0.080714445828086  0.6459023402745601  0.11999983932577858  1.0000
  O   O22       1.0  0.9192786025704079  0.14590985243645352  0.879989161221232  1.0000
  O   O23       1.0  0.08072686796689509  0.14591371313237292  0.37999273418454754  1.0000
  O   O24       1.0  0.9192705897525855  0.6459075998979812  0.6200053783213164  1.0000
  O   O25       1.0  0.9925695505656404  0.10329442476668052  0.129200093496344  1.0000
  O   O26       1.0  0.007416689573872798  0.6033006284471158  0.8708050410598461  1.0000
  O   O27       1.0  0.9925836030663289  0.6033022119931387  0.3708027765436555  1.0000
  O   O28       1.0  0.0074317393694514  0.10329569143269879  0.6292000799022476  1.0000
  O   O29       1.0  0.98803357967995  0.07105380577499429  0.04778450636086969  1.0000
  O   O30       1.0  0.011954825785537098  0.5710632161335029  0.9522238077610155  1.0000
  O   O31       1.0  0.9880418431821097  0.5710613511587966  0.4522204370971822  1.0000
  O   O32       1.0  0.0119606725621111  0.0710590909462638  0.5477837006351153  1.0000
