data_image0
_chemical_formula_structural       Cu4H56C40I4N16
_chemical_formula_sum              "Cu4 H56 C40 I4 N16"
_cell_length_a       8.145413029
_cell_length_b       8.552770359728527
_cell_length_c       19.4227
_cell_angle_alpha    90.0
_cell_angle_beta     90.0
_cell_angle_gamma    114.05234709764316

_space_group_name_H-M_alt    "P 1"
_space_group_IT_number       1

loop_
  _space_group_symop_operation_xyz
  'x, y, z'

loop_
  _atom_site_type_symbol
  _atom_site_label
  _atom_site_symmetry_multiplicity
  _atom_site_fract_x
  _atom_site_fract_y
  _atom_site_fract_z
  _atom_site_occupancy
  Cu  Cu1       1.0  0.45721016906706075  0.9206978153937444  0.9375179557939931  1.0000
  Cu  Cu2       1.0  0.042787822467964476  0.5793041716966698  0.4375164112095646  1.0000
  Cu  Cu3       1.0  0.5427895595937927  0.0793018021558467  0.062483588790435404  1.0000
  Cu  Cu4       1.0  0.9572094508232283  0.4206954458529282  0.5624804996215786  1.0000
  H   H1        1.0  0.5874602811629333  0.9946424950324799  0.8126552950928527  1.0000
  H   H2        1.0  0.912536790561319  0.505358211674924  0.3126558099543288  1.0000
  H   H3        1.0  0.412539315703178  0.0053596832831388  0.1873447049071473  1.0000
  H   H4        1.0  0.0874623901544922  0.49464012549166375  0.6873441900456713  1.0000
  H   H5        1.0  0.6371906036035142  0.2077536669466156  0.7878209517729289  1.0000
  H   H6        1.0  0.8628096344983407  0.2922435810621593  0.28782146663440505  1.0000
  H   H7        1.0  0.36280954120763914  0.7922497917520064  0.212178533365595  1.0000
  H   H8        1.0  0.1371928131216649  0.7077509149553907  0.7121769887811666  1.0000
  H   H9        1.0  0.2563635400704456  0.1336963136029397  0.7185895884712252  1.0000
  H   H10       1.0  0.24363899808781037  0.3663111774699246  0.21858546957940922  1.0000
  H   H11       1.0  0.7436375688360357  0.8663122666277303  0.2814140155591147  1.0000
  H   H12       1.0  0.7563638656824878  0.633687159696656  0.781410926390258  1.0000
  H   H13       1.0  0.08991335627227678  0.9645394100659603  0.9280846638211955  1.0000
  H   H14       1.0  0.4100941931518847  0.535467698556495  0.42808517868267876  1.0000
  H   H15       1.0  0.9100892231424711  0.0354525251855691  0.0719143064558452  1.0000
  H   H16       1.0  0.5899089549739642  0.4645370405251441  0.5719153361788045  1.0000
  H   H17       1.0  0.3147951134731457  0.3638400382591129  0.5500435057947684  1.0000
  H   H18       1.0  0.18520166087915865  0.1361482470685829  0.0500450503791967  1.0000
  H   H19       1.0  0.6852029921186471  0.6361672615885468  0.44995289017489887  1.0000
  H   H20       1.0  0.8147973672758582  0.863841127416926  0.949953405036375  1.0000
  H   H21       1.0  0.3241643446377013  0.0439209784188819  0.5612474063853128  1.0000
  H   H22       1.0  0.17583065408472723  0.4560660265258037  0.0612427726320206  1.0000
  H   H23       1.0  0.675833497364593  0.9560914429608189  0.4387510490302589  1.0000
  H   H24       1.0  0.8241738327546458  0.5439246283427153  0.9387536233376395  1.0000
  H   H25       1.0  0.9746081889959584  0.831339885071209  0.5928439403378505  1.0000
  H   H26       1.0  0.5253798727841995  0.6686569804871567  0.0928387917230893  1.0000
  H   H27       1.0  0.025395354514131413  0.16865717171236136  0.4071596636924824  1.0000
  H   H28       1.0  0.4746161728221665  0.3313426370624342  0.9071601785539585  1.0000
  H   H29       1.0  0.6959893009516593  0.08215193473785123  0.5743665916685147  1.0000
  H   H30       1.0  0.8040086343413365  0.4178542759520028  0.07436659166851461  1.0000
  H   H31       1.0  0.30400797233954074  0.9178476828117468  0.42563443805444484  1.0000
  H   H32       1.0  0.19599780145475884  0.5821581454277052  0.9256313488855811  1.0000
  H   H33       1.0  0.6816265032535824  0.8750803294855771  0.5959022175083818  1.0000
  H   H34       1.0  0.8183644300465289  0.6249203772218268  0.09590427695428622  1.0000
  H   H35       1.0  0.3183816874063297  0.12492184883004141  0.40409984193752996  1.0000
  H   H36       1.0  0.18162889660069234  0.3750843618598126  0.9040982973530945  1.0000
  H   H37       1.0  0.8298984694264321  0.1824443359724697  0.693815998805519  1.0000
  H   H38       1.0  0.6701005409905961  0.3175529120363052  0.1938149690825668  1.0000
  H   H39       1.0  0.1701043943438734  0.8175540011941109  0.3061865755018616  1.0000
  H   H40       1.0  0.3299017748346671  0.6824441447472722  0.8061819417485694  1.0000
  H   H41       1.0  0.7786175807465058  0.9656238944760958  0.7150983127989435  1.0000
  H   H42       1.0  0.7213706128283945  0.5343704103162494  0.215100887106324  1.0000
  H   H43       1.0  0.2213754615451649  0.0343744426904848  0.28490220206253275  1.0000
  H   H44       1.0  0.2786265079020041  0.4656202445522695  0.784899112893676  1.0000
  H   H45       1.0  0.5040672619602873  0.1081270648775998  0.6705808152316592  1.0000
  H   H46       1.0  0.9959260261828858  0.3918740242802059  0.1705823598160947  1.0000
  H   H47       1.0  0.4959346584807349  0.8918776742040322  0.3294176401839053  1.0000
  H   H48       1.0  0.004074930162794012  0.6081255932693921  0.8294171253224292  1.0000
  H   H49       1.0  0.4495558973151362  0.8932592074726673  0.6943499101566744  1.0000
  H   H50       1.0  0.05043689912503165  0.6067363777026884  0.194348365572246  1.0000
  H   H51       1.0  0.5504424718661481  0.1067429708429444  0.3056500898433256  1.0000
  H   H52       1.0  0.9495640572206554  0.3932632398469025  0.8056495749818496  1.0000
  H   H53       1.0  0.9782333201258666  0.07690620554267012  0.8110736406369838  1.0000
  H   H54       1.0  0.5217740412615229  0.4231076874452455  0.31107003660665106  1.0000
  H   H55       1.0  0.02176504905541778  0.9230959727729413  0.18892996339334903  1.0000
  H   H56       1.0  0.47822978660411053  0.5768957712533833  0.6889289336703968  1.0000
  C   C1        1.0  0.543659308361363  0.0736258642690473  0.7788788376487333  1.0000
  C   C2        1.0  0.9563407979457494  0.4263739445057482  0.2788798673716855  1.0000
  C   C3        1.0  0.4563445195042776  0.9263775944295818  0.22112219207421902  1.0000
  C   C4        1.0  0.04365783482502647  0.5736231122778221  0.7211201326283146  1.0000
  C   C5        1.0  0.23992907314552533  0.0895679131363067  0.7716151719379881  1.0000
  C   C6        1.0  0.2600766001221757  0.4104382975535472  0.2716120827691313  1.0000
  C   C7        1.0  0.7600776262400617  0.9104393867113532  0.22838843209234486  1.0000
  C   C8        1.0  0.739927359538207  0.589562600379061  0.7283858577849642  1.0000
  C   C9        1.0  0.1561015809996462  0.0023213343985518  0.8786450905383916  1.0000
  C   C10       1.0  0.3438987653784481  0.4976810351422714  0.3786430310924871  1.0000
  C   C11       1.0  0.843893084361092  0.9976693204699674  0.1213559391845607  1.0000
  C   C12       1.0  0.6561019273777475  0.5023237039393678  0.6213559391845607  1.0000
  C   C13       1.0  0.2091363721172712  0.24131250565923787  0.5636590175413332  1.0000
  C   C14       1.0  0.2908608183853261  0.258679620817496  0.0636585026798571  1.0000
  C   C15       1.0  0.7908654165290017  0.7586947941884221  0.4363425270431023  1.0000
  C   C16       1.0  0.7091390420702764  0.7413174359660744  0.9363389230127623  1.0000
  C   C17       1.0  0.2124351989808488  0.0793440547952002  0.5698574348571483  1.0000
  C   C18       1.0  0.28755898820704573  0.42064679129851623  0.0698600091645361  1.0000
  C   C19       1.0  0.7875545764066274  0.9206581235204112  0.43014102055841624  1.0000
  C   C20       1.0  0.712448106562782  0.5793528262510748  0.9301415354198923  1.0000
  C   C21       1.0  0.036704556645098294  0.9690898912862878  0.5857105345806701  1.0000
  C   C22       1.0  0.463288919534854  0.5309044135060647  0.08571053458067011  1.0000
  C   C23       1.0  0.9632890335916143  0.0309097262633102  0.4142863762504732  1.0000
  C   C24       1.0  0.5367132644956599  0.4690952040435335  0.9142884356963776  1.0000
  C   C25       1.0  0.7520585136094553  0.011921646213402004  0.6076405443115505  1.0000
  C   C26       1.0  0.7479354542735096  0.4880781625614007  0.10764105917302662  1.0000
  C   C27       1.0  0.24794108325665581  0.9880805321022166  0.3923599705499257  1.0000
  C   C28       1.0  0.2520629149077749  0.511924015754218  0.8923589408269735  1.0000
  C   C29       1.0  0.7356412968136752  0.0492768205529899  0.6835347299808987  1.0000
  C   C30       1.0  0.7643521231242474  0.4507217078387953  0.18353575970385091  1.0000
  C   C31       1.0  0.26435474879269794  0.9507227969966081  0.31646681460352977  1.0000
  C   C32       1.0  0.23564896501618188  0.549275348944775  0.8164642402961491  1.0000
  C   C33       1.0  0.5460011207457074  0.026204318698681606  0.703534009174831  1.0000
  C   C34       1.0  0.9539917512471732  0.4737929293100934  0.2035350388977832  1.0000
  C   C35       1.0  0.45399547280570124  0.9737965792339267  0.2964665056866451  1.0000
  C   C36       1.0  0.04600865715347166  0.5262054078564873  0.7964649611022168  1.0000
  C   C37       1.0  0.10154995947969783  0.059476351616886816  0.8186204801598151  1.0000
  C   C38       1.0  0.39845764197868055  0.4405401021370495  0.3186184207139036  1.0000
  C   C39       1.0  0.8984523771116173  0.9405322286137832  0.1813805495631371  1.0000
  C   C40       1.0  0.6015461858869601  0.5594633565615723  0.6813820941475726  1.0000
  I   I1        1.0  0.7800982857544838  0.1829167973034487  0.9570708500877814  1.0000
  I   I2        1.0  0.7199016887578722  0.3170855722373673  0.4570703352263052  1.0000
  I   I3        1.0  0.219905257755606  0.8170802594801216  0.0429312093581231  1.0000
  I   I4        1.0  0.2800919014788406  0.6829140453122307  0.5429296647736948  1.0000
  N   N1        1.0  0.0427192576291944  0.232870940469148  0.5753056990016816  1.0000
  N   N2        1.0  0.45727957670852243  0.2671250271566166  0.07530827330906932  1.0000
  N   N3        1.0  0.9572784318122983  0.767132518229481  0.4246937861368423  1.0000
  N   N4        1.0  0.5427220593769492  0.732873310009964  0.9246896672450264  1.0000
  N   N5        1.0  0.9391058480296692  0.0650613823099206  0.5883564077085027  1.0000
  N   N6        1.0  0.5608882516480451  0.4349358656988543  0.0883569225699858  1.0000
  N   N7        1.0  0.060890065781954765  0.9349407960056981  0.41164359229149744  1.0000
  N   N8        1.0  0.439110381122731  0.5650611910847161  0.9116446220144497  1.0000
  N   N9        1.0  0.3173389823712042  0.9964900877170422  0.8695958852270778  1.0000
  N   N10       1.0  0.1826644678481841  0.5035131797563821  0.36959434064264945  1.0000
  N   N11       1.0  0.6826621057692321  0.0035069690665352  0.1304061742188267  1.0000
  N   N12       1.0  0.817336488497503  0.4964864377932089  0.6304046296343985  1.0000
  N   N13       1.0  0.3664779575807486  0.0499515823996717  0.8036575759291935  1.0000
  N   N14       1.0  0.13352552390679756  0.450049506758134  0.3036565462062413  1.0000
  N   N15       1.0  0.633521902874854  0.9500454743838986  0.196344483516711  1.0000
  N   N16       1.0  0.8664785675483343  0.5499488304084466  0.6963424240708065  1.0000
