data_image0
_chemical_formula_structural       Zn2H36C44N8O8
_chemical_formula_sum              "Zn2 H36 C44 N8 O8"
_cell_length_a       10.001113376554274
_cell_length_b       10.176707318326715
_cell_length_c       11.14610007671138
_cell_angle_alpha    99.52345658392228
_cell_angle_beta     102.51850262881901
_cell_angle_gamma    112.51939226625231

_space_group_name_H-M_alt    "P 1"
_space_group_IT_number       1

loop_
  _space_group_symop_operation_xyz
  'x, y, z'

loop_
  _atom_site_type_symbol
  _atom_site_label
  _atom_site_symmetry_multiplicity
  _atom_site_fract_x
  _atom_site_fract_y
  _atom_site_fract_z
  _atom_site_occupancy
  Zn  Zn1       1.0  0.7218392833070268  0.03352543105402359  0.8803003173093062  1.0000
  Zn  Zn2       1.0  0.27816134371727225  0.9664725421231991  0.11969892196844253  1.0000
  H   H1        1.0  0.9836076076321375  0.24003253400524466  0.5445073592086587  1.0000
  H   H2        1.0  0.016398600200829942  0.7599687580716715  0.4554943675765486  1.0000
  H   H3        1.0  0.027614898746826086  0.11934860312165085  0.10786032469215462  1.0000
  H   H4        1.0  0.972384144488508  0.8806526928512849  0.8921390918805657  1.0000
  H   H5        1.0  0.7814300866279494  0.3633427680258733  0.010623282338634982  1.0000
  H   H6        1.0  0.21856644529727723  0.6366552092509534  0.9893751495641825  1.0000
  H   H7        1.0  0.3721939197894811  0.7419910476569312  0.7297104472237237  1.0000
  H   H8        1.0  0.6278040694122923  0.2580124602348589  0.27028819023929174  1.0000
  H   H9        1.0  0.06185426744244175  0.37810235228945277  0.40084913217393153  1.0000
  H   H10       1.0  0.9381442496889818  0.6219000480037664  0.5991494461907508  1.0000
  H   H11       1.0  0.30403723454844567  0.7536393255180227  0.2957231722540712  1.0000
  H   H12       1.0  0.6959624007856319  0.24635643451185968  0.7042755451395593  1.0000
  H   H13       1.0  0.6321268267919393  0.02633587639477499  0.15268075848671003  1.0000
  H   H14       1.0  0.3678733364717956  0.9736587760365366  0.8473178998085942  1.0000
  H   H15       1.0  0.7777083617015635  0.642536406719948  0.11564761734115339  1.0000
  H   H16       1.0  0.22229324970997774  0.3574637927177591  0.8843557330461354  1.0000
  H   H17       1.0  0.9195613837693909  0.8319435691117074  0.6347496827258325  1.0000
  H   H18       1.0  0.08044432821845497  0.16805661639153865  0.3652517831173157  1.0000
  H   H19       1.0  0.3693481256077717  0.6116892313738872  0.8641601122893335  1.0000
  H   H20       1.0  0.6306565305207669  0.38831316932650134  0.13584147175046718  1.0000
  H   H21       1.0  0.2673091371925906  0.31050043385594245  0.2580149086185913  1.0000
  H   H22       1.0  0.7326888822679791  0.6895008631418945  0.7419843061103962  1.0000
  H   H23       1.0  0.3178906506690494  0.4677726847311802  0.1991528012460151  1.0000
  H   H24       1.0  0.6821068729463987  0.5322275056929866  0.8008461525409133  1.0000
  H   H25       1.0  0.058349306558781615  0.5557481291023405  0.19038349746572436  1.0000
  H   H26       1.0  0.9416472235407054  0.4442498514527671  0.8096158317434503  1.0000
  H   H27       1.0  0.11755424175879625  0.5246226262062804  0.6213754435481746  1.0000
  H   H28       1.0  0.8824432176875658  0.47538199256236147  0.3786241503195171  1.0000
  H   H29       1.0  0.565441338857191  0.8045933236269815  0.6174477634677586  1.0000
  H   H30       1.0  0.4345577043781432  0.19540797234595425  0.3825516531049615  1.0000
  H   H31       1.0  0.6602707916516478  0.729773676948909  0.45514735819543983  1.0000
  H   H32       1.0  0.3397308215856398  0.27022651921051016  0.5448550948854917  1.0000
  H   H33       1.0  0.5469465186989737  0.5812402211012682  0.31614613343032977  1.0000
  H   H34       1.0  0.4530541028480854  0.41875776191081104  0.6838557977664905  1.0000
  H   H35       1.0  0.7565252986330009  0.8713245605993547  0.28548692902769085  1.0000
  H   H36       1.0  0.24347790021899832  0.12867230948607034  0.7145144494519116  1.0000
  C   C1        1.0  0.991811860569008  0.13541461628663137  0.5242186888690625  1.0000
  C   C2        1.0  0.008190781920283842  0.8645855690130302  0.4757812741365369  1.0000
  C   C3        1.0  0.8865157386312532  0.08364706742570857  0.7055661646623649  1.0000
  C   C4        1.0  0.11348436228914215  0.9163520100717971  0.2944322364073527  1.0000
  C   C5        1.0  0.9456772145324663  0.03990401369474479  0.5998535759685453  1.0000
  C   C6        1.0  0.05432443626660436  0.9600939584575838  0.4001458651529362  1.0000
  C   C7        1.0  0.9964310326248692  0.210027324410035  0.10557961750851771  1.0000
  C   C8        1.0  0.0035670170944895477  0.7899717616938415  0.8944201744864417  1.0000
  C   C9        1.0  0.6698743754995888  0.7942511946995053  0.9777325911818908  1.0000
  C   C10       1.0  0.33012878944212076  0.20574789283644174  0.022270004644447252  1.0000
  C   C11       1.0  0.8736445423394487  0.3413149967867212  0.05862198503732692  1.0000
  C   C12       1.0  0.12635453115468204  0.6586840882922613  0.9413780088013655  1.0000
  C   C13       1.0  0.2823651481622136  0.5046846258909526  0.3845905377502278  1.0000
  C   C14       1.0  0.7176318511750779  0.4953166655752099  0.6154066805223197  1.0000
  C   C15       1.0  0.4253148212414073  0.6263834120971976  0.44618755615910294  1.0000
  C   C16       1.0  0.5746857416138056  0.37361898942450716  0.5538123231994094  1.0000
  C   C17       1.0  0.581525700997517  0.6421838306569326  0.9890902445285974  1.0000
  C   C18       1.0  0.418476413562118  0.3578174622413001  0.010909777575321267  1.0000
  C   C19       1.0  0.3448244210161917  0.6754341555466468  0.6330732295166683  1.0000
  C   C20       1.0  0.6551725783210998  0.3245671359195157  0.36692398875587173  1.0000
  C   C21       1.0  0.1731908208458249  0.47087987425442873  0.44899400611488727  1.0000
  C   C22       1.0  0.8268076605495622  0.5291247467676072  0.5510066869028947  1.0000
  C   C23       1.0  0.40897159922674575  0.8045930837444644  0.273211014905705  1.0000
  C   C24       1.0  0.5910290635335896  0.19540266870394868  0.7267861097189511  1.0000
  C   C25       1.0  0.5828232687895393  0.9470383301396977  0.20297438784340474  1.0000
  C   C26       1.0  0.41718039930027123  0.05296185085677509  0.7970248796995707  1.0000
  C   C27       1.0  0.6560706696197585  0.5792307894545631  0.06563718504881426  1.0000
  C   C28       1.0  0.3439380440460765  0.42077383115331896  0.9343682183253678  1.0000
  C   C29       1.0  0.95435117747904  0.9043081646726701  0.5744713224303907  1.0000
  C   C30       1.0  0.04565351073404138  0.09569202185547705  0.4255299415690318  1.0000
  C   C31       1.0  0.4254598408235281  0.5617172535132439  0.9235812490247995  1.0000
  C   C32       1.0  0.5745433543769778  0.4382796231287499  0.07642192406751748  1.0000
  C   C33       1.0  0.24594790431173402  0.4080551888010361  0.25224951545934  1.0000
  C   C34       1.0  0.7540506109939428  0.591947214770471  0.7477499602117066  1.0000
  C   C35       1.0  0.010986338302096485  0.4375442279865708  0.14674102100738648  1.0000
  C   C36       1.0  0.989009135938076  0.5624559677656862  0.8532584263984335  1.0000
  C   C37       1.0  0.2036333795092488  0.5545302445358826  0.5724221487765321  1.0000
  C   C38       1.0  0.7963666306347578  0.44547546564349016  0.4275745204952629  1.0000
  C   C39       1.0  0.454454777918869  0.7104112157568065  0.5699454568420421  1.0000
  C   C40       1.0  0.5455432415417008  0.2895900812410304  0.4300537578869453  1.0000
  C   C41       1.0  0.5479682528237716  0.674593083169043  0.3826075949554166  1.0000
  C   C42       1.0  0.4520303248252517  0.32540489533626976  0.6173921379412236  1.0000
  C   C43       1.0  0.6457124746411579  0.8710964757055563  0.26836969433473  1.0000
  C   C44       1.0  0.3542850755816005  0.12890151038122605  0.7316316313308918  1.0000
  N   N1        1.0  0.4352142138192646  0.9044249951744446  0.20653128003944232  1.0000
  N   N2        1.0  0.5647854554251025  0.09556854740491616  0.7934662200074457  1.0000
  N   N3        1.0  0.8657779902688959  0.20026037546317346  0.033954612468633565  1.0000
  N   N4        1.0  0.1342195636053559  0.7997376040670402  0.9660449185842667  1.0000
  N   N5        1.0  0.08743225683767968  0.35241343656114305  0.1749657030904217  1.0000
  N   N6        1.0  0.9125657947074329  0.6475856462644528  0.8250331915981806  1.0000
  N   N7        1.0  0.5343032885503335  0.7815431068860974  0.3120127183744757  1.0000
  N   N8        1.0  0.4656998818686162  0.21845597081499327  0.6879871855327977  1.0000
  O   O1        1.0  0.8167501735036139  0.9775911918833414  0.7524539948627054  1.0000
  O   O2        1.0  0.1832489018162633  0.022407889917353395  0.24754510166963684  1.0000
  O   O3        1.0  0.9035490302310263  0.21405577796492276  0.7398691565745852  1.0000
  O   O4        1.0  0.09645312006465184  0.7859432942045003  0.2601287508762411  1.0000
  O   O5        1.0  0.5914874979329026  0.8434074508496818  0.9041039670599887  1.0000
  O   O6        1.0  0.40851309335536706  0.1565927430563576  0.09589738687085257  1.0000
  O   O7        1.0  0.8092040588817894  0.863995902976697  0.03554043323482141  1.0000
  O   O8        1.0  0.19079749018641215  0.13600872152720456  0.9644626599268736  1.0000
