data_image0
_chemical_formula_structural       Zn2H56C79N4O13
_chemical_formula_sum              "Zn2 H56 C79 N4 O13"
_cell_length_a       12.594502391870012
_cell_length_b       13.494651519352
_cell_length_c       27.97858414569786
_cell_angle_alpha    89.04228237915316
_cell_angle_beta     74.80591400706119
_cell_angle_gamma    79.33521625500043

_space_group_name_H-M_alt    "P 1"
_space_group_IT_number       1

loop_
  _space_group_symop_operation_xyz
  'x, y, z'

loop_
  _atom_site_type_symbol
  _atom_site_label
  _atom_site_symmetry_multiplicity
  _atom_site_fract_x
  _atom_site_fract_y
  _atom_site_fract_z
  _atom_site_occupancy
  Zn  Zn1       1.0  0.6148884803535849  0.5040265801811117  0.48561987008868357  1.0000
  Zn  Zn2       1.0  0.38600541091170737  0.49118715799040996  0.5111992309224362  1.0000
  H   H1        1.0  0.32008934199115646  0.5095942257474206  0.6744778348219781  1.0000
  H   H2        1.0  0.57721305478848  0.7109957913494969  0.8626990167743074  1.0000
  H   H3        1.0  0.476940530022702  0.7317742791417033  0.031128201114988513  1.0000
  H   H4        1.0  0.6862659428434341  0.5245542007075911  0.326840198536786  1.0000
  H   H5        1.0  0.4613165201619936  0.7310927312413182  0.12150776138964403  1.0000
  H   H6        1.0  0.2971592870413247  0.13303654115413366  0.6163919947286088  1.0000
  H   H7        1.0  0.23207721353290364  0.9705862394330467  0.6229973837792002  1.0000
  H   H8        1.0  0.5593996865523322  0.8194010771888074  0.48796434994910953  1.0000
  H   H9        1.0  0.746547747328691  0.19756163632726498  0.4315146869192504  1.0000
  H   H10       1.0  0.6749116877165663  0.8998049151953893  0.4611562838974023  1.0000
  H   H11       1.0  0.8016007885377762  0.010157721861695302  0.41696191009110356  1.0000
  H   H12       1.0  0.421248623476707  0.2430043149020946  0.5699887764349612  1.0000
  H   H13       1.0  0.7226545594295358  0.6575312985923746  0.4358342415255477  1.0000
  H   H14       1.0  0.10199807087254693  0.69115253323983  0.4255603962706687  1.0000
  H   H15       1.0  0.907709485100426  0.7155507575370378  0.4165529607998195  1.0000
  H   H16       1.0  0.27067545793771325  0.3686128146167461  0.5815736711656355  1.0000
  H   H17       1.0  0.5042268397419462  0.2317524646603886  0.8807089181406695  1.0000
  H   H18       1.0  0.928353394153653  0.3994632564393896  0.575761290303781  1.0000
  H   H19       1.0  0.07883705376274004  0.3271612211181179  0.6152081288225304  1.0000
  H   H20       1.0  0.25019853362417876  0.5994961293523886  0.4618398046349341  1.0000
  H   H21       1.0  0.3476766776581073  0.4774792609005942  0.3638701137004503  1.0000
  H   H22       1.0  0.3568428779551168  0.46643102331866954  0.2730152497340086  1.0000
  H   H23       1.0  0.5926235438004638  0.22301847873313826  0.0247441067542766  1.0000
  H   H24       1.0  0.5274088154176012  0.22778417712544297  0.966223879981996  1.0000
  H   H25       1.0  0.6778010346591824  0.4485604590240301  0.6275483335671836  1.0000
  H   H26       1.0  0.7882964426285426  0.5576412997042937  0.6690611529572834  1.0000
  H   H27       1.0  0.7237957086864883  0.6010097990249719  0.7311190110939734  1.0000
  H   H28       1.0  0.8590294030952349  0.521805442517241  0.7158006250331326  1.0000
  H   H29       1.0  0.7153084018753119  0.4193557116970511  0.7558242959936337  1.0000
  H   H30       1.0  0.7758912506151603  0.37892834132853886  0.6935839055797501  1.0000
  H   H31       1.0  0.8090469441274805  0.5971096416318744  0.2656489968911941  1.0000
  H   H32       1.0  0.8517056835507263  0.464030732727494  0.2651106494643258  1.0000
  H   H33       1.0  0.9003756995046003  0.5321169166227762  0.2114700158354736  1.0000
  H   H34       1.0  0.7511009272849022  0.4465912968216442  0.19902869584596772  1.0000
  H   H35       1.0  0.7073708868367704  0.5783228465305044  0.20067372757098667  1.0000
  H   H36       1.0  0.7876042653758405  0.6992944379006404  0.9047483462050039  1.0000
  H   H37       1.0  0.7003589310644146  0.788393852772714  0.8775827747146393  1.0000
  H   H38       1.0  0.7481829935035266  0.8267948589072489  0.9271584716856438  1.0000
  H   H39       1.0  0.54887856975823  0.8066758805484825  0.9589669997282684  1.0000
  H   H40       1.0  0.6393626655255248  0.7233323894009018  0.9861079367224761  1.0000
  H   H41       1.0  0.08765680826948602  0.8654900563929927  0.5785645757398684  1.0000
  H   H42       1.0  0.1603985747559165  0.7560991508762454  0.5408850119558579  1.0000
  H   H43       1.0  0.06600373328924286  0.7436181005881508  0.5994550021260779  1.0000
  H   H44       1.0  0.2639802538252737  0.6982576892489831  0.6049071190548575  1.0000
  H   H45       1.0  0.19266655444562988  0.8073422305810213  0.6423740287531743  1.0000
  H   H46       1.0  0.18287577724603915  0.6045606983911042  0.7377569604922131  1.0000
  H   H47       1.0  0.17687382901404186  0.47407526680378  0.7392745250996029  1.0000
  H   H48       1.0  0.11453852394527082  0.5522032269939601  0.793448561031731  1.0000
  H   H49       1.0  0.29553141830825064  0.44926929312534725  0.8001814776790682  1.0000
  H   H50       1.0  0.3002246639891481  0.5787744112917608  0.7996023243309905  1.0000
  H   H51       1.0  0.746637777020716  0.37498523114723525  0.5283961584703647  1.0000
  H   H52       1.0  0.5649209550909262  0.0893578667995172  0.06925055840518718  1.0000
  H   H53       1.0  0.7088100981833064  0.099523338969945  0.050246889149917665  1.0000
  H   H54       1.0  0.6585061156704413  0.030533393828768903  0.10310619991079763  1.0000
  H   H55       1.0  0.684470755972363  0.193359633993829  0.13217622557452563  1.0000
  H   H56       1.0  0.5448602967454902  0.18526816734503634  0.1499800202486483  1.0000
  C   C1        1.0  0.564045532519323  0.30269304002337794  0.4896376812773439  1.0000
  C   C2        1.0  0.40161815396103157  0.4954443809101434  0.7342244856415974  1.0000
  C   C3        1.0  0.5071878591608296  0.4771991307998747  0.7442662609301962  1.0000
  C   C4        1.0  0.5324602815790839  0.4753199280112029  0.8935740328159554  1.0000
  C   C5        1.0  0.5180318255946189  0.386736629568439  0.8716396251668854  1.0000
  C   C6        1.0  0.5156655262387771  0.29899710776776095  0.8983329085121383  1.0000
  C   C7        1.0  0.5396398912946908  0.5640353268604201  0.8661635713865863  1.0000
  C   C8        1.0  0.4983779191374751  0.47873192299100975  0.646517858239676  1.0000
  C   C9        1.0  0.5167938333192835  0.5027749023209297  0.34999741408442014  1.0000
  C   C10       1.0  0.557118866700968  0.3836501054506911  0.019715193045044502  1.0000
  C   C11       1.0  0.5324061702367543  0.5705750137091314  0.019733636841344514  1.0000
  C   C12       1.0  0.49444763562347294  0.4818111772837313  0.5934611084150632  1.0000
  C   C13       1.0  0.5444273965792091  0.47765212500599574  0.044852585849852696  1.0000
  C   C14       1.0  0.578814542517307  0.2948463985372243  0.0445894023225719  1.0000
  C   C15       1.0  0.5846243570117481  0.29237421903867755  0.09415802824810983  1.0000
  C   C16       1.0  0.5615850965368806  0.3853143419699165  0.12080879655700731  1.0000
  C   C17       1.0  0.5399153149029202  0.47760426957366775  0.09644559134633113  1.0000
  C   C18       1.0  0.511841586040063  0.5716968170339882  0.12298368788623293  1.0000
  C   C19       1.0  0.5041691790246218  0.5775852785669358  0.17637161401721363  1.0000
  C   C20       1.0  0.5606286524757137  0.3892660181524192  0.17383279960959191  1.0000
  C   C21       1.0  0.4285856075836776  0.47925012836297753  0.28534641730042415  1.0000
  C   C22       1.0  0.42321211844173934  0.4857846273756081  0.335554586262397  1.0000
  C   C23       1.0  0.43558048012985745  0.6894887929090032  0.5199421566858434  1.0000
  C   C24       1.0  0.6151267897096843  0.5120633667377987  0.314035707387248  1.0000
  C   C25       1.0  0.6225617989518212  0.5052607940083789  0.2634748043049839  1.0000
  C   C26       1.0  0.5268590053140797  0.489211780646869  0.2501815205947863  1.0000
  C   C27       1.0  0.5419709389916249  0.38429727319554263  0.9696444774967503  1.0000
  C   C28       1.0  0.5405536550485478  0.4762818619975703  0.9434687364873255  1.0000
  C   C29       1.0  0.5498072101413098  0.5681110489662587  0.9659175900295837  1.0000
  C   C30       1.0  0.528821743679579  0.2978503454776629  0.9463774304857466  1.0000
  C   C31       1.0  0.5649398525690896  0.6468006435434503  0.8863589358334423  1.0000
  C   C32       1.0  0.4982870754279887  0.6607055374048584  0.04832239907659641  1.0000
  C   C33       1.0  0.48761984479114057  0.6609467564872915  0.0992428332200106  1.0000
  C   C34       1.0  0.5134846377630778  0.5089648719859027  0.4038204140603838  1.0000
  C   C35       1.0  0.574170624906273  0.6501567843476863  0.9354080132498623  1.0000
  C   C36       1.0  0.30323756986157235  0.9376118037678083  0.5924171663052533  1.0000
  C   C37       1.0  0.40956045056357476  0.796642345479917  0.5388061238582509  1.0000
  C   C38       1.0  0.6943060222867387  0.1473756598803959  0.452568567709946  1.0000
  C   C39       1.0  0.7237408623385305  0.042589005498228985  0.4440740936289274  1.0000
  C   C40       1.0  0.6526179547164122  0.9808962959137162  0.4691621886360339  1.0000
  C   C41       1.0  0.5525984768524808  0.020936955838372705  0.505205992538194  1.0000
  C   C42       1.0  0.5265550847456096  0.12684894296025817  0.5167470665446245  1.0000
  C   C43       1.0  0.47487292371425127  0.9577217139197315  0.5303543498682544  1.0000
  C   C44       1.0  0.3797658770698573  0.9994653439141031  0.5694029822890769  1.0000
  C   C45       1.0  0.5065185963996867  0.3861946640772729  0.8204008428041689  1.0000
  C   C46       1.0  0.3655078872801809  0.10300082783802372  0.5841726687994111  1.0000
  C   C47       1.0  0.43435643706846616  0.1641585519487592  0.558614716507364  1.0000
  C   C48       1.0  0.48756042885639045  0.8557162657219096  0.5169907808958172  1.0000
  C   C49       1.0  0.3139649379688478  0.8375124481433501  0.5777387491748698  1.0000
  C   C50       1.0  0.5961007471976528  0.19001223422200297  0.48745941946993543  1.0000
  C   C51       1.0  0.8933181616013429  0.6514686356882818  0.4400718144916739  1.0000
  C   C52       1.0  0.20187287523046388  0.3993608977103661  0.5655806253552172  1.0000
  C   C53       1.0  0.0950925777363452  0.37582438130365864  0.5837172684518704  1.0000
  C   C54       1.0  0.012083037310958384  0.41541327084792096  0.5611250838711683  1.0000
  C   C55       1.0  0.035753546934756686  0.47733467423201154  0.5199785171060611  1.0000
  C   C56       1.0  0.5263074985393884  0.5676453066359101  0.8152295954893205  1.0000
  C   C57       1.0  0.14330632427191858  0.5048743821456512  0.5067638558227117  1.0000
  C   C58       1.0  0.9554924254423723  0.5197699536384448  0.4928538351548398  1.0000
  C   C59       1.0  0.9780590537123287  0.6015950585655504  0.4611922007597186  1.0000
  C   C60       1.0  0.08559933296667312  0.6299100628641695  0.4507794452667184  1.0000
  C   C61       1.0  0.16704254088713097  0.580533657602551  0.4710719441363054  1.0000
  C   C62       1.0  0.8549054514428106  0.4843837740176297  0.49505694974684633  1.0000
  C   C63       1.0  0.7922863267036959  0.6194113607914103  0.44967195176716496  1.0000
  C   C64       1.0  0.6081427656192204  0.4594824934607686  0.7069657160093357  1.0000
  C   C65       1.0  0.6015279678284242  0.4609685919582489  0.6578803015751831  1.0000
  C   C66       1.0  0.3990962819980197  0.49557374377493346  0.6846797710778887  1.0000
  C   C67       1.0  0.7216591206361186  0.44251230369441424  0.7174886859832768  1.0000
  C   C68       1.0  0.7765519268009058  0.5362079960572288  0.7079267695165753  1.0000
  C   C69       1.0  0.7276784631466456  0.5143127707138788  0.2238132381250607  1.0000
  C   C70       1.0  0.8275668438356334  0.5276029351942667  0.2426714538174437  1.0000
  C   C71       1.0  0.6163943766436687  0.7393766941813311  0.9511896265836555  1.0000
  C   C72       1.0  0.7185607136299834  0.7647777231581543  0.9127659103735652  1.0000
  C   C73       1.0  0.2260361705064682  0.7780971603210675  0.6037606510575841  1.0000
  C   C74       1.0  0.12914153688771524  0.7864294568681629  0.5791696146829253  1.0000
  C   C75       1.0  0.2959262085905791  0.5151944914365743  0.7763267038434591  1.0000
  C   C76       1.0  0.1866738068607319  0.5377577286466675  0.7607157988649221  1.0000
  C   C77       1.0  0.8350337216958507  0.3802809267717181  0.5112003667537975  1.0000
  C   C78       1.0  0.6129246311837803  0.19153603149712242  0.11676035710711828  1.0000
  C   C79       1.0  0.6373914740741071  0.0982516987163535  0.08266650519512099  1.0000
  N   N1        1.0  0.5120522877866237  0.4773455726931388  0.7953665931408693  1.0000
  N   N2        1.0  0.5291515501170848  0.4851091429131102  0.19827090423745367  1.0000
  N   N3        1.0  0.775001336788911  0.5355595998028376  0.47565989565141814  1.0000
  N   N4        1.0  0.2245183705710474  0.4633243203306919  0.5291456826338106  1.0000
  O   O1        1.0  0.6423198879448861  0.35223147131117827  0.4726388739238985  1.0000
  O   O2        1.0  0.5859123851482763  0.3146245287028576  0.1974170752367996  1.0000
  O   O3        1.0  0.5281037242117321  0.6441447535392442  0.7905941608115157  1.0000
  O   O4        1.0  0.4787678400518089  0.6576539660113806  0.2008032396526787  1.0000
  O   O5        1.0  0.4609667230626754  0.34195209576475355  0.5065201876594116  1.0000
  O   O6        1.0  0.5878689914568724  0.47598791578826644  0.560944496245412  1.0000
  O   O7        1.0  0.3990518999308533  0.4909111051196291  0.5845207578892939  1.0000
  O   O8        1.0  0.5392860032677689  0.6498005154095239  0.506059993807618  1.0000
  O   O9        1.0  0.3551379564140617  0.6453100321466183  0.5186518380689336  1.0000
  O   O10       1.0  0.6003764772500941  0.5270716213884797  0.4146525553094095  1.0000
  O   O11       1.0  0.42385412787018584  0.4945532440929839  0.4348602355795563  1.0000
  O   O12       1.0  0.49290929184471827  0.31128383460326586  0.7998708249772406  1.0000
  O   O13       1.0  0.9109492974266332  0.30670525577612295  0.5029594282202652  1.0000
