data_image0
_chemical_formula_structural       Gd2H16C12S2N2O18
_chemical_formula_sum              "Gd2 H16 C12 S2 N2 O18"
_cell_length_a       6.8276009563022715
_cell_length_b       8.72354449659927
_cell_length_c       9.857104902894532
_cell_angle_alpha    94.70048956374879
_cell_angle_beta     103.17527568949245
_cell_angle_gamma    98.11244382273387

_space_group_name_H-M_alt    "P 1"
_space_group_IT_number       1

loop_
  _space_group_symop_operation_xyz
  'x, y, z'

loop_
  _atom_site_type_symbol
  _atom_site_label
  _atom_site_symmetry_multiplicity
  _atom_site_fract_x
  _atom_site_fract_y
  _atom_site_fract_z
  _atom_site_occupancy
  Gd  Gd1       1.0  0.20114212526848968  0.38455980096864545  0.903510120671399  1.0000
  Gd  Gd2       1.0  0.798856990402676  0.6154401998194244  0.09648977590044444  1.0000
  H   H1        1.0  0.8691600299710132  0.34622258311836157  0.6229534333930006  1.0000
  H   H2        1.0  0.1308403360257984  0.6537762497377101  0.37704656863390806  1.0000
  H   H3        1.0  0.7336289638621664  0.24584009896912554  0.3688792891625425  1.0000
  H   H4        1.0  0.2663701518089995  0.7541599018189444  0.6311206074093008  1.0000
  H   H5        1.0  0.3503067407862871  0.19878139641161846  0.2724122698897986  1.0000
  H   H6        1.0  0.649693878721095  0.8012186025417943  0.7275878611850716  1.0000
  H   H7        1.0  0.8784262742065464  0.1158914567631371  0.8652287284639969  1.0000
  H   H8        1.0  0.12157284146461926  0.8841085440249328  0.1347711681078465  1.0000
  H   H9        1.0  0.009138373540856998  0.0447972065059545  0.7700480695032752  1.0000
  H   H10       1.0  0.9908607421303086  0.9552027942821151  0.22995182706856804  1.0000
  H   H11       1.0  0.3171067473327938  0.07470201597607229  0.9501046839529224  1.0000
  H   H12       1.0  0.6828938721745813  0.9252979829773335  0.04989544712194768  1.0000
  H   H13       1.0  0.5344677332574008  0.17089993966759917  0.9634282041954023  1.0000
  H   H14       1.0  0.4655313824137649  0.8291000611204705  0.036571692376440985  1.0000
  H   H15       1.0  0.1433141709432348  0.2385044770264244  0.41840112128978296  1.0000
  H   H16       1.0  0.8566864485641403  0.7614955219269817  0.5815990097850873  1.0000
  C   C1        1.0  0.35851712283053416  0.3222468258522396  0.6064292559526764  1.0000
  C   C2        1.0  0.6414832461837034  0.6777520018778275  0.3935717606619136  1.0000
  C   C3        1.0  0.5757795238686823  0.3522132129566699  0.6640103495111517  1.0000
  C   C4        1.0  0.4242208421281289  0.6477856198994019  0.3359896525157566  1.0000
  C   C5        1.0  0.705378876804346  0.32316575057009783  0.5780050514080912  1.0000
  C   C6        1.0  0.2946202388668198  0.6768342502179719  0.4219948451637593  1.0000
  C   C7        1.0  0.6319822413623867  0.26691924236276776  0.43582730359168664  1.0000
  C   C8        1.0  0.3680183781449954  0.7330807565906455  0.5641728274831908  1.0000
  C   C9        1.0  0.4244148604648998  0.23898326916301466  0.3820208741063881  1.0000
  C   C10       1.0  0.5755857590424824  0.7610167297903982  0.6179792569684892  1.0000
  C   C11       1.0  0.6655731352529983  0.41746125298150355  0.8118701426498731  1.0000
  C   C12       1.0  0.3344259804181675  0.5825387478065664  0.18812975392197023  1.0000
  S   S1        1.0  0.9069222354128782  0.2205137374553415  0.1324419548792264  1.0000
  S   S2        1.0  0.09307688025828748  0.7794862633327284  0.867557941692617  1.0000
  N   N1        1.0  0.29756489145795934  0.2657245155325754  0.4653492763410725  1.0000
  N   N2        1.0  0.7024357280494227  0.7342754834208305  0.5346508547338047  1.0000
  O   O1        1.0  0.21975782658754642  0.34021255970301206  0.6699001566909359  1.0000
  O   O2        1.0  0.7802427929198357  0.6597874392503941  0.3300999743839412  1.0000
  O   O3        1.0  0.5537401365029948  0.4749443443689285  0.8851773546247657  1.0000
  O   O4        1.0  0.4462604830043872  0.5250556545844772  0.11482277645010439  1.0000
  O   O5        1.0  0.8539312524613081  0.42175743967997886  0.8669369451998818  1.0000
  O   O6        1.0  0.14606936704606707  0.5782425592734269  0.13306318587499533  1.0000
  O   O7        1.0  0.10450226200865838  0.2605893205712349  0.0939713440210213  1.0000
  O   O8        1.0  0.8954983574987166  0.7394106783821781  0.9060287870538561  1.0000
  O   O9        1.0  0.939303214817329  0.1415418583147456  0.2618195068290774  1.0000
  O   O10       1.0  0.0606959008538368  0.8584581424733244  0.7381803897427659  1.0000
  O   O11       1.0  0.7639221263054023  0.11102686497088846  0.013336781266012537  1.0000
  O   O12       1.0  0.2360784932019726  0.8889731339825245  0.9866633498088646  1.0000
  O   O13       1.0  0.8131290473318556  0.36049781027700323  0.15696594578090384  1.0000
  O   O14       1.0  0.18687157217552644  0.6395021886764025  0.8430341852939734  1.0000
  O   O15       1.0  0.9644507550073484  0.1430003126822896  0.7995718178700673  1.0000
  O   O16       1.0  0.03554836066381733  0.8569996881057802  0.2004280787017763  1.0000
  O   O17       1.0  0.3868436099825701  0.17658564518149686  0.9331742288866353  1.0000
  O   O18       1.0  0.6131570065073788  0.8234143588979137  0.06682488760055354  1.0000
