data_image0
_chemical_formula_structural       Cu2H30C28N8O8
_chemical_formula_sum              "Cu2 H30 C28 N8 O8"
_cell_length_a       7.354427454155759
_cell_length_b       8.322496561681302
_cell_length_c       12.794835245145583
_cell_angle_alpha    80.44141085194325
_cell_angle_beta     83.52106225611969
_cell_angle_gamma    81.3770842089836

_space_group_name_H-M_alt    "P 1"
_space_group_IT_number       1

loop_
  _space_group_symop_operation_xyz
  'x, y, z'

loop_
  _atom_site_type_symbol
  _atom_site_label
  _atom_site_symmetry_multiplicity
  _atom_site_fract_x
  _atom_site_fract_y
  _atom_site_fract_z
  _atom_site_occupancy
  Cu  Cu1       1.0  0.374609732136598  0.05075121937635879  0.5700999124037551  1.0000
  Cu  Cu2       1.0  0.6253762574327626  0.9492534549067739  0.4299022192736146  1.0000
  H   H1        1.0  0.9470080585126226  0.005689453886347498  0.6269576153859616  1.0000
  H   H2        1.0  0.05298212411143059  0.9943238275195865  0.3730448616661945  1.0000
  H   H3        1.0  0.7455883866528836  0.02624008357347659  0.8225419046413833  1.0000
  H   H4        1.0  0.25441890567290676  0.9737498489473352  0.1774675465897317  1.0000
  H   H5        1.0  0.9844061338610999  0.13826393273872378  0.9375995086106599  1.0000
  H   H6        1.0  0.015617402347977804  0.8617087475680734  0.062409262469088816  1.0000
  H   H7        1.0  0.05516192858694067  0.6533353236443488  0.9377736178453518  1.0000
  H   H8        1.0  0.9448387686099479  0.34665331369753  0.06222545152716917  1.0000
  H   H9        1.0  0.25118385457876974  0.7604596346461817  0.7448647390330337  1.0000
  H   H10       1.0  0.7488161104964705  0.239533926502645  0.25513461315669167  1.0000
  H   H11       1.0  0.4146980974099961  0.46903347912011367  0.6775670126749205  1.0000
  H   H12       1.0  0.5853032037268235  0.5309698504924895  0.322422576414951  1.0000
  H   H13       1.0  0.42272453483499833  0.18294090480569025  0.7475523739284355  1.0000
  H   H14       1.0  0.5772838397127488  0.8170513933727364  0.2524442418057902  1.0000
  H   H15       1.0  0.3509227452526105  0.8622536510364254  0.8814009264145071  1.0000
  H   H16       1.0  0.6490696529885156  0.13774483628034767  0.1185975771707035  1.0000
  H   H17       1.0  0.4914407627388755  0.30353442851717455  0.969036003065952  1.0000
  H   H18       1.0  0.5085553495728662  0.6964665436549138  0.030966680172383635  1.0000
  H   H19       1.0  0.3090408445976962  0.425720432931648  0.25269540079303704  1.0000
  H   H20       1.0  0.690978926184556  0.5742780052715443  0.7473021597021727  1.0000
  H   H21       1.0  0.08965522054371182  0.35737319622914737  0.2949353723539332  1.0000
  H   H22       1.0  0.9103548159176994  0.6426449055603455  0.7050575004653439  1.0000
  H   H23       1.0  0.2438570395381775  0.2662428027854061  0.19531122338271703  1.0000
  H   H24       1.0  0.756151503099673  0.7337667317398767  0.8046873816580771  1.0000
  H   H25       1.0  0.7130601271568365  0.4934699380145701  0.49997138396737745  1.0000
  H   H26       1.0  0.28692840869471337  0.5065359716596232  0.5000320131741205  1.0000
  H   H27       1.0  0.924216032586422  0.3545374503511026  0.4910221090842485  1.0000
  H   H28       1.0  0.07577032545027862  0.6454647591950219  0.5089794905576  1.0000
  H   H29       1.0  0.798307072565038  0.37636154014542456  0.6171571300301294  1.0000
  H   H30       1.0  0.20168418176979946  0.6236443867190287  0.3828492196923321  1.0000
  C   C1        1.0  0.9840314829242234  0.045763943104702796  0.6972965991017261  1.0000
  C   C2        1.0  0.01595962808773524  0.9542431679580756  0.3027033759808831  1.0000
  C   C3        1.0  0.8839329000271618  0.05533118041885388  0.7972399187510035  1.0000
  C   C4        1.0  0.11607013274656446  0.9446599558515345  0.20276497899951104  1.0000
  C   C5        1.0  0.001559270342660598  0.10935286768890508  0.857268292318885  1.0000
  C   C6        1.0  0.998456819175111  0.8906333144561671  0.14273476540586214  1.0000
  C   C7        1.0  0.14450028493700268  0.5827853409364394  0.8832274712797101  1.0000
  C   C8        1.0  0.8555016281786506  0.4172044891988945  0.11676669974344384  1.0000
  C   C9        1.0  0.24347855814203706  0.636447168327777  0.7854550255760345  1.0000
  C   C10       1.0  0.7565240061587845  0.363547565874228  0.21453699828562384  1.0000
  C   C11       1.0  0.3282670095830654  0.4934194187107578  0.7492117477561707  1.0000
  C   C12       1.0  0.6717297869030219  0.5065679689778549  0.25078379860790523  1.0000
  C   C13       1.0  0.3230615278973517  0.1928300179713531  0.8178131119576478  1.0000
  C   C14       1.0  0.676944290742135  0.8071610561501711  0.18218380082011984  1.0000
  C   C15       1.0  0.4077599199234713  0.09464144738226567  0.9155256912868452  1.0000
  C   C16       1.0  0.5922533846136488  0.9053545284449241  0.0844702057511313  1.0000
  C   C17       1.0  0.4141470645931379  0.9235182240355043  0.933980155366463  1.0000
  C   C18       1.0  0.5858541980394065  0.07648515091374007  0.0660156837540953  1.0000
  C   C19       1.0  0.49487462038791813  0.1705338875352638  0.9820390853596166  1.0000
  C   C20       1.0  0.5051264459783623  0.8294707339501883  0.017958972913291384  1.0000
  C   C21       1.0  0.3252112234660913  0.1959253389456492  0.3552334965350852  1.0000
  C   C22       1.0  0.6747834438544941  0.8040854581720039  0.644766627322305  1.0000
  C   C23       1.0  0.2341619128765728  0.3181071688461471  0.2692808871283816  1.0000
  C   C24       1.0  0.7658388090875476  0.6818998890409133  0.7307137969108625  1.0000
  C   C25       1.0  0.6766163003221024  0.23795240363057246  0.5232160939262869  1.0000
  C   C26       1.0  0.3233737765982454  0.7620522851037848  0.47678890411484803  1.0000
  C   C27       1.0  0.7862706144663107  0.3738449320745048  0.5327826228395978  1.0000
  C   C28       1.0  0.21371928543991467  0.6261609805277428  0.46722146933854  1.0000
  N   N1        1.0  0.1514531769502625  0.09146304888755448  0.695524737243055  1.0000
  N   N2        1.0  0.8485410450774822  0.9085415862930615  0.30447375211581124  1.0000
  N   N3        1.0  0.16089543024995837  0.12839030040363744  0.7940459914797344  1.0000
  N   N4        1.0  0.8391134705271098  0.8715983318382071  0.20595412309731392  1.0000
  N   N5        1.0  0.2793808967279574  0.36664013888762526  0.8241266544685503  1.0000
  N   N6        1.0  0.7206223043189227  0.6333595163822848  0.1758655659931136  1.0000
  N   N7        1.0  0.1659854312608005  0.4183573637604851  0.9064467198863967  1.0000
  N   N8        1.0  0.8340138305710028  0.5816410871928068  0.093548227597509  1.0000
  O   O1        1.0  0.25467688398407523  0.1990167846257052  0.45074864276305254  1.0000
  O   O2        1.0  0.7453405661794505  0.8010063038756671  0.5492549331239829  1.0000
  O   O3        1.0  0.7447356183853628  0.1381484736391982  0.4592778701447955  1.0000
  O   O4        1.0  0.25524310220886537  0.8618869274949148  0.540718974976464  1.0000
  O   O5        1.0  0.467758606577199  0.10042083285059528  0.3260176969474601  1.0000
  O   O6        1.0  0.5322200165352768  0.8995690665166193  0.6739810647833054  1.0000
  O   O7        1.0  0.5219733909422857  0.23335254421559168  0.5800299998697298  1.0000
  O   O8        1.0  0.47801733557605536  0.766628868171608  0.4199884757335255  1.0000
