data_image0
_chemical_formula_structural       Ag2H16C30Br4N10O8
_chemical_formula_sum              "Ag2 H16 C30 Br4 N10 O8"
_cell_length_a       7.797581160395299
_cell_length_b       9.027351789774217
_cell_length_c       12.471891305608974
_cell_angle_alpha    101.46576176762078
_cell_angle_beta     100.06888425279641
_cell_angle_gamma    90.69536614937044

_space_group_name_H-M_alt    "P 1"
_space_group_IT_number       1

loop_
  _space_group_symop_operation_xyz
  'x, y, z'

loop_
  _atom_site_type_symbol
  _atom_site_label
  _atom_site_symmetry_multiplicity
  _atom_site_fract_x
  _atom_site_fract_y
  _atom_site_fract_z
  _atom_site_occupancy
  Ag  Ag1       1.0  0.548973651254734  0.8226136673345437  0.4881722051734626  1.0000
  Ag  Ag2       1.0  0.4510219882251575  0.17738675755244065  0.5118273364836269  1.0000
  H   H1        1.0  0.9806927032378425  0.20825165085306444  0.47234299300085764  1.0000
  H   H2        1.0  0.019305878996448197  0.791754424700187  0.5276577046969847  1.0000
  H   H3        1.0  0.8629878029525456  0.929659178815569  0.14155856908203643  1.0000
  H   H4        1.0  0.1370106362708157  0.07034462395396447  0.8584433827832921  1.0000
  H   H5        1.0  0.0198466844566099  0.11878839762518106  0.07107923881427776  1.0000
  H   H6        1.0  0.980151694872454  0.8812142830623271  0.9289209380844451  1.0000
  H   H7        1.0  0.1968437014588886  0.3609927623154761  0.8638398694106468  1.0000
  H   H8        1.0  0.8031587161384551  0.6390121656809525  0.13616188743426957  1.0000
  H   H9        1.0  0.2731604104042802  0.440801879217048  0.7002925309588048  1.0000
  H   H10       1.0  0.726847842289807  0.5591917139519749  0.29970820999460546  1.0000
  H   H11       1.0  0.481166905499876  0.8701007336969225  0.9077985808523931  1.0000
  H   H12       1.0  0.518833736362417  0.12989627666775758  0.09220181677347476  1.0000
  H   H13       1.0  0.2224941274827472  0.47816463404571846  0.25021041517069154  1.0000
  H   H14       1.0  0.777501508126754  0.5218357860713212  0.7497899271698498  1.0000
  H   H15       1.0  0.2915039652431162  0.6021542241259822  0.14859566311361044  1.0000
  H   H16       1.0  0.7084916066016973  0.39784506913908757  0.8514037049437773  1.0000
  C   C1        1.0  0.08023567416274349  0.2918594614039022  0.3438558330966258  1.0000
  C   C2        1.0  0.9197627090367033  0.7081432240535431  0.6561435431186523  1.0000
  C   C3        1.0  0.9887333548851345  0.18950751112705425  0.38446593327540046  1.0000
  C   C4        1.0  0.0112676251525485  0.8104951573471978  0.6155353323489974  1.0000
  C   C5        1.0  0.9063870315350541  0.05920691821431489  0.3110707946570414  1.0000
  C   C6        1.0  0.0936113999475268  0.9407968750153302  0.6889327585751913  1.0000
  C   C7        1.0  0.8089328787570694  0.9587585774944856  0.3535803020779226  1.0000
  C   C8        1.0  0.19106013679185446  0.0412418309860882  0.6464229549541968  1.0000
  C   C9        1.0  0.9207107147305608  0.0327559045443948  0.19816764157397412  1.0000
  C   C10       1.0  0.0792875892226377  0.9672456349813102  0.801833963091944  1.0000
  C   C11       1.0  0.010470896076363097  0.13746463991707705  0.15848701578406824  1.0000
  C   C12       1.0  0.989526180963189  0.8625380444920834  0.8415130170935397  1.0000
  C   C13       1.0  0.09019830433747698  0.2716875381989539  0.22915149726870243  1.0000
  C   C14       1.0  0.9098011859870284  0.7283117582109851  0.7708459008016673  1.0000
  C   C15       1.0  0.18577716309992806  0.3859265618812771  0.08253064715900388  1.0000
  C   C16       1.0  0.8142262224819206  0.6140727090538718  0.9174695850250456  1.0000
  C   C17       1.0  0.29598928064717006  0.5659855430385649  0.9803022743260497  1.0000
  C   C18       1.0  0.7040128664098617  0.4340148584702063  0.019698788120045715  1.0000
  C   C19       1.0  0.2607637907811977  0.47126168222847303  0.8732624088252547  1.0000
  C   C20       1.0  0.73924356930425  0.5287387091636261  0.12673842902182733  1.0000
  C   C21       1.0  0.3032189597979026  0.5171456451975729  0.7811942015549105  1.0000
  C   C22       1.0  0.6967818328161001  0.482853647490714  0.2188033405365672  1.0000
  C   C23       1.0  0.38452320641432886  0.660952212085078  0.7926043786703115  1.0000
  C   C24       1.0  0.615487857634392  0.3390447732763134  0.20739637044098902  1.0000
  C   C25       1.0  0.43100439619539793  0.7129717660812956  0.7014691021378282  1.0000
  C   C26       1.0  0.5689954400452776  0.28703319797809707  0.2985275625641676  1.0000
  C   C27       1.0  0.41932944094529034  0.7582701159955219  0.8979145708416919  1.0000
  C   C28       1.0  0.5806749087506732  0.2417234931084025  0.10208493736493546  1.0000
  C   C29       1.0  0.37392406146601326  0.7119771932263815  0.9887942391772878  1.0000
  C   C30       1.0  0.626075413376924  0.2880220841037796  0.011206361626875595  1.0000
  Br  Br1       1.0  0.1990425720332141  0.4601334506118064  0.4487117221446865  1.0000
  Br  Br2       1.0  0.8009595228703007  0.5398658383548209  0.5512859639678991  1.0000
  Br  Br3       1.0  0.4196458632706026  0.8524763150223221  0.12700515777915908  1.0000
  Br  Br4       1.0  0.5803573271467924  0.14751957058697232  0.872992952238867  1.0000
  N   N1        1.0  0.7247019109782753  0.8820618572608578  0.3914410221431907  1.0000
  N   N2        1.0  0.275291251451982  0.11794082877337786  0.6085601800379903  1.0000
  N   N3        1.0  0.1746171256186102  0.38213686223014065  0.19206490188788183  1.0000
  N   N4        1.0  0.8253826275054265  0.6178669511275672  0.8079347919482058  1.0000
  N   N5        1.0  0.25965370368883356  0.5237521611011857  0.07480540642680467  1.0000
  N   N6        1.0  0.7403431704454846  0.4762471284422318  0.9251941056516981  1.0000
  N   N7        1.0  0.4719557162499298  0.7603406174096106  0.6285935804410909  1.0000
  N   N8        1.0  0.5280512302842624  0.2396529747111131  0.3714078171746563  1.0000
  N   N9        1.0  0.2051690582406565  0.7553648469279323  0.32717264390203116  1.0000
  N   N10       1.0  0.7948265136041498  0.24463444633713743  0.6728267241553565  1.0000
  O   O1        1.0  0.1374842384796935  0.2804732832396083  0.0028027794416515947  1.0000
  O   O2        1.0  0.8625242248604081  0.7195237143350395  0.997196880943974  1.0000
  O   O3        1.0  0.2280794175163052  0.8654774657844299  0.4097763834800431  1.0000
  O   O4        1.0  0.7719187550371275  0.1345218152673908  0.5902240733030125  1.0000
  O   O5        1.0  0.060078526959934195  0.7219096478534297  0.2655800462667344  1.0000
  O   O6        1.0  0.9399169540274599  0.2780884851700661  0.7344239522916493  1.0000
  O   O7        1.0  0.3368597374511566  0.6748584448345554  0.3077347859571801  1.0000
  O   O8        1.0  0.6631359136399056  0.3251419943622622  0.6922623536495606  1.0000
