data_image0
_chemical_formula_structural       Ni2H24C24N4Cl4
_chemical_formula_sum              "Ni2 H24 C24 N4 Cl4"
_cell_length_a       5.223903539131209
_cell_length_b       8.82040447787099
_cell_length_c       13.684158278299448
_cell_angle_alpha    88.11392250956925
_cell_angle_beta     82.32223679495047
_cell_angle_gamma    83.30069641564394

_space_group_name_H-M_alt    "P 1"
_space_group_IT_number       1

loop_
  _space_group_symop_operation_xyz
  'x, y, z'

loop_
  _atom_site_type_symbol
  _atom_site_label
  _atom_site_symmetry_multiplicity
  _atom_site_fract_x
  _atom_site_fract_y
  _atom_site_fract_z
  _atom_site_occupancy
  Ni  Ni1       1.0  0.9093438476192047  0.5365478183610861  0.7405460539102504  1.0000
  Ni  Ni2       1.0  0.09065001836477651  0.46344933566486185  0.2594511073149874  1.0000
  H   H1        1.0  0.48985818806866627  0.5336347241708238  0.6156255801404524  1.0000
  H   H2        1.0  0.5101247405413074  0.4663704747260198  0.3843689780355674  1.0000
  H   H3        1.0  0.2822460117683221  0.33823005992921645  0.5373397928231967  1.0000
  H   H4        1.0  0.7177498079953041  0.6617682079085441  0.4626521408184486  1.0000
  H   H5        1.0  0.786323442596604  0.9918624085649128  0.6706407149849268  1.0000
  H   H6        1.0  0.2136541525473987  0.0081485563588473  0.32936492322790656  1.0000
  H   H7        1.0  0.972703764453101  0.20388980017382613  0.7463953313898415  1.0000
  H   H8        1.0  0.027295217044518014  0.7961187643977821  0.253615974460935  1.0000
  H   H9        1.0  0.2162456214584338  0.06913354697243082  0.5269739445262472  1.0000
  H   H10       1.0  0.7837476155148124  0.9308670341594831  0.4730239029167151  1.0000
  H   H11       1.0  0.38456363540667127  0.9263086587591757  0.5964260125318432  1.0000
  H   H12       1.0  0.6154362459592589  0.07369758737962681  0.4035736083322945  1.0000
  H   H13       1.0  0.44010577166146436  0.7421012491680584  0.7077327684130025  1.0000
  H   H14       1.0  0.5598826556488632  0.25790280592834586  0.2922732608256595  1.0000
  H   H15       1.0  0.07921745532097899  0.8921999802418057  0.8098625470097855  1.0000
  H   H16       1.0  0.9207808080357438  0.10780287320795878  0.19014379656957905  1.0000
  H   H17       1.0  0.427080628399402  0.718995770151828  0.0669193238523036  1.0000
  H   H18       1.0  0.5729417607951673  0.2810023586639757  0.933083112419716  1.0000
  H   H19       1.0  0.7738624679561636  0.5739414033229407  0.9536961784585924  1.0000
  H   H20       1.0  0.22614869551025404  0.42605677377210327  0.04629799093804369  1.0000
  H   H21       1.0  0.8283635624177491  0.8687434976032762  0.012724488321580917  1.0000
  H   H22       1.0  0.17164764581410447  0.1312501656879803  0.9872873159141802  1.0000
  H   H23       1.0  0.05606589453830678  0.8995747127492848  0.09101178668441888  1.0000
  H   H24       1.0  0.943954037220969  0.1004257205705414  0.9089936344737521  1.0000
  C   C1        1.0  0.5503845220326937  0.4126873092077047  0.6268574949086627  1.0000
  C   C2        1.0  0.4496072827286567  0.5873132492052873  0.37312872351863996  1.0000
  C   C3        1.0  0.4347624840995934  0.3027857586896942  0.5833212173658139  1.0000
  C   C4        1.0  0.5652446289558739  0.6972033116533608  0.4166696735181147  1.0000
  C   C5        1.0  0.5169301571549314  0.1479003101950411  0.5977069350147062  1.0000
  C   C6        1.0  0.48305450586329374  0.8521060178963467  0.4022875211792679  1.0000
  C   C7        1.0  0.7130579455895756  0.11111695408565939  0.6579702344670861  1.0000
  C   C8        1.0  0.28695525183060505  0.8888892203446375  0.34203390548344703  1.0000
  C   C9        1.0  0.8189382535046974  0.22692260571630377  0.6995055475706237  1.0000
  C   C10       1.0  0.18104800737533105  0.773085988810692  0.30048732684669216  1.0000
  C   C11       1.0  0.40844296617174075  0.0260787937863327  0.5471698666281098  1.0000
  C   C12       1.0  0.5915567320477138  0.9739183207172669  0.452826302433273  1.0000
  C   C13       1.0  0.4310728565111791  0.7407844602205101  0.7876383361774868  1.0000
  C   C14       1.0  0.5689169098109658  0.2591990798422543  0.21237537806054965  1.0000
  C   C15       1.0  0.2303200858922025  0.8254623549855182  0.8458274319957578  1.0000
  C   C16       1.0  0.7696709667386373  0.1745382561682547  0.1541763599225732  1.0000
  C   C17       1.0  0.2236476812061383  0.8226707834954466  0.948646973618814  1.0000
  C   C18       1.0  0.7763867082298147  0.17732498739844255  0.0513549734571228  1.0000
  C   C19       1.0  0.4218557765860496  0.7291712797124674  0.9875523249513731  1.0000
  C   C20       1.0  0.5781511010205094  0.2708280792846551  0.012447127999841698  1.0000
  C   C21       1.0  0.6166721651629528  0.6467213049561665  0.9250783096509563  1.0000
  C   C22       1.0  0.3833194314183573  0.3532781403886105  0.07491744308767778  1.0000
  C   C23       1.0  0.014361792682755916  0.9149999574030755  0.014638098483267505  1.0000
  C   C24       1.0  0.9856558342651808  0.08499136990835149  0.9853683508899277  1.0000
  N   N1        1.0  0.740718548207525  0.3761788311906712  0.6837656021162031  1.0000
  N   N2        1.0  0.2592832515293821  0.623817131432709  0.3162312278659698  1.0000
  N   N3        1.0  0.6235857123615886  0.6534269211818327  0.826201225955927  1.0000
  N   N4        1.0  0.37641073152661875  0.34657706437035773  0.17379786664351116  1.0000
  Cl  Cl1       1.0  0.9805491919876629  0.7006408610135537  0.6149749358482878  1.0000
  Cl  Cl2       1.0  0.019444888481565684  0.2993654224500588  0.3850249449509136  1.0000
  Cl  Cl3       1.0  0.1396323547825631  0.40516234470337764  0.8465796723591833  1.0000
  Cl  Cl4       1.0  0.8603679836389801  0.5948302142433093  0.15342021919425256  1.0000
