data_image0
_chemical_formula_structural       Zn4H60C64N12O8
_chemical_formula_sum              "Zn4 H60 C64 N12 O8"
_cell_length_a       8.857221329749072
_cell_length_b       13.348621320496987
_cell_length_c       16.386374869322587
_cell_angle_alpha    79.8903135648004
_cell_angle_beta     76.23927851990854
_cell_angle_gamma    71.3037450912512

_space_group_name_H-M_alt    "P 1"
_space_group_IT_number       1

loop_
  _space_group_symop_operation_xyz
  'x, y, z'

loop_
  _atom_site_type_symbol
  _atom_site_label
  _atom_site_symmetry_multiplicity
  _atom_site_fract_x
  _atom_site_fract_y
  _atom_site_fract_z
  _atom_site_occupancy
  Zn  Zn1       1.0  0.6809195441607016  0.4847094992543859  0.0074105937450709616  1.0000
  Zn  Zn2       1.0  0.31908997599899896  0.5152933659680483  0.9925864746044226  1.0000
  Zn  Zn3       1.0  0.1843691889116458  0.9981846965588725  0.4868621153555708  1.0000
  Zn  Zn4       1.0  0.8156203133203305  0.0018213670780226996  0.5131364698010827  1.0000
  H   H1        1.0  0.8020607188013429  0.6535471943212627  0.1937973210503613  1.0000
  H   H2        1.0  0.19794324021380313  0.3464525049436702  0.8062039781596012  1.0000
  H   H3        1.0  0.6600647664283628  0.7801832152284404  0.18136801476342154  1.0000
  H   H4        1.0  0.3399403577236413  0.2198164866126504  0.8186343537719978  1.0000
  H   H5        1.0  0.07272006770106286  0.5322554198561491  0.121540163978807  1.0000
  H   H6        1.0  0.9272896978951337  0.4677442607218296  0.878456114398638  1.0000
  H   H7        1.0  0.24810916926200824  0.5123829694775067  0.15771706075446454  1.0000
  H   H8        1.0  0.7518986220749682  0.4876159160018573  0.8422789783621453  1.0000
  H   H9        1.0  0.4402916133544749  0.33369868989009194  0.16948347363357638  1.0000
  H   H10       1.0  0.5597153699838698  0.6662994049237485  0.8305140053982284  1.0000
  H   H11       1.0  0.2108604236535855  0.7447766663603727  0.9784050934679768  1.0000
  H   H12       1.0  0.7891416683091919  0.2552246269333196  0.021596826291549583  1.0000
  H   H13       1.0  0.0002137025193392173  0.20524064409580933  0.1270708568262933  1.0000
  H   H14       1.0  0.9997952494596162  0.7947582365320045  0.8729238122134716  1.0000
  H   H15       1.0  0.33097972991889435  0.006479453466837999  0.04180178693093949  1.0000
  H   H16       1.0  0.6690249377540881  0.9935186603347217  0.9582014815074515  1.0000
  H   H17       1.0  0.1415928056539002  0.9368749637728442  0.9896672579980007  1.0000
  H   H18       1.0  0.8584138351545788  0.06312394327040488  0.010335639850644866  1.0000
  H   H19       1.0  0.248114558795443  0.07453555470321048  0.17236884912740183  1.0000
  H   H20       1.0  0.7518906658210868  0.9254665251237026  0.8276307201149535  1.0000
  H   H21       1.0  0.46892578678029645  0.14135950124418167  0.19200120701375312  1.0000
  H   H22       1.0  0.5310731657864095  0.8586409943747453  0.8079994041594888  1.0000
  H   H23       1.0  0.9806772096609749  0.7010762301393426  0.05428382163641027  1.0000
  H   H24       1.0  0.019323400039297712  0.29891790062376333  0.9457168887687571  1.0000
  H   H25       1.0  0.9552225287974779  0.7839850495392466  0.13354179899303634  1.0000
  H   H26       1.0  0.04478632159323581  0.21601145124582638  0.8664550594892049  1.0000
  H   H27       1.0  0.8460042994634235  0.830301349772945  0.049419162598006466  1.0000
  H   H28       1.0  0.15400409444826824  0.16969356297259708  0.9505785957872064  1.0000
  H   H29       1.0  0.5731522782253081  0.8818471926911825  0.08634831856076633  1.0000
  H   H30       1.0  0.42685122992941876  0.11815092781884566  0.9136569298050503  1.0000
  H   H31       1.0  0.7717324955993093  0.18743907717511377  0.419232110974356  1.0000
  H   H32       1.0  0.22825816615092254  0.8125669797533135  0.5807644942548648  1.0000
  H   H33       1.0  0.5897598442209074  0.15768839948498936  0.45154126149578383  1.0000
  H   H34       1.0  0.4102297584755946  0.8423200421377358  0.5484545243678127  1.0000
  H   H35       1.0  0.5493841712374348  0.9633372329698842  0.2559162977790023  1.0000
  H   H36       1.0  0.45061098677256683  0.036656124676945  0.7440907229981943  1.0000
  H   H37       1.0  0.31507478442394904  0.30595101265136987  0.4826936416111849  1.0000
  H   H38       1.0  0.6849218412402106  0.694049483386017  0.5173066604628714  1.0000
  H   H39       1.0  0.16118846114100902  0.3620257125313556  0.5667192745492285  1.0000
  H   H40       1.0  0.8388087225904145  0.6379787513883101  0.4332779381793728  1.0000
  H   H41       1.0  0.8051392971686372  0.9479293934924938  0.14824142456215839  1.0000
  H   H42       1.0  0.19485427699061122  0.052054421781001316  0.8517665763031557  1.0000
  H   H43       1.0  0.9691737238441719  0.11060514371077802  0.298889079242592  1.0000
  H   H44       1.0  0.030815421249584973  0.889401708015491  0.7011069966734026  1.0000
  H   H45       1.0  0.06948601206295277  0.3065891011517792  0.68684479457621  1.0000
  H   H46       1.0  0.9305139961863274  0.6934090042020743  0.31315480641093535  1.0000
  H   H47       1.0  0.6355542533011728  0.2135852734878867  0.785030983566628  1.0000
  H   H48       1.0  0.3644485895794389  0.7864064900124957  0.21497649433423757  1.0000
  H   H49       1.0  0.7053484938219796  0.10151924941163058  0.668161439515984  1.0000
  H   H50       1.0  0.2946442905305987  0.8984820455559087  0.3318392438468151  1.0000
  H   H51       1.0  0.015646417481256898  0.021756514558873605  0.1703277799136202  1.0000
  H   H52       1.0  0.9843418546670293  0.9782392130445385  0.8296724650200814  1.0000
  H   H53       1.0  0.3330300118527632  0.2505471195004957  0.6716881274714552  1.0000
  H   H54       1.0  0.6669655547576666  0.7494557612311893  0.3283113552369699  1.0000
  H   H55       1.0  0.4435782525936817  0.326630019812363  0.5959422019635241  1.0000
  H   H56       1.0  0.5564218606150035  0.673370470955021  0.4040570391328657  1.0000
  H   H57       1.0  0.4821209377539263  0.18840654283334857  0.5896124398442026  1.0000
  H   H58       1.0  0.5178725518853186  0.8115931611000421  0.4103883831952899  1.0000
  H   H59       1.0  0.8219199240739458  0.31493722894445847  0.79540745707871  1.0000
  H   H60       1.0  0.17808428374885915  0.6850592912468018  0.20459488171092485  1.0000
  C   C1        1.0  0.9265950226901367  0.4127799377910789  0.09846021333515148  1.0000
  C   C2        1.0  0.07341484898918088  0.5872221300573556  0.9015363150021116  1.0000
  C   C3        1.0  0.07723864089535944  0.34188731267429506  0.12577536739237155  1.0000
  C   C4        1.0  0.9227711303194325  0.6581123771883101  0.8742239602379485  1.0000
  C   C5        1.0  0.7539795144377308  0.7179335369217836  0.14664792753365674  1.0000
  C   C6        1.0  0.2460264188366281  0.2820669574417565  0.853353610937134  1.0000
  C   C7        1.0  0.34173736538910043  0.30528747836083164  0.1626270057078401  1.0000
  C   C8        1.0  0.6582650780932934  0.6947130175588684  0.8373743740394631  1.0000
  C   C9        1.0  0.2888859007657489  0.7748408709378507  0.003717339215029458  1.0000
  C   C10       1.0  0.7111165438403686  0.22515962683877427  0.9962846503828544  1.0000
  C   C11       1.0  0.2024822957885704  0.3782899683467561  0.1384094434772507  1.0000
  C   C12       1.0  0.7975267667683853  0.621711306979222  0.8615879149246408  1.0000
  C   C13       1.0  0.5353610710429563  0.739076213027971  0.0605756897807836  1.0000
  C   C14       1.0  0.4646436982182748  0.2609242806163437  0.9394253892151311  1.0000
  C   C15       1.0  0.09743738311007628  0.23180026047180746  0.1377156852165484  1.0000
  C   C16       1.0  0.9025719260070989  0.768197832066647  0.8622814930638681  1.0000
  C   C17       1.0  0.35571051346683186  0.9218085925687445  0.03857246393491925  1.0000
  C   C18       1.0  0.6442934466720375  0.07819110855311348  0.961429445125617  1.0000
  C   C19       1.0  0.25169375087492796  0.8828448369501204  0.009277189416899033  1.0000
  C   C20       1.0  0.7483152123412254  0.11715406224696068  0.9907235781286231  1.0000
  C   C21       1.0  0.6797404027909054  0.6723393333012737  0.09337205134072231  1.0000
  C   C22       1.0  0.32026577704366577  0.3276579782747363  0.9066293070086006  1.0000
  C   C23       1.0  0.23541563992785083  0.15958726381987282  0.16258137121319996  1.0000
  C   C24       1.0  0.7645879698151178  0.8404132365329102  0.8374216877101333  1.0000
  C   C25       1.0  0.3582567530562741  0.1968050489869241  0.1746617747043118  1.0000
  C   C26       1.0  0.6417468465732201  0.8031954346535172  0.8253357955638376  1.0000
  C   C27       1.0  0.4301073190997898  0.7009444784004656  0.027354863927797554  1.0000
  C   C28       1.0  0.5699001252124488  0.29905521188060646  0.9726441546033442  1.0000
  C   C29       1.0  0.8920683602944944  0.7607537099596015  0.09332847692405005  1.0000
  C   C30       1.0  0.10793735856617559  0.23924200614917615  0.9066713419259357  1.0000
  C   C31       1.0  0.4934374228675723  0.8503218488463061  0.06363132966450281  1.0000
  C   C32       1.0  0.5065630497267719  0.1496778575455551  0.9363716403737  1.0000
  C   C33       1.0  0.6103713292161927  0.04906265273540101  0.3358236632118192  1.0000
  C   C34       1.0  0.3896192320695134  0.9509410262072039  0.6641757413104656  1.0000
  C   C35       1.0  0.45173697435900806  0.05775516684717268  0.3943883316400658  1.0000
  C   C36       1.0  0.5482482289586414  0.9422501058234259  0.6056109248577213  1.0000
  C   C37       1.0  0.6420601891359681  0.9964277804173703  0.2637557649349133  1.0000
  C   C38       1.0  0.35793157280428284  0.0035679456298823  0.7362446387222761  1.0000
  C   C39       1.0  0.03400618258624631  0.19896437853414986  0.613727630817479  1.0000
  C   C40       1.0  0.9659912589425872  0.8010369211672526  0.3862755002954117  1.0000
  C   C41       1.0  0.927845177466473  0.1386034629754036  0.6100674495407006  1.0000
  C   C42       1.0  0.07215190242926885  0.861398617387664  0.3899307329292228  1.0000
  C   C43       1.0  0.7314654644191522  0.08974278617485958  0.3481664370608684  1.0000
  C   C44       1.0  0.2685201965012424  0.9102640763921955  0.6518325293845207  1.0000
  C   C45       1.0  0.2584636152452974  0.2896931715871886  0.5489680904035906  1.0000
  C   C46       1.0  0.7415288142165009  0.7103089151835744  0.4510313034196969  1.0000
  C   C47       1.0  0.7849216124569123  0.9876216986346621  0.20405593516695567  1.0000
  C   C48       1.0  0.2150722732093939  0.012369267308635298  0.7959491564743786  1.0000
  C   C49       1.0  0.184906969901057  0.20057037426251156  0.5533062915604531  1.0000
  C   C50       1.0  0.8150869784646486  0.7994309214242604  0.446694851277222  1.0000
  C   C51       1.0  0.8755493805078702  0.0804103640282179  0.2880149412239347  1.0000
  C   C52       1.0  0.12443652922017642  0.919593319465164  0.7119850648011337  1.0000
  C   C53       1.0  0.9889067820353717  0.2623071287355856  0.6815041856608132  1.0000
  C   C54       1.0  0.011090552286617537  0.7376917818384287  0.31849808564167853  1.0000
  C   C55       1.0  0.7454312920838789  0.21064447235885092  0.7372463532377224  1.0000
  C   C56       1.0  0.2545724603836205  0.7893504616498035  0.2627574953054648  1.0000
  C   C57       1.0  0.7841677881806747  0.14789153599051724  0.6719297119364782  1.0000
  C   C58       1.0  0.21582919125054187  0.8521081663867208  0.32807126982650897  1.0000
  C   C59       1.0  0.9018389534178084  0.030221851544666795  0.21610584389233617  1.0000
  C   C60       1.0  0.09814907778885372  0.9697770681309024  0.7838976304157227  1.0000
  C   C61       1.0  0.386765203915651  0.26248550820060496  0.6044187159338748  1.0000
  C   C62       1.0  0.6132283884355589  0.7375165774324658  0.3955805275137222  1.0000
  C   C63       1.0  0.8492022741267178  0.2680645706129922  0.742791053108462  1.0000
  C   C64       1.0  0.15080147834078164  0.7319303633956621  0.2572127954347322  1.0000
  N   N1        1.0  0.747637623714837  0.5733833893790887  0.07637959785846256  1.0000
  N   N2        1.0  0.25237179148545846  0.42661709042981505  0.9236178303817866  1.0000
  N   N3        1.0  0.8861658993821563  0.5166117544582461  0.10691648123314926  1.0000
  N   N4        1.0  0.11384048587635219  0.48339032051711667  0.8930817179323612  1.0000
  N   N5        1.0  0.1944652537677598  0.48822830207559775  0.11915771887440477  1.0000
  N   N6        1.0  0.8055426447760611  0.5117729725311477  0.8808391800526039  1.0000
  N   N7        1.0  0.7135475177977495  0.13096742108263731  0.42562684855080596  1.0000
  N   N8        1.0  0.28644011176326245  0.8690402272983987  0.5743693079025292  1.0000
  N   N9        1.0  0.2576966672032057  0.12503703360240337  0.5032998072539527  1.0000
  N   N10       1.0  0.7422962198613307  0.8749666430648159  0.49669929651693673  1.0000
  N   N11       1.0  0.40367990117950814  0.1278039518736023  0.4514203425518204  1.0000
  N   N12       1.0  0.5963146075009077  0.872201315409306  0.548578930641554  1.0000
  O   O1        1.0  0.4594385942270237  0.5979680119305398  0.018650633540261186  1.0000
  O   O2        1.0  0.5405723342585844  0.40203166750974617  0.9813454944614862  1.0000
  O   O3        1.0  0.842754149133718  0.36985921794439497  0.06832549145927655  1.0000
  O   O4        1.0  0.15725768893877762  0.6301436320041702  0.9316670071847852  1.0000
  O   O5        1.0  0.36858874488629584  0.9977255580551726  0.38583763368814067  1.0000
  O   O6        1.0  0.6314056622058714  0.0022773293849809  0.61416382894771  1.0000
  O   O7        1.0  0.9587155429388121  0.07420685152490589  0.5499915466654882  1.0000
  O   O8        1.0  0.041272689196901594  0.925796824122308  0.4500063290564569  1.0000
