data_image0
_chemical_formula_structural       Mn6H180C156N48O24
_chemical_formula_sum              "Mn6 H180 C156 N48 O24"
_cell_length_a       19.979139253536548
_cell_length_b       19.97912660670723
_cell_length_c       20.239569610485532
_cell_angle_alpha    60.42449162440009
_cell_angle_beta     60.424475183606965
_cell_angle_gamma    59.9979645757606

_space_group_name_H-M_alt    "P 1"
_space_group_IT_number       1

loop_
  _space_group_symop_operation_xyz
  'x, y, z'

loop_
  _atom_site_type_symbol
  _atom_site_label
  _atom_site_symmetry_multiplicity
  _atom_site_fract_x
  _atom_site_fract_y
  _atom_site_fract_z
  _atom_site_occupancy
  Mn  Mn1       1.0  0.7500104118366338  0.2712254558851653  0.7499381950385169  1.0000
  Mn  Mn2       1.0  0.2712501994652924  0.22875284318211436  0.7500004881082987  1.0000
  Mn  Mn3       1.0  0.22876838984566922  0.7499930078482963  0.7500580733452862  1.0000
  Mn  Mn4       1.0  0.25000265613942213  0.7287624710452788  0.2500616759825718  1.0000
  Mn  Mn5       1.0  0.7287371854621938  0.7712633640051294  0.25000504486727226  1.0000
  Mn  Mn6       1.0  0.7712226710945346  0.2500104735049786  0.24994491640683938  1.0000
  H   H1        1.0  0.8486698473652651  0.09376944231825488  0.7673416220599307  1.0000
  H   H2        1.0  0.0937476590873132  0.29013260497305987  0.7674045828996869  1.0000
  H   H3        1.0  0.290138527179046  0.8486915372117924  0.7675032617684392  1.0000
  H   H4        1.0  0.20986706837783228  0.4062530572201909  0.7325952602776199  1.0000
  H   H5        1.0  0.4062289676260065  0.6513313231400344  0.7326593792435007  1.0000
  H   H6        1.0  0.6513087586443758  0.2098604475565651  0.7324969887929028  1.0000
  H   H7        1.0  0.1513316125065742  0.9062281995262963  0.2326581758166526  1.0000
  H   H8        1.0  0.9062513562532429  0.7098681690761027  0.23259537669543542  1.0000
  H   H9        1.0  0.7098611029183103  0.151309605515614  0.23249572841614013  1.0000
  H   H10       1.0  0.7901325714613775  0.5937480952476978  0.2674012500444362  1.0000
  H   H11       1.0  0.5937682064738822  0.34866892195666577  0.267342714109965  1.0000
  H   H12       1.0  0.34869208992903106  0.7901396993324568  0.26750288196291194  1.0000
  H   H13       1.0  0.6397402269432036  0.40305521507667635  0.8244261389463075  1.0000
  H   H14       1.0  0.4029460426611563  0.13271537825069393  0.8246051094038478  1.0000
  H   H15       1.0  0.13276572424737756  0.6397194814612134  0.8245495977551585  1.0000
  H   H16       1.0  0.36728432595664623  0.0970520217905957  0.6753963641493355  1.0000
  H   H17       1.0  0.0969446825312303  0.8602603410440962  0.6755730972207132  1.0000
  H   H18       1.0  0.8602810602176022  0.36723614286322703  0.6754476393288941  1.0000
  H   H19       1.0  0.36026001640095734  0.5969434245543541  0.17557228238653963  1.0000
  H   H20       1.0  0.5970535883032253  0.8672851912906483  0.17539366330898792  1.0000
  H   H21       1.0  0.8672363456174921  0.36027909835144817  0.17545044012764066  1.0000
  H   H22       1.0  0.6327146792134073  0.902946445877639  0.32460619736634294  1.0000
  H   H23       1.0  0.9030567846957211  0.13974017841935896  0.3244248121795577  1.0000
  H   H24       1.0  0.1397191867992404  0.6327665188107403  0.324549824443622  1.0000
  H   H25       1.0  0.6225974699712609  0.22551740416918162  0.952467497570339  1.0000
  H   H26       1.0  0.2254349290865534  0.1993175245167435  0.9525595711018726  1.0000
  H   H27       1.0  0.19929211315503892  0.6227068834738815  0.9526563803955527  1.0000
  H   H28       1.0  0.3006816960893914  0.27456510611556684  0.547440757861665  1.0000
  H   H29       1.0  0.27448238700281985  0.8774031099141195  0.5475317394263117  1.0000
  H   H30       1.0  0.8772938372714307  0.3007077216845174  0.5473432112945743  1.0000
  H   H31       1.0  0.37740216207446753  0.7744837405063194  0.047530996641739695  1.0000
  H   H32       1.0  0.7745634764753007  0.8006834598845388  0.04744008745801404  1.0000
  H   H33       1.0  0.8007081273737242  0.37729232739512497  0.04734275438154623  1.0000
  H   H34       1.0  0.6993167103394882  0.725435305099644  0.452558683226478  1.0000
  H   H35       1.0  0.7255178548216106  0.12259782440926868  0.4524670558210033  1.0000
  H   H36       1.0  0.12270701498439962  0.6992912807804643  0.45265572854524566  1.0000
  H   H37       1.0  0.5890977994464491  0.13957567352602498  0.01788775795985499  1.0000
  H   H38       1.0  0.13951940598579432  0.25332827820302123  0.017980840052239044  1.0000
  H   H39       1.0  0.253321801683171  0.5891639764829009  0.01808136240628504  1.0000
  H   H40       1.0  0.246670407317815  0.3604821368985541  0.4820195043762112  1.0000
  H   H41       1.0  0.3604234842851922  0.9109019230693678  0.4821116431107412  1.0000
  H   H42       1.0  0.9108369702640003  0.2466774185276036  0.4819188390331848  1.0000
  H   H43       1.0  0.4109006069824304  0.8604247376891863  0.9821116831282877  1.0000
  H   H44       1.0  0.8604808347572828  0.746672080986208  0.9820182336958329  1.0000
  H   H45       1.0  0.7466784403555805  0.4108381061607104  0.9819173718120097  1.0000
  H   H46       1.0  0.7533304438566688  0.6395162904322688  0.5179797139643725  1.0000
  H   H47       1.0  0.6395779768823218  0.08909744222957273  0.5178878152360583  1.0000
  H   H48       1.0  0.0891651015492414  0.7533211632331601  0.5180807028771071  1.0000
  H   H49       1.0  0.5685757021013059  0.20085381813673564  0.9248625006358607  1.0000
  H   H50       1.0  0.2008003389599295  0.3055967903551249  0.9249526554700724  1.0000
  H   H51       1.0  0.30557371399722644  0.5686130594433647  0.9250742786147728  1.0000
  H   H52       1.0  0.19440248667795856  0.29919961094223874  0.5750467358872129  1.0000
  H   H53       1.0  0.2991458152658025  0.9314238397710425  0.5751368284376783  1.0000
  H   H54       1.0  0.9313882422308166  0.19442561520550344  0.5749257259160813  1.0000
  H   H55       1.0  0.43142454167149674  0.7991471181347476  0.07513579863894662  1.0000
  H   H56       1.0  0.79919928789338  0.6944026269697968  0.0750471702167986  1.0000
  H   H57       1.0  0.6944265239304599  0.43138787098383335  0.07492550857755033  1.0000
  H   H58       1.0  0.8055977508210785  0.7007990228445069  0.4249531733631499  1.0000
  H   H59       1.0  0.7008544235289091  0.06857651747009189  0.42486274128290086  1.0000
  H   H60       1.0  0.06861383153079709  0.8055729685033554  0.4250733200217099  1.0000
  H   H61       1.0  0.8327581607559935  0.13555794322232362  0.9019245232847907  1.0000
  H   H62       1.0  0.135498577283002  0.12965247280263267  0.9020632371844924  1.0000
  H   H63       1.0  0.1297383385190045  0.8328138914475574  0.9018675688911982  1.0000
  H   H64       1.0  0.37034544717606366  0.3645032775057474  0.5979368466221544  1.0000
  H   H65       1.0  0.36444063126791787  0.6672414445731648  0.5980761829420729  1.0000
  H   H66       1.0  0.6671857814692073  0.37026040111457065  0.5981331368088122  1.0000
  H   H67       1.0  0.1672420739276461  0.8644412618023908  0.09807609940982324  1.0000
  H   H68       1.0  0.8645016606446773  0.8703484576245654  0.09793655000782332  1.0000
  H   H69       1.0  0.8702612874672795  0.16718609906342868  0.09813247426741616  1.0000
  H   H70       1.0  0.6296554003160039  0.6354962942491157  0.40206330263442425  1.0000
  H   H71       1.0  0.6355602190395471  0.3327575559437221  0.4019232528702546  1.0000
  H   H72       1.0  0.33281506191179483  0.6297380184238719  0.4018680654217944  1.0000
  H   H73       1.0  0.8383788447107818  0.14900813440203814  0.9796385867672868  1.0000
  H   H74       1.0  0.14892986048058526  0.0328785731108141  0.9797436085425559  1.0000
  H   H75       1.0  0.032962875381343806  0.8385457572161102  0.9795772434457601  1.0000
  H   H76       1.0  0.46712218335577654  0.3510678277453466  0.5202575813894014  1.0000
  H   H77       1.0  0.3509909732243485  0.6616201187955394  0.5203626682698614  1.0000
  H   H78       1.0  0.6614545012581985  0.46703596639262923  0.5204231585425064  1.0000
  H   H79       1.0  0.16162016651870909  0.8509914874307115  0.020362425801856345  1.0000
  H   H80       1.0  0.8510709880928218  0.9671215737782078  0.020256262213258974  1.0000
  H   H81       1.0  0.9670361429889381  0.16145559391530634  0.020421941676090686  1.0000
  H   H82       1.0  0.5328786617592698  0.6489294454209684  0.47974318589771753  1.0000
  H   H83       1.0  0.6490086549246283  0.33838102198377124  0.4796368178872186  1.0000
  H   H84       1.0  0.33854573147706896  0.5329632366839833  0.47957796012460796  1.0000
  H   H85       1.0  0.8934517776598623  0.19060615380357862  0.8775185514589553  1.0000
  H   H86       1.0  0.1904928681187101  0.038335524070213005  0.8776312556265607  1.0000
  H   H87       1.0  0.038424626337452084  0.8935450579995178  0.8774528787098107  1.0000
  H   H88       1.0  0.46166629897741984  0.3095076424875175  0.6223680445644036  1.0000
  H   H89       1.0  0.3093935998923029  0.6065471943752101  0.6224823834237442  1.0000
  H   H90       1.0  0.6064546750554881  0.4615748587162617  0.6225479742585024  1.0000
  H   H91       1.0  0.1065484570237771  0.8093930512211357  0.12248207123565188  1.0000
  H   H92       1.0  0.8095073659122247  0.9616654024607881  0.12236952351076984  1.0000
  H   H93       1.0  0.961575614405632  0.10645530118971183  0.12254619503826085  1.0000
  H   H94       1.0  0.5383345485146479  0.6904919292673455  0.37763210469217523  1.0000
  H   H95       1.0  0.6906066389024019  0.3934531628659244  0.37751718629683495  1.0000
  H   H96       1.0  0.3935449448713584  0.5384239776302167  0.3774536178466479  1.0000
  H   H97       1.0  0.981774184510435  0.07126310403294402  0.7200097859595899  1.0000
  H   H98       1.0  0.0712836153701133  0.22702460114725648  0.7199592727131475  1.0000
  H   H99       1.0  0.2270273733748951  0.9817945218255061  0.7199267687324564  1.0000
  H   H100      1.0  0.2729746826397417  0.4287180038895714  0.780040310961354  1.0000
  H   H101      1.0  0.42873813481229206  0.518227053717517  0.7799887836220093  1.0000
  H   H102      1.0  0.5182062368970222  0.2729744838162276  0.7800709316463283  1.0000
  H   H103      1.0  0.018227272760334798  0.928736257369799  0.27999066433222447  1.0000
  H   H104      1.0  0.9287166206091939  0.7729763273318468  0.2800410104516826  1.0000
  H   H105      1.0  0.7729740921180053  0.018207144010077083  0.2800715756112948  1.0000
  H   H106      1.0  0.7270237281145313  0.5712847078622828  0.2199580161237406  1.0000
  H   H107      1.0  0.5712633272222476  0.48177173839535936  0.22001045725305352  1.0000
  H   H108      1.0  0.4817927812589318  0.7270257189949658  0.21992831450454287  1.0000
  H   H109      1.0  0.8452047925354904  0.8969080233084908  0.8720708699035309  1.0000
  H   H110      1.0  0.8968462673340623  0.3857253334588718  0.8720604331773246  1.0000
  H   H111      1.0  0.3858073141061453  0.8453398478214779  0.8721091739868996  1.0000
  H   H112      1.0  0.1142772786369903  0.6031526259491002  0.6279402000290233  1.0000
  H   H113      1.0  0.6030909886968558  0.6547974749073333  0.6279293010460875  1.0000
  H   H114      1.0  0.6546605236001496  0.11419324559086164  0.6278902462998347  1.0000
  H   H115      1.0  0.1547960569049422  0.1030915503944669  0.12792878338053987  1.0000
  H   H116      1.0  0.10315213541239389  0.6142762221803723  0.12793993882680615  1.0000
  H   H117      1.0  0.6141923149098645  0.15466071977176907  0.1278900946984436  1.0000
  H   H118      1.0  0.8857235703748074  0.3968446511134046  0.3720595753130882  1.0000
  H   H119      1.0  0.3969067979971398  0.34520198859928547  0.3720723798983557  1.0000
  H   H120      1.0  0.3453397190913066  0.885807115546463  0.3721083314757367  1.0000
  H   H121      1.0  0.883815811437941  0.8953493189778781  0.9348101743329168  1.0000
  H   H122      1.0  0.8953263383610306  0.2859270305872812  0.9347976168201837  1.0000
  H   H123      1.0  0.28600464026433775  0.8839111933305902  0.9348390888929216  1.0000
  H   H124      1.0  0.2140735957129394  0.6046730160866358  0.5652027376154579  1.0000
  H   H125      1.0  0.6046500368645553  0.6161857827749698  0.5651901445855642  1.0000
  H   H126      1.0  0.6160894506401035  0.2139959535073217  0.5651597278085986  1.0000
  H   H127      1.0  0.11618442519407782  0.1046498879949311  0.06518995238918275  1.0000
  H   H128      1.0  0.1046732867582278  0.714073533109769  0.06520264381016704  1.0000
  H   H129      1.0  0.7139943778916162  0.11608900948061064  0.06516015725794944  1.0000
  H   H130      1.0  0.7859260320073957  0.39532582805222194  0.43479687059966915  1.0000
  H   H131      1.0  0.3953501939223401  0.3838134183535545  0.4348114700540505  1.0000
  H   H132      1.0  0.3839120157198224  0.7860051391421975  0.4348383990634159  1.0000
  H   H133      1.0  0.9238473722204432  0.9386358046795208  0.8283846817645181  1.0000
  H   H134      1.0  0.9386660328532912  0.30901142123784797  0.828380519105039  1.0000
  H   H135      1.0  0.30907418383787894  0.9238964598552  0.8284392349086503  1.0000
  H   H136      1.0  0.19098939433937548  0.5613334169417286  0.671620186187539  1.0000
  H   H137      1.0  0.5613644519708599  0.576153934096652  0.6716148477376436  1.0000
  H   H138      1.0  0.5761045847376423  0.19092608352576687  0.6715600447436642  1.0000
  H   H139      1.0  0.0761528654929222  0.06136397742744748  0.17161516645681732  1.0000
  H   H140      1.0  0.061333593347320886  0.690989717593368  0.1716194630245552  1.0000
  H   H141      1.0  0.6909260599349238  0.07610447641628337  0.17155906436615703  1.0000
  H   H142      1.0  0.8090102342479852  0.4386648540110656  0.32837920455584413  1.0000
  H   H143      1.0  0.4386357768676632  0.4238452650837772  0.32838726287447856  1.0000
  H   H144      1.0  0.423896880540937  0.8090744339895936  0.3284383606291071  1.0000
  H   H145      1.0  0.6043320726778986  0.48544587862257754  0.9491964384086558  1.0000
  H   H146      1.0  0.4853908586495804  0.9609011109949678  0.9493596426191787  1.0000
  H   H147      1.0  0.9610301271408018  0.6043606314993965  0.9492588698065488  1.0000
  H   H148      1.0  0.5391019409528254  0.014606652502443836  0.5506399600094268  1.0000
  H   H149      1.0  0.014552886761727302  0.8956659901330396  0.5508055769411156  1.0000
  H   H150      1.0  0.8956393500997422  0.5389695440106195  0.5507404908792211  1.0000
  H   H151      1.0  0.3956657168314876  0.5145530136460722  0.05080452909154324  1.0000
  H   H152      1.0  0.5146087675510245  0.039100027836248295  0.05064033951041581  1.0000
  H   H153      1.0  0.038971333159686594  0.3956393069856077  0.05074080601199434  1.0000
  H   H154      1.0  0.46089952129602807  0.9853932879306557  0.44935921983661575  1.0000
  H   H155      1.0  0.9854461227337125  0.10433477807183782  0.44919587057152194  1.0000
  H   H156      1.0  0.10436027804923502  0.46103159676869143  0.4492589952778658  1.0000
  H   H157      1.0  0.5666696708352178  0.40922994306836813  0.03485168275302896  1.0000
  H   H158      1.0  0.4091332728694183  0.989150355608075  0.03500487967740894  1.0000
  H   H159      1.0  0.9892461862715222  0.5666452808870587  0.034950383402637876  1.0000
  H   H160      1.0  0.5108500408361536  0.09086642402581185  0.46499591972983023  1.0000
  H   H161      1.0  0.09076814491164953  0.9333285601416252  0.46514953208415455  1.0000
  H   H162      1.0  0.9333561651603544  0.5107535997854954  0.46504814781678766  1.0000
  H   H163      1.0  0.4333287312682685  0.5907681676102001  0.9651488723381617  1.0000
  H   H164      1.0  0.5908669639769215  0.010849999684964449  0.9649951860156704  1.0000
  H   H165      1.0  0.0107552729476126  0.4333540824637794  0.9650495709166619  1.0000
  H   H166      1.0  0.48915019817287225  0.9091350815355453  0.5350035889617288  1.0000
  H   H167      1.0  0.9092302558864346  0.066672993549524  0.5348513358924765  1.0000
  H   H168      1.0  0.06664469033952261  0.4892471280819704  0.5349499565207552  1.0000
  H   H169      1.0  0.5356950276263391  0.45412627635817415  0.9486823491092194  1.0000
  H   H170      1.0  0.4540353234222606  0.06139868059306513  0.9488358494393337  1.0000
  H   H171      1.0  0.06150446201593239  0.5357324418026793  0.9487459641353482  1.0000
  H   H172      1.0  0.438602933267731  0.04596391730323288  0.5511626160949133  1.0000
  H   H173      1.0  0.0458730980763917  0.9643020572957327  0.5513188667695699  1.0000
  H   H174      1.0  0.9642677105612947  0.43849463063320815  0.5512532870243947  1.0000
  H   H175      1.0  0.4643021510230056  0.5458722511284293  0.05131859585650741  1.0000
  H   H176      1.0  0.5459649153724441  0.9386016766480691  0.05116372028124513  1.0000
  H   H177      1.0  0.9384963865574746  0.4642677050863425  0.05125390662046664  1.0000
  H   H178      1.0  0.5613985309294947  0.9540360250779683  0.4488360677786216  1.0000
  H   H179      1.0  0.9541277485486432  0.03569808764519406  0.4486814999587522  1.0000
  H   H180      1.0  0.03573130672763369  0.5615061453640493  0.44874617659822036  1.0000
  C   C1        1.0  0.9371299969535016  0.22540560997997955  0.7196998436392265  1.0000
  C   C2        1.0  0.2254193848169166  0.11781167172043891  0.7196522166034286  1.0000
  C   C3        1.0  0.1177870347493837  0.9371299429301554  0.7197290156250066  1.0000
  C   C4        1.0  0.3821872142230376  0.2745822135999062  0.7803499662203065  1.0000
  C   C5        1.0  0.2745946163419575  0.5628727619405895  0.7802995241231654  1.0000
  C   C6        1.0  0.5628713100879423  0.38221663608315043  0.780267093237242  1.0000
  C   C7        1.0  0.0628763482887535  0.7745920783463517  0.28030053507194447  1.0000
  C   C8        1.0  0.7745814499035645  0.8821873132116806  0.28035118698893763  1.0000
  C   C9        1.0  0.8822144244697583  0.06286942042068226  0.2802709386943008  1.0000
  C   C10       1.0  0.6178142402323346  0.725417719040813  0.21965119751575182  1.0000
  C   C11       1.0  0.7254043981315732  0.43712858529463716  0.2197006529437004  1.0000
  C   C12       1.0  0.43713138059315776  0.6177834665722701  0.21973042628848552  1.0000
  C   C13       1.0  0.6926746266554674  0.11966172193189815  0.9143861580797646  1.0000
  C   C14       1.0  0.1195886834264641  0.27321765845879753  0.9144659583899042  1.0000
  C   C15       1.0  0.2732174889208494  0.6927053508762171  0.9145670083620844  1.0000
  C   C16       1.0  0.2267792861219107  0.3804117754908134  0.5855358102116313  1.0000
  C   C17       1.0  0.38033592288018525  0.8073264876487158  0.5856143028929707  1.0000
  C   C18       1.0  0.8072951634080708  0.22678173599918233  0.5854334708980744  1.0000
  C   C19       1.0  0.3073243893377935  0.8803373306109776  0.08561364507262675  1.0000
  C   C20       1.0  0.8804097121792084  0.7267821678817722  0.08553624106152576  1.0000
  C   C21       1.0  0.726780906256174  0.3072921788239  0.08543531314738573  1.0000
  C   C22       1.0  0.7732197331153898  0.6195890024545463  0.41446315743847606  1.0000
  C   C23       1.0  0.6196630844525614  0.19267313028783653  0.4143877016211874  1.0000
  C   C24       1.0  0.19270568495101506  0.7732172625696092  0.4145664608867535  1.0000
  C   C25       1.0  0.7641656676446117  0.2559585102287515  0.9128534813379331  1.0000
  C   C26       1.0  0.2559109338804433  0.06688658501914795  0.9129589255887893  1.0000
  C   C27       1.0  0.0669469595781891  0.7642419097742774  0.9129080713242103  1.0000
  C   C28       1.0  0.4331141679691227  0.24408838944258796  0.5870419494154504  1.0000
  C   C29       1.0  0.2440423299422818  0.7358326065486408  0.587146826059218  1.0000
  C   C30       1.0  0.7357581654268229  0.43305307779136376  0.5870913170031428  1.0000
  C   C31       1.0  0.2358333466145979  0.7440416886862523  0.08714675675794573  1.0000
  C   C32       1.0  0.7440893029658966  0.9331137702738913  0.08704114010429745  1.0000
  C   C33       1.0  0.9330532731570784  0.2357572933023421  0.08709304734290388  1.0000
  C   C34       1.0  0.5668860636847981  0.7559102384998722  0.4129594477524279  1.0000
  C   C35       1.0  0.755958514734388  0.2641675364441837  0.41285403664161185  1.0000
  C   C36       1.0  0.2642414545000236  0.566945758555107  0.41291027510199996  1.0000
  C   C37       1.0  0.0172372120476751  0.15630849279450837  0.7215907942315171  1.0000
  C   C38       1.0  0.15631793922366197  0.10492717529087509  0.7215412372828994  1.0000
  C   C39       1.0  0.1049186825228574  0.01724356776148279  0.7215904074717442  1.0000
  C   C40       1.0  0.39507329881013925  0.34368405625696147  0.7784595076633282  1.0000
  C   C41       1.0  0.3436914139178455  0.48276619894554057  0.7784071236201129  1.0000
  C   C42       1.0  0.4827556427241007  0.3950836445942015  0.7784073191523361  1.0000
  C   C43       1.0  0.9827666871533012  0.8436894559618224  0.27841014675698966  1.0000
  C   C44       1.0  0.8436847386858587  0.8950723405418088  0.278459536578623  1.0000
  C   C45       1.0  0.8950821636735357  0.9827542805389909  0.2784100813146108  1.0000
  C   C46       1.0  0.6049269380362006  0.6563162990360709  0.2215405580297585  1.0000
  C   C47       1.0  0.6563094467744434  0.517236256272504  0.22158964924263086  1.0000
  C   C48       1.0  0.5172464351485784  0.6049160913310772  0.22159067381142727  1.0000
  C   C49       1.0  0.803896154598398  0.01286606275118633  0.8845256126070283  1.0000
  C   C50       1.0  0.012825407664941198  0.2986350640942915  0.8845731292491691  1.0000
  C   C51       1.0  0.29872335257413596  0.8039161554651456  0.8846371357329519  1.0000
  C   C52       1.0  0.20136343789498307  0.48717483224676533  0.6154290176149715  1.0000
  C   C53       1.0  0.48713299662676224  0.6961051467110052  0.615474507391042  1.0000
  C   C54       1.0  0.6960854578458964  0.2012772241177103  0.615363171139201  1.0000
  C   C55       1.0  0.19610346943951376  0.9871339258117047  0.11547492652408663  1.0000
  C   C56       1.0  0.9871729898891036  0.7013647641943731  0.11542857422975292  1.0000
  C   C57       1.0  0.7012744321714878  0.19608330609337793  0.11536504118400608  1.0000
  C   C58       1.0  0.79863435485845  0.5128257854243684  0.38457111438294334  1.0000
  C   C59       1.0  0.5128660087576123  0.3038944692774521  0.3845279930956237  1.0000
  C   C60       1.0  0.3039160037502596  0.7987244378216829  0.38463616514956545  1.0000
  C   C61       1.0  0.6138781806369452  0.17423000688486204  0.9547060580092009  1.0000
  C   C62       1.0  0.1741625312047077  0.2570947386823264  0.954799719680672  1.0000
  C   C63       1.0  0.2570793964115978  0.6139398768303224  0.9548962873835624  1.0000
  C   C64       1.0  0.2429032457488133  0.3258387421340245  0.5452011329259392  1.0000
  C   C65       1.0  0.32576980561398017  0.8861222353288553  0.5452922478214787  1.0000
  C   C66       1.0  0.8860607552764391  0.24292003060840284  0.5451040197321503  1.0000
  C   C67       1.0  0.3861214503274297  0.8257705626564796  0.045292714703635016  1.0000
  C   C68       1.0  0.8258370978112949  0.7429058289109208  0.04519954900467142  1.0000
  C   C69       1.0  0.7429202375825028  0.3860612697932808  0.04510171085600938  1.0000
  C   C70       1.0  0.7570976084553963  0.6741602622790593  0.45479731094137316  1.0000
  C   C71       1.0  0.6742304351290968  0.11387812386037413  0.4547068259265926  1.0000
  C   C72       1.0  0.11394131848516759  0.7570785531004631  0.4548950262056408  1.0000
  C   C73       1.0  0.7321770693443239  0.034511389424793  0.9471050469006813  1.0000
  C   C74       1.0  0.0344337469723541  0.2861806008511891  0.9471561975773215  1.0000
  C   C75       1.0  0.2862507385998896  0.7321787988717218  0.9472327042691829  1.0000
  C   C76       1.0  0.213815463039019  0.46556715485883865  0.5528463041470815  1.0000
  C   C77       1.0  0.4654885081841016  0.7678245297832615  0.5528945501278386  1.0000
  C   C78       1.0  0.7678197357530294  0.21374977136236598  0.5527676240253213  1.0000
  C   C79       1.0  0.2678243970156018  0.9654897032247259  0.05289307997132655  1.0000
  C   C80       1.0  0.9655652631757902  0.7138184458473943  0.052845093492592816  1.0000
  C   C81       1.0  0.7137482769549877  0.26782312349767073  0.052767194296911984  1.0000
  C   C82       1.0  0.7861823305814326  0.5344328896262237  0.44715361037908974  1.0000
  C   C83       1.0  0.5345104965475683  0.23217680771148255  0.44710810680155094  1.0000
  C   C84       1.0  0.2321792793732058  0.7862498543665665  0.44723239659881386  1.0000
  C   C85       1.0  0.6567661304562479  0.36684733993785557  0.9365093715031421  1.0000
  C   C86       1.0  0.3667767243744109  0.039748866203986176  0.9366557191409867  1.0000
  C   C87       1.0  0.0398372178144371  0.6567879596554319  0.9366257198515984  1.0000
  C   C88       1.0  0.46025187681325963  0.13322048304380013  0.563345650668005  1.0000
  C   C89       1.0  0.13315444269398571  0.8432307682629767  0.5634902180585543  1.0000
  C   C90       1.0  0.843212932770456  0.4601622691635966  0.5633730229458677  1.0000
  C   C91       1.0  0.3432304420870764  0.6331554199437904  0.06349031486702475  1.0000
  C   C92       1.0  0.6332247415568729  0.9602499298050803  0.06334252978906121  1.0000
  C   C93       1.0  0.9601624021124094  0.34321087669103906  0.06337587225355155  1.0000
  C   C94       1.0  0.5397459010058938  0.8667783975362724  0.4366582926672253  1.0000
  C   C95       1.0  0.8668458019458426  0.15676959482244246  0.43650786374450956  1.0000
  C   C96       1.0  0.15678669927527267  0.5398388755119115  0.43662547126621126  1.0000
  C   C97       1.0  0.7123652607013468  0.2956771809791405  0.9716854830020906  1.0000
  C   C98       1.0  0.29563740384442366  0.020125766276969218  0.9717936439413534  1.0000
  C   C99       1.0  0.020205377234184096  0.7124337972357184  0.9717630922884551  1.0000
  C   C100      1.0  0.4798754082040872  0.2043607783102956  0.5282090369785593  1.0000
  C   C101      1.0  0.2043242988334768  0.787633437643926  0.5283128535647919  1.0000
  C   C102      1.0  0.7875665229718294  0.47979309370096235  0.5282364392148509  1.0000
  C   C103      1.0  0.28763498112307667  0.7043237533442479  0.02831331224522408  1.0000
  C   C104      1.0  0.7043634475443808  0.9798738093740837  0.02820551337021022  1.0000
  C   C105      1.0  0.9797936300985626  0.28756582070083436  0.02823891222570279  1.0000
  C   C106      1.0  0.5201235941505687  0.7956382605959078  0.4717942379813706  1.0000
  C   C107      1.0  0.7956759388798815  0.21236634446304234  0.4716869946565509  1.0000
  C   C108      1.0  0.21243126870025716  0.5202069488360123  0.47176397128382763  1.0000
  C   C109      1.0  0.8357912259847282  0.1785859914805811  0.9182522683068086  1.0000
  C   C110      1.0  0.1785285878693088  0.06726442432263009  0.9183486033109958  1.0000
  C   C111      1.0  0.0673314008533978  0.8358907288571089  0.9182203717386768  1.0000
  C   C112      1.0  0.43273651352894393  0.32147058898407005  0.5816502985293752  1.0000
  C   C113      1.0  0.32141468247009186  0.6642077536468989  0.5817477367961885  1.0000
  C   C114      1.0  0.6641095477562757  0.4326678127552909  0.581779831408923  1.0000
  C   C115      1.0  0.16420778524475574  0.8214136303521684  0.08174874426234159  1.0000
  C   C116      1.0  0.8214722596227516  0.9327351474322327  0.08165154594558303  1.0000
  C   C117      1.0  0.9326682292439513  0.1641104138702972  0.08177861844590957  1.0000
  C   C118      1.0  0.5672643328817699  0.6785284076366338  0.41835012922796705  1.0000
  C   C119      1.0  0.6785880034472385  0.33579291829839514  0.418250992146298  1.0000
  C   C120      1.0  0.33588945849511725  0.5673312300471025  0.41822245160599875  1.0000
  C   C121      1.0  0.0299028435052549  0.0808659339310651  0.7215777355882338  1.0000
  C   C122      1.0  0.080859111676105  0.16773157243757447  0.7215446197284905  1.0000
  C   C123      1.0  0.167725013805601  0.029922418008560193  0.7215221898142943  1.0000
  C   C124      1.0  0.3322695713600439  0.4191410136159135  0.7784567441210302  1.0000
  C   C125      1.0  0.419135624746268  0.47009842184535683  0.7784203962266645  1.0000
  C   C126      1.0  0.4700787977643158  0.3322760657193483  0.7784771329304334  1.0000
  C   C127      1.0  0.9700973916070268  0.919135567734102  0.27842276504833313  1.0000
  C   C128      1.0  0.9191411195394323  0.8322699253314029  0.27845687285309156  1.0000
  C   C129      1.0  0.8322758349821271  0.9700788772006843  0.27847761991250075  1.0000
  C   C130      1.0  0.6677294467959101  0.5808591891952802  0.2215425020298411  1.0000
  C   C131      1.0  0.580865228590909  0.5299011557537909  0.22157826511239873  1.0000
  C   C132      1.0  0.5299214380006702  0.667723714439532  0.22152321126341  1.0000
  C   C133      1.0  0.8678616572971052  0.9321327940959347  0.8794550714518086  1.0000
  C   C134      1.0  0.9321221529256076  0.3204454328084623  0.879462618644652  1.0000
  C   C135      1.0  0.32053433813108967  0.8679262591679447  0.8794977061507366  1.0000
  C   C136      1.0  0.1795554767163523  0.567878305040132  0.62053805308161  1.0000
  C   C137      1.0  0.5678652435639505  0.6321396248655161  0.6205455560649824  1.0000
  C   C138      1.0  0.6320717090021617  0.17946692148728252  0.620502067888239  1.0000
  C   C139      1.0  0.13213857825356004  0.06786583774271548  0.12054533377105503  1.0000
  C   C140      1.0  0.06787747435635079  0.6795562811569127  0.12053708498417853  1.0000
  C   C141      1.0  0.6794652856925011  0.13207258107472336  0.12050289400939833  1.0000
  C   C142      1.0  0.8204441520853294  0.43212111423288496  0.37946127663275303  1.0000
  C   C143      1.0  0.43213376593148917  0.36786114333936154  0.3794558914476553  1.0000
  C   C144      1.0  0.3679279219622202  0.8205336480540594  0.3794967048246035  1.0000
  C   C145      1.0  0.5871222943760869  0.4324195454741327  0.968869244609664  1.0000
  C   C146      1.0  0.4323555341651542  0.011466545203987306  0.969021939754306  1.0000
  C   C147      1.0  0.0115698205237891  0.5871401417220596  0.9689675812358088  1.0000
  C   C148      1.0  0.4885351990515615  0.06764308581998078  0.5309782371427972  1.0000
  C   C149      1.0  0.06757834789458167  0.9128754182490721  0.531132857356539  1.0000
  C   C150      1.0  0.9128595131926003  0.48843070411777495  0.5310297643119101  1.0000
  C   C151      1.0  0.4128761096757714  0.5675785671525303  0.031130814509019354  1.0000
  C   C152      1.0  0.5676434811754021  0.9885342288451822  0.030978019840809168  1.0000
  C   C153      1.0  0.9884322543191716  0.4128590171209651  0.03103118620121844  1.0000
  C   C154      1.0  0.5114644260676968  0.9323574778770763  0.46902202348755384  1.0000
  C   C155      1.0  0.9324224967820882  0.08712472474375935  0.4688680053442837  1.0000
  C   C156      1.0  0.0871388943176257  0.5115702822316025  0.4689693982754688  1.0000
  N   N1        1.0  0.7375369203426914  0.14831081483455927  0.8374622679691157  1.0000
  N   N2        1.0  0.1482733625920716  0.27658874568995623  0.837552780489368  1.0000
  N   N3        1.0  0.2765697961046953  0.737578426216075  0.837645722502856  1.0000
  N   N4        1.0  0.22340893991125196  0.35172814621491005  0.6624476213463879  1.0000
  N   N5        1.0  0.35168572674373866  0.7624631346667526  0.6625372573214535  1.0000
  N   N6        1.0  0.7624237664531462  0.22342779546821845  0.6623547466023395  1.0000
  N   N7        1.0  0.26246392975044597  0.8516870373621043  0.16253722887223185  1.0000
  N   N8        1.0  0.8517250481622014  0.7234139660618981  0.16244554659571958  1.0000
  N   N9        1.0  0.723429223346926  0.26242350004950765  0.1623531841182314  1.0000
  N   N10       1.0  0.7765888608499906  0.6482736275688338  0.33755046573249103  1.0000
  N   N11       1.0  0.6483114510385803  0.23753596600591442  0.33746390511601726  1.0000
  N   N12       1.0  0.23757952275480673  0.776569215319995  0.3376459543799513  1.0000
  N   N13       1.0  0.7404711759861727  0.2999181287933724  0.8470705805453489  1.0000
  N   N14       1.0  0.29984916228720243  0.11243784736537064  0.8472132692564005  1.0000
  N   N15       1.0  0.11250024018113441  0.7404827678392464  0.8471672929142287  1.0000
  N   N16       1.0  0.3875635879774606  0.20014880295561707  0.6527879327955545  1.0000
  N   N17       1.0  0.20008104260219986  0.7595269627632533  0.652928641447126  1.0000
  N   N18       1.0  0.7595188430430114  0.3874981658800182  0.6528316281557736  1.0000
  N   N19       1.0  0.2595284458890461  0.7000807095011935  0.15293051558729337  1.0000
  N   N20       1.0  0.7001504669431281  0.8875638685481065  0.15278593839992297  1.0000
  N   N21       1.0  0.8874975536536382  0.25951842496604627  0.15283256058292263  1.0000
  N   N22       1.0  0.6124335852554026  0.7998520153271403  0.3472143780296476  1.0000
  N   N23       1.0  0.7999210391672236  0.24047277705821546  0.3470683595716225  1.0000
  N   N24       1.0  0.24048200315338863  0.6124996824204557  0.34716886063058183  1.0000
  N   N25       1.0  0.8036130971898671  0.08284447720119902  0.8210369662331659  1.0000
  N   N26       1.0  0.08281677275174099  0.29238625553259817  0.8211126964797515  1.0000
  N   N27       1.0  0.2924133378616673  0.8036452444561989  0.8212003220502951  1.0000
  N   N28       1.0  0.2076126012574733  0.41718264787984066  0.6788886653767465  1.0000
  N   N29       1.0  0.417154487963181  0.6963869007729357  0.678961872539567  1.0000
  N   N30       1.0  0.6963548103254524  0.20758568419979176  0.6788000089192677  1.0000
  N   N31       1.0  0.19638653053046803  0.917154366937659  0.178962641981954  1.0000
  N   N32       1.0  0.9171804095702852  0.7076162939969349  0.1788872909256513  1.0000
  N   N33       1.0  0.7075862892059632  0.19635532118894616  0.1787994426075558  1.0000
  N   N34       1.0  0.7923851973410763  0.582817975635585  0.32110997870365315  1.0000
  N   N35       1.0  0.5828426909004775  0.30361277503389056  0.3210390113971401  1.0000
  N   N36       1.0  0.30364726040643564  0.7924123224268128  0.3211998114917876  1.0000
  N   N37       1.0  0.6763265010422543  0.36721722012742203  0.8623287115366551  1.0000
  N   N38       1.0  0.3671524707532967  0.09402641514863318  0.8624756877064428  1.0000
  N   N39       1.0  0.0940989286970151  0.6763293817431162  0.8624354292484571  1.0000
  N   N40       1.0  0.4059751229898153  0.1328461633053877  0.6375246233405036  1.0000
  N   N41       1.0  0.1327803581916527  0.8236720463871805  0.6376735901190856  1.0000
  N   N42       1.0  0.8236714414373267  0.4059017063008665  0.6375617942578914  1.0000
  N   N43       1.0  0.3236731195372897  0.6327798947127621  0.13767272412577103  1.0000
  N   N44       1.0  0.6328459328601923  0.9059745673045471  0.13752446682594416  1.0000
  N   N45       1.0  0.905901917928027  0.32367076319781063  0.13756493747985835  1.0000
  N   N46       1.0  0.59402266694822  0.8671550256037152  0.36247622210165525  1.0000
  N   N47       1.0  0.8672204884333823  0.17632809855374626  0.36232677660922974  1.0000
  N   N48       1.0  0.17632819255676674  0.5940994403227292  0.3624362039816801  1.0000
  O   O1        1.0  0.8813518337013875  0.2101165983918846  0.7207864870866132  1.0000
  O   O2        1.0  0.21013822077343033  0.18775185863754026  0.7207918427719449  1.0000
  O   O3        1.0  0.1877531480622636  0.8813533422826081  0.7208291106374746  1.0000
  O   O4        1.0  0.3122459821234003  0.28986547659670236  0.7792098545725068  1.0000
  O   O5        1.0  0.2898819485527326  0.6186515041206916  0.7792139179678088  1.0000
  O   O6        1.0  0.618645909934024  0.3122505444522473  0.7791684137065785  1.0000
  O   O7        1.0  0.1186551195952603  0.7898768594874994  0.2792146542476104  1.0000
  O   O8        1.0  0.789863831341762  0.8122455553220362  0.27921271989242075  1.0000
  O   O9        1.0  0.8122489237509781  0.11864523947815539  0.27917043127281727  1.0000
  O   O10       1.0  0.6877511835302954  0.7101364822139046  0.2207943791136983  1.0000
  O   O11       1.0  0.7101182984641099  0.3813511575532756  0.22078354580470724  1.0000
  O   O12       1.0  0.3813573937698179  0.6877510732535442  0.2208285713521007  1.0000
  O   O13       1.0  0.930208556871534  0.29347882960740884  0.7166499181713135  1.0000
  O   O14       1.0  0.2935043481717088  0.05970296696219884  0.7165700863073924  1.0000
  O   O15       1.0  0.059653697616162994  0.9302134616875933  0.7167086458024625  1.0000
  O   O16       1.0  0.44029448383665226  0.2064963096531969  0.7834302449431191  1.0000
  O   O17       1.0  0.20652192176449088  0.569794688238197  0.783346511348654  1.0000
  O   O18       1.0  0.5697858071036065  0.4403523519113435  0.7832843221932535  1.0000
  O   O19       1.0  0.0697947375288308  0.7065199085313835  0.28334945133618566  1.0000
  O   O20       1.0  0.7064946548356514  0.9402943504377108  0.28343303220981414  1.0000
  O   O21       1.0  0.9403495995996066  0.06978470521323746  0.2832900102607853  1.0000
  O   O22       1.0  0.5597039267032926  0.7935052537784344  0.2165681431709883  1.0000
  O   O23       1.0  0.793478310103751  0.4302050880244862  0.2166548247902042  1.0000
  O   O24       1.0  0.4302138316542639  0.5596482254223858  0.2167124666295593  1.0000
