data_image0
_chemical_formula_structural       H34Pb2C42S4N6O16
_chemical_formula_sum              "H34 Pb2 C42 S4 N6 O16"
_cell_length_a       8.310419154995044
_cell_length_b       11.727686817904893
_cell_length_c       12.17173740705221
_cell_angle_alpha    99.29919310008732
_cell_angle_beta     99.37832419387826
_cell_angle_gamma    98.51639148810783

_space_group_name_H-M_alt    "P 1"
_space_group_IT_number       1

loop_
  _space_group_symop_operation_xyz
  'x, y, z'

loop_
  _atom_site_type_symbol
  _atom_site_label
  _atom_site_symmetry_multiplicity
  _atom_site_fract_x
  _atom_site_fract_y
  _atom_site_fract_z
  _atom_site_occupancy
  H   H1        1.0  0.0990070212149945  0.2199770402041707  0.615238795041506  1.0000
  H   H2        1.0  0.9009911382936264  0.780022321844733  0.3847581182873227  1.0000
  H   H3        1.0  0.23016774155637168  0.32659758246078513  0.8114696569858282  1.0000
  H   H4        1.0  0.7698262688741622  0.6733999672578579  0.1885289195909507  1.0000
  H   H5        1.0  0.9304599361239384  0.591949877678971  0.756040907684813  1.0000
  H   H6        1.0  0.06954120924721251  0.40804684661654284  0.24395757211289038  1.0000
  H   H7        1.0  0.8119101761268224  0.4755028006084674  0.566467417486308  1.0000
  H   H8        1.0  0.18808639049064618  0.5245000603823584  0.43352988401667136  1.0000
  H   H9        1.0  0.07963866671576617  0.6963721478794511  0.8998411373469748  1.0000
  H   H10       1.0  0.9203655175219723  0.3036272006879983  0.10015978848139893  1.0000
  H   H11       1.0  0.3522229942648067  0.6778223636815143  0.22609792110057467  1.0000
  H   H12       1.0  0.6477753167641109  0.322177840871568  0.7739016155330629  1.0000
  H   H13       1.0  0.39527886014023034  0.31063542459317256  0.02375692518932479  1.0000
  H   H14       1.0  0.6047248915346443  0.6893673940880165  0.9762469893996195  1.0000
  H   H15       1.0  0.5687988150738974  0.20187047854910395  0.1409342466840684  1.0000
  H   H16       1.0  0.4312018774536881  0.7981297039819994  0.8590680391862549  1.0000
  H   H17       1.0  0.6276506140248372  0.46189938920560536  0.4268624010497106  1.0000
  H   H18       1.0  0.3723488370516534  0.5381007746411371  0.5731405534823821  1.0000
  H   H19       1.0  0.4627977805385228  0.5811574085401076  0.3240334100131576  1.0000
  H   H20       1.0  0.5372020547013747  0.4188444878275491  0.6759715218803776  1.0000
  H   H21       1.0  0.3936028487498078  0.08229092064153322  0.28779789024563474  1.0000
  H   H22       1.0  0.6063979451812855  0.9177093212802635  0.7122003090644567  1.0000
  H   H23       1.0  0.8762373745767036  0.9784081500391152  0.1376159990259254  1.0000
  H   H24       1.0  0.12376533845410617  0.02159476873908521  0.8623804111043325  1.0000
  H   H25       1.0  0.9322564397201704  0.7877188376587798  0.044008028842803526  1.0000
  H   H26       1.0  0.0677468168323969  0.2122814297535953  0.9559896504557982  1.0000
  H   H27       1.0  0.8083402107843652  0.9773287760333743  0.5385925294578582  1.0000
  H   H28       1.0  0.1916591496139333  0.022670580943611202  0.461405349833285  1.0000
  H   H29       1.0  0.6503074480631952  0.9516840749367862  0.44318528806321916  1.0000
  H   H30       1.0  0.3496904788023086  0.048314397095381906  0.5568122712089688  1.0000
  H   H31       1.0  0.4186818382254885  0.2576270722575984  0.4555885390114156  1.0000
  H   H32       1.0  0.5813152313523346  0.7423731136111231  0.5444116662839917  1.0000
  H   H33       1.0  0.4948023091161531  0.22228053368699108  0.5716680173404993  1.0000
  H   H34       1.0  0.50519499310478  0.7777205421984589  0.4283315420115341  1.0000
  Pb  Pb1       1.0  0.7540344509230721  0.19049983356094913  0.41134796847234156  1.0000
  Pb  Pb2       1.0  0.24596752361700416  0.8095003914107936  0.5886520141121209  1.0000
  C   C1        1.0  0.06423839561199432  0.30234392297651175  0.6506335861104162  1.0000
  C   C2        1.0  0.935759217487586  0.6976536115263772  0.3493678883533278  1.0000
  C   C3        1.0  0.1374299221629087  0.36208718461973893  0.759634067660066  1.0000
  C   C4        1.0  0.8625708514874831  0.6379130454239148  0.24036494896206761  1.0000
  C   C5        1.0  0.08995650762911823  0.46811172231473835  0.8021488109269865  1.0000
  C   C6        1.0  0.910038895772807  0.5318866885924436  0.1978517202928387  1.0000
  C   C7        1.0  0.9724415537521551  0.5100605242211245  0.7300071434150295  1.0000
  C   C8        1.0  0.02755569546472002  0.48993528963900007  0.2699915363752226  1.0000
  C   C9        1.0  0.9055399787028617  0.4447117100653699  0.6224313275778781  1.0000
  C   C10       1.0  0.09445405200837344  0.5552858515314087  0.37756643168685855  1.0000
  C   C11       1.0  0.16132184047946654  0.5315299182917814  0.9195520268996659  1.0000
  C   C12       1.0  0.8386799216982012  0.4684694285413683  0.08044778431611377  1.0000
  C   C13       1.0  0.14216636673236147  0.6476061322601796  0.9574139471245572  1.0000
  C   C14       1.0  0.8578324878183138  0.35239142092707004  0.04258685867741015  1.0000
  C   C15       1.0  0.21269695352202686  0.7025072775287668  0.0692644379825325  1.0000
  C   C16       1.0  0.787303142479736  0.29749029434284324  0.9307356991576651  1.0000
  C   C17       1.0  0.2978917306747136  0.6380330298068204  0.1383803428836075  1.0000
  C   C18       1.0  0.7021100112222526  0.3619663051481936  0.8616202856442142  1.0000
  C   C19       1.0  0.3147285260600227  0.523727980821171  0.0937693567082434  1.0000
  C   C20       1.0  0.6852749225742514  0.47627315285165406  0.9062293112710762  1.0000
  C   C21       1.0  0.41258816608657867  0.45566385655251934  0.1628433051787397  1.0000
  C   C22       1.0  0.5874129714465182  0.5443380941339129  0.8371585061168928  1.0000
  C   C23       1.0  0.44355396283526716  0.34666906448228474  0.11306971904046753  1.0000
  C   C24       1.0  0.5564497888396075  0.6533337541988973  0.886934195548477  1.0000
  C   C25       1.0  0.541452498277593  0.2863364697731754  0.17803580524272178  1.0000
  C   C26       1.0  0.4585534833756455  0.7136654843818634  0.8219682352780919  1.0000
  C   C27       1.0  0.5757426000167386  0.43112544983022644  0.3367722796146849  1.0000
  C   C28       1.0  0.42425483344378984  0.5688764566812595  0.663230720354214  1.0000
  C   C29       1.0  0.48095859687707326  0.4978361472924108  0.27812764012998054  1.0000
  C   C30       1.0  0.5190388568641636  0.5021657710972178  0.7218745425268762  1.0000
  C   C31       1.0  0.1939216175082663  0.823488764463292  0.115758191583808  1.0000
  C   C32       1.0  0.8060776820479275  0.17651055687927913  0.8842421396434685  1.0000
  C   C33       1.0  0.32522918180076493  0.9093733659383222  0.18351133817920132  1.0000
  C   C34       1.0  0.6747691697895559  0.09062686237103185  0.816486563830338  1.0000
  C   C35       1.0  0.2934719340287586  0.016705348493296406  0.23458887587117513  1.0000
  C   C36       1.0  0.7065289004637377  0.9832949171847789  0.7654076888148251  1.0000
  C   C37       1.0  0.13304904566410158  0.0399371935762218  0.22040786170439466  1.0000
  C   C38       1.0  0.8669546153325811  0.9600648182352035  0.7795909776436004  1.0000
  C   C39       1.0  0.0018791536515081891  0.9595423585746449  0.14908498344318843  1.0000
  C   C40       1.0  0.998121076477126  0.04046052283484161  0.8509127640106156  1.0000
  C   C41       1.0  0.03448433899141891  0.8528578940788948  0.0969485369353791  1.0000
  C   C42       1.0  0.9655165861792693  0.1471431784689443  0.9030531029915777  1.0000
  S   S1        1.0  0.5401707716053537  0.8943844929270172  0.21305491717122044  1.0000
  S   S2        1.0  0.4598301332846332  0.10561656774268613  0.7869475400677785  1.0000
  S   S3        1.0  0.09868416905052871  0.16491649424064292  0.3115081420300071  1.0000
  S   S4        1.0  0.9013153834294769  0.8350837289967927  0.6884907259418538  1.0000
  N   N1        1.0  0.948582664562096  0.34190069327183187  0.5827585959767062  1.0000
  N   N2        1.0  0.05141524202270636  0.6580977668822003  0.41723978060753086  1.0000
  N   N3        1.0  0.24637829504141706  0.47144044640928234  0.9863236102496697  1.0000
  N   N4        1.0  0.7536212168771783  0.5285597530718817  0.013676892346289531  1.0000
  N   N5        1.0  0.6074333194681928  0.32764794671316383  0.28844223124907836  1.0000
  N   N6        1.0  0.3925655272444288  0.6723548328650042  0.7115619060508108  1.0000
  O   O1        1.0  0.5619762159780991  0.8476474601875099  0.3203451610263102  1.0000
  O   O2        1.0  0.4380253338371673  0.15235100850704703  0.6796544788207938  1.0000
  O   O3        1.0  0.7099091379619793  0.010609632205245108  0.5111056904839086  1.0000
  O   O4        1.0  0.2900912109635954  0.9893888415612296  0.4888929834008734  1.0000
  O   O5        1.0  0.5228694074001723  0.2646120972713888  0.5115404349450754  1.0000
  O   O6        1.0  0.4771278745400593  0.7353889667359255  0.4884599417190144  1.0000
  O   O7        1.0  0.5746672307214666  0.816402738343932  0.11795341190969576  1.0000
  O   O8        1.0  0.4253343393745012  0.18359574222876063  0.8820454106253662  1.0000
  O   O9        1.0  0.6323313976531039  0.015549973741784101  0.23111654037022325  1.0000
  O   O10       1.0  0.3676725336608158  0.9844484729308011  0.7688858487135659  1.0000
  O   O11       1.0  0.253853769729993  0.2504685452754458  0.34238996485942846  1.0000
  O   O12       1.0  0.7461437042919455  0.7495333849923187  0.6576114004853718  1.0000
  O   O13       1.0  0.05337904447700481  0.11635427957435242  0.4108017056430454  1.0000
  O   O14       1.0  0.9466206876420598  0.8836415716544865  0.5891956368236605  1.0000
  O   O15       1.0  0.958487630029957  0.2088931805178973  0.2526695778477047  1.0000
  O   O16       1.0  0.041509439547866074  0.791107005350824  0.7473306274477025  1.0000
