data_image0
_chemical_formula_structural       V4Cu2H4C4N2O12
_chemical_formula_sum              "V4 Cu2 H4 C4 N2 O12"
_cell_length_a       7.564569832031749
_cell_length_b       7.547471870552669
_cell_length_c       7.600974607801719
_cell_angle_alpha    88.29545911236873
_cell_angle_beta     62.34653605432477
_cell_angle_gamma    64.74946928255304

_space_group_name_H-M_alt    "P 1"
_space_group_IT_number       1

loop_
  _space_group_symop_operation_xyz
  'x, y, z'

loop_
  _atom_site_type_symbol
  _atom_site_label
  _atom_site_symmetry_multiplicity
  _atom_site_fract_x
  _atom_site_fract_y
  _atom_site_fract_z
  _atom_site_occupancy
  V   V1        1.0  0.13237581435461  0.7507399826115987  0.7399209726926727  1.0000
  V   V2        1.0  0.8676138183092518  0.2492603713030306  0.2600783079227187  1.0000
  V   V3        1.0  0.9558297158939836  0.23327175851851928  0.7721333612747756  1.0000
  V   V4        1.0  0.0441817080592697  0.7667239937690341  0.22785615772965434  1.0000
  Cu  Cu1       1.0  0.2750815683777502  0.37604932290326326  0.38993817454518614  1.0000
  Cu  Cu2       1.0  0.7249107440870334  0.6239629694752794  0.6100661695015289  1.0000
  H   H1        1.0  0.5060409694536784  0.9337256093849577  0.31351264825478614  1.0000
  H   H2        1.0  0.49396216546507077  0.06626570796858289  0.686493896328912  1.0000
  H   H3        1.0  0.3486997309751558  0.34723829591536054  0.966400260741281  1.0000
  H   H4        1.0  0.6513086711920552  0.6527544859005444  0.033598596776606225  1.0000
  C   C1        1.0  0.504104506855384  0.9633222438273491  0.17318217168985228  1.0000
  C   C2        1.0  0.4958955443566496  0.036675066246090196  0.8268229885354118  1.0000
  C   C3        1.0  0.4156687445219945  0.19203735559903382  0.9815655945541337  1.0000
  C   C4        1.0  0.5843266378958418  0.8079659569186431  0.01844679364545234  1.0000
  N   N1        1.0  0.41981368623800114  0.154612467419291  0.1537788513021851  1.0000
  N   N2        1.0  0.5801945085793391  0.8453833053275942  0.8462331818028517  1.0000
  O   O1        1.0  0.6089518445608989  0.2818690288374057  0.3803307102320871  1.0000
  O   O2        1.0  0.3910297240839567  0.7181493003346449  0.6196915086620862  1.0000
  O   O3        1.0  0.26959463802727857  0.5766683833167789  0.223066883685938  1.0000
  O   O4        1.0  0.7304037947048198  0.423306523004868  0.7769237855085439  1.0000
  O   O5        1.0  0.2026037460116044  0.2038739940476049  0.5795314692700516  1.0000
  O   O6        1.0  0.7973990862098574  0.796141227508336  0.42045882300380544  1.0000
  O   O7        1.0  0.09872748146188563  0.5904619847583773  0.622707641377538  1.0000
  O   O8        1.0  0.9013089344227936  0.40952615855448465  0.37725758406853066  1.0000
  O   O9        1.0  0.9415927951481178  0.004710439643453399  0.7551291235731485  1.0000
  O   O10       1.0  0.05840580265197544  0.9952898652739322  0.24486741032026774  1.0000
  O   O11       1.0  0.9473721541348114  0.282952551125689  0.0042935655424967785  1.0000
  O   O12       1.0  0.05260435165173754  0.7170702848339089  0.9957071525233587  1.0000
