data_image0
_chemical_formula_structural       V4Co2H18C10N4O14
_chemical_formula_sum              "V4 Co2 H18 C10 N4 O14"
_cell_length_a       5.87486001638956
_cell_length_b       7.672521815502324
_cell_length_c       11.816552672394932
_cell_angle_alpha    97.1024824677195
_cell_angle_beta     102.83683503133078
_cell_angle_gamma    99.32331439518597

_space_group_name_H-M_alt    "P 1"
_space_group_IT_number       1

loop_
  _space_group_symop_operation_xyz
  'x, y, z'

loop_
  _atom_site_type_symbol
  _atom_site_label
  _atom_site_symmetry_multiplicity
  _atom_site_fract_x
  _atom_site_fract_y
  _atom_site_fract_z
  _atom_site_occupancy
  V   V1        1.0  0.716472748795603  0.21793138931443679  0.29817721298465466  1.0000
  V   V2        1.0  0.27628840623275147  0.7968572232048385  0.6948251786639615  1.0000
  V   V3        1.0  0.7713617230116085  0.9276027125863066  0.5963459174770306  1.0000
  V   V4        1.0  0.2187703104214052  0.0776270674251478  0.39880405571194893  1.0000
  Co  Co1       1.0  0.007194875163364155  0.6478140220885606  0.4233499536727407  1.0000
  Co  Co2       1.0  0.995562545906708  0.3566034360996397  0.5763678552834647  1.0000
  H   H1        1.0  0.5281394711140095  0.7432194191106232  0.28492715018706594  1.0000
  H   H2        1.0  0.4917452879133535  0.26761224719238896  0.7262195926929065  1.0000
  H   H3        1.0  0.4715185161823571  0.7755905350226936  0.04837898778158936  1.0000
  H   H4        1.0  0.5348907089547836  0.22194031703613598  0.9607295759845795  1.0000
  H   H5        1.0  0.1360614920815451  0.6340156979134121  0.17766173911993377  1.0000
  H   H6        1.0  0.8725864790667758  0.3619190848591173  0.826924645769601  1.0000
  H   H7        1.0  0.7296850036447894  0.652809391203199  0.8969308710377033  1.0000
  H   H8        1.0  0.26245965531581567  0.3355950640418399  0.10847352901552648  1.0000
  H   H9        1.0  0.03949277201557784  0.6878725762309443  0.9658159523855898  1.0000
  H   H10       1.0  0.9553683588383421  0.30020112921860687  0.03505595324468657  1.0000
  H   H11       1.0  0.9271862990576596  0.9396018399408987  0.8652630269126147  1.0000
  H   H12       1.0  0.0692015221646827  0.04739946765531759  0.1350589597678322  1.0000
  H   H13       1.0  0.7269417655281032  0.9728683047173589  0.9532885911424953  1.0000
  H   H14       1.0  0.2697436906167496  0.016609023752742803  0.04681132123784689  1.0000
  H   H15       1.0  0.446990970702231  0.6166682299515287  0.41463365471324914  1.0000
  H   H16       1.0  0.5528464957317069  0.3797890059607453  0.5811738636606377  1.0000
  H   H17       1.0  0.28814016289272365  0.4322915091987198  0.4130770503987122  1.0000
  H   H18       1.0  0.7074564670861252  0.5667061772768418  0.5814479530357772  1.0000
  C   C1        1.0  0.6427632082098642  0.7204942324056275  0.22714321474014548  1.0000
  C   C2        1.0  0.37206922984323404  0.28415618258745207  0.782294976090867  1.0000
  C   C3        1.0  0.6137683454474755  0.7398741414965002  0.11118227780488613  1.0000
  C   C4        1.0  0.39498367064611273  0.25794742507036256  0.8967565328692472  1.0000
  C   C5        1.0  0.9642054718218701  0.6687376419081089  0.17603153583090142  1.0000
  C   C6        1.0  0.0461292561253686  0.3294884259466143  0.8295519271739378  1.0000
  C   C7        1.0  0.8738885336165652  0.7354233923253374  0.9682770257581692  1.0000
  C   C8        1.0  0.1227548128356872  0.25416047663851055  0.034691573234908894  1.0000
  C   C9        1.0  0.898243419606395  0.9322079650417477  0.953303645025535  1.0000
  C   C10       1.0  0.09827540389994743  0.056582990723576594  0.047310019162331685  1.0000
  N   N1        1.0  0.8612443838460424  0.6751058715489507  0.2663771411098423  1.0000
  N   N2        1.0  0.1542163512995955  0.32918878983150524  0.7412535652756417  1.0000
  N   N3        1.0  0.8180366410235537  0.7073299033162781  0.08042070482163408  1.0000
  N   N4        1.0  0.18669240890698555  0.28685323358010345  0.9251793084859441  1.0000
  O   O1        1.0  0.8408381279657392  0.4072087222454356  0.4044941051488492  1.0000
  O   O2        1.0  0.1550533496223352  0.612170292354733  0.5825586529527981  1.0000
  O   O3        1.0  0.2938534684966569  0.5359310208815129  0.3706689102315862  1.0000
  O   O4        1.0  0.7073436141570469  0.4613779528757219  0.6226014441938615  1.0000
  O   O5        1.0  0.18645242975895132  0.8824346840624954  0.4522103397895592  1.0000
  O   O6        1.0  0.800889754837769  0.11467760073642806  0.5352623723124097  1.0000
  O   O7        1.0  0.7156028167258839  0.7409014414984084  0.4940116516908331  1.0000
  O   O8        1.0  0.27653299736208226  0.2599789679961972  0.5062611980872446  1.0000
  O   O9        1.0  0.6641661306783179  0.2747839585918257  0.16900431222516935  1.0000
  O   O10       1.0  0.3310868045847712  0.7276901166268671  0.8200296693815402  1.0000
  O   O11       1.0  0.9480678058945458  0.08705588623234208  0.30113997820639327  1.0000
  O   O12       1.0  0.044537749775891255  0.9235747016444973  0.6961836778716373  1.0000
  O   O13       1.0  0.441567756494095  0.09443202134371381  0.31816226129888747  1.0000
  O   O14       1.0  0.5506319212807612  0.923095814839648  0.6779079782897026  1.0000
