data_image0
_chemical_formula_structural       Cd2H24C40N20
_chemical_formula_sum              "Cd2 H24 C40 N20"
_cell_length_a       7.816821904610143
_cell_length_b       10.590511041844428
_cell_length_c       12.785972262518316
_cell_angle_alpha    103.5869812215202
_cell_angle_beta     90.59527202043223
_cell_angle_gamma    108.78257333331132

_space_group_name_H-M_alt    "P 1"
_space_group_IT_number       1

loop_
  _space_group_symop_operation_xyz
  'x, y, z'

loop_
  _atom_site_type_symbol
  _atom_site_label
  _atom_site_symmetry_multiplicity
  _atom_site_fract_x
  _atom_site_fract_y
  _atom_site_fract_z
  _atom_site_occupancy
  Cd  Cd1       1.0  0.500013747504859  6.814834406998604e-06  0.4999980452980353  1.0000
  Cd  Cd2       1.0  0.4999850453860191  0.4999952917535708  7.261000426736385e-06  1.0000
  H   H1        1.0  0.425361522568842  0.1489738088218431  0.3195592213124456  1.0000
  H   H2        1.0  0.574649765976119  0.8510520053969873  0.6804381788819357  1.0000
  H   H3        1.0  0.4952635612582911  0.3814088678867336  0.27924853214037176  1.0000
  H   H4        1.0  0.5047467811509492  0.6186148953605511  0.7207539398219822  1.0000
  H   H5        1.0  0.6719424744958928  0.6447491271852358  0.35038621031385025  1.0000
  H   H6        1.0  0.328080270145911  0.3552765018462908  0.6496229488352014  1.0000
  H   H7        1.0  0.8839553328969741  0.8322949475192516  0.4939858082674675  1.0000
  H   H8        1.0  0.11606375751220098  0.16772556531605431  0.506029377442232  1.0000
  H   H9        1.0  0.013188244682460465  0.7810761133982284  0.6508478019809588  1.0000
  H   H10       1.0  0.9868147555420067  0.21892911218753144  0.3491682406133592  1.0000
  H   H11       1.0  0.9217415641298602  0.538153754531983  0.6695986621608299  1.0000
  H   H12       1.0  0.07825252969795567  0.4618516173673015  0.3304095385576034  1.0000
  H   H13       1.0  0.4557911631693443  0.19766382185114403  0.8754597412631498  1.0000
  H   H14       1.0  0.5441915655193057  0.8023282287957157  0.12453486365049572  1.0000
  H   H15       1.0  0.3729808294672098  0.9373232594898085  0.7904780909076622  1.0000
  H   H16       1.0  0.6270056631360319  0.0626604118525051  0.20951490968838735  1.0000
  H   H17       1.0  0.22081773722259615  0.6970214605889923  0.8069427880330836  1.0000
  H   H18       1.0  0.7791857930896172  0.30297126421590553  0.19305753722075286  1.0000
  H   H19       1.0  0.05622129767141368  0.8514391164502372  0.11869321638551616  1.0000
  H   H20       1.0  0.9437688318286986  0.1485413753907991  0.8813007518670872  1.0000
  H   H21       1.0  0.15468681603680784  0.11440106751410895  0.19535130224547004  1.0000
  H   H22       1.0  0.8452953522503748  0.8855733354861216  0.8046422232870043  1.0000
  H   H23       1.0  0.062292653190994036  0.655863522157553  0.969038713858403  1.0000
  H   H24       1.0  0.937710783936275  0.3441125770680671  0.030956040163658823  1.0000
  C   C1        1.0  0.5181374152383001  0.24258118765054354  0.3729881253106626  1.0000
  C   C2        1.0  0.48186927857138784  0.757445748261155  0.6270094670619033  1.0000
  C   C3        1.0  0.5572600423057139  0.37025137650350365  0.3520400294736632  1.0000
  C   C4        1.0  0.44274951236451443  0.6297734398706754  0.6479626423851883  1.0000
  C   C5        1.0  0.6762261844611716  0.48439203902901795  0.42845788376678223  1.0000
  C   C6        1.0  0.3237739816006667  0.515623607261226  0.5715492146706325  1.0000
  C   C7        1.0  0.7275516802630689  0.6225038112767933  0.41985017828566373  1.0000
  C   C8        1.0  0.2724633525201909  0.3775053265726314  0.5801518294216805  1.0000
  C   C9        1.0  0.8457630085042354  0.7259190181972176  0.4996303573387807  1.0000
  C   C10       1.0  0.1542331804619366  0.2740935857236835  0.5003776933185407  1.0000
  C   C11       1.0  0.917820050052832  0.6968918589956772  0.5900473118105795  1.0000
  C   C12       1.0  0.08219661299280999  0.30312349017539475  0.4099598200728991  1.0000
  C   C13       1.0  0.8687959204270969  0.5642823754912598  0.6014406232361367  1.0000
  C   C14       1.0  0.13120823911415871  0.43573632273993473  0.39857099968789805  1.0000
  C   C15       1.0  0.7463195445892621  0.45550995661488247  0.5209662862093509  1.0000
  C   C16       1.0  0.2536850821685094  0.5445097636836564  0.47904084486408754  1.0000
  C   C17       1.0  0.10494453795860177  0.9349969404479168  0.34254360569678977  1.0000
  C   C18       1.0  0.8951044185442355  0.06501364456310203  0.6574479204281758  1.0000
  C   C19       1.0  0.8081487943986472  0.9309639457031195  0.3309702658165676  1.0000
  C   C20       1.0  0.19190252064016275  0.06904347719245861  0.6690190958455845  1.0000
  C   C21       1.0  0.3867609359214584  0.16945145943352463  0.9447575789471544  1.0000
  C   C22       1.0  0.6132059926779903  0.8305232109936966  0.05523200377879795  1.0000
  C   C23       1.0  0.3048820159152116  0.029939763786501303  0.94709527708212  1.0000
  C   C24       1.0  0.695103820647823  0.9700397636141814  0.052896916209583436  1.0000
  C   C25       1.0  0.30623105083413543  0.9173008349389208  0.8622489383834377  1.0000
  C   C26       1.0  0.6937575008474184  0.08268176178854249  0.1377446472755324  1.0000
  C   C27       1.0  0.22072215461486874  0.7847685258913657  0.8716115949686198  1.0000
  C   C28       1.0  0.7792553139361403  0.21522049703722962  0.12837926527227952  1.0000
  C   C29       1.0  0.13131483928972898  0.7612018496739594  0.9643650046026694  1.0000
  C   C30       1.0  0.8686836989635297  0.2387774560103679  0.03563112635001182  1.0000
  C   C31       1.0  0.12827992901816995  0.8695050188400799  0.04820917795527895  1.0000
  C   C32       1.0  0.8717081297009557  0.1304765407789432  0.9517802933011695  1.0000
  C   C33       1.0  0.21627195748316552  0.006032563132109199  0.0407818246559231  1.0000
  C   C34       1.0  0.7837209035192175  0.9939510076073078  0.9592190126704666  1.0000
  C   C35       1.0  0.22213141563627664  0.1252373397709619  0.12191142630147311  1.0000
  C   C36       1.0  0.7778439647979883  0.874744455238137  0.8780819311604732  1.0000
  C   C37       1.0  0.885997298961044  0.5756549844569109  0.16363308848240626  1.0000
  C   C38       1.0  0.11397228890730557  0.4243362822474168  0.8363714592606329  1.0000
  C   C39       1.0  0.18454122534870984  0.5818689031348827  0.16035586803582905  1.0000
  C   C40       1.0  0.8154185123277956  0.418120460278793  0.8396466919859406  1.0000
  N   N1        1.0  0.5884280178534311  0.22308375036537606  0.4634720621995072  1.0000
  N   N2        1.0  0.41157066698059463  0.7769287832321867  0.536521910643721  1.0000
  N   N3        1.0  0.7000805338443286  0.3258557368827582  0.5362814678034766  1.0000
  N   N4        1.0  0.2999249365020802  0.6741494033385679  0.46371189072362995  1.0000
  N   N5        1.0  0.6632868522978869  0.9295659120250692  0.35705893506188613  1.0000
  N   N6        1.0  0.33674853690926204  0.07045117634728373  0.642947855392336  1.0000
  N   N7        1.0  0.24592384936059375  0.9387597542251103  0.3790603753824656  1.0000
  N   N8        1.0  0.7541252936253997  0.06125395129281939  0.6209356675107998  1.0000
  N   N9        1.0  0.9600577161987405  0.9328864140107033  0.29115307770290144  1.0000
  N   N10       1.0  0.03997805640212702  0.06711507631920452  0.7088467792155413  1.0000
  N   N11       1.0  0.38572433241838416  0.2737456120956736  0.024885155193665312  1.0000
  N   N12       1.0  0.6142594975101616  0.7262433061279199  0.9751111946176252  1.0000
  N   N13       1.0  0.30371937453731596  0.2530248937263124  0.1157036036322836  1.0000
  N   N14       1.0  0.6962693659679218  0.7469608248754299  0.884295281181636  1.0000
  N   N15       1.0  0.7406700768243085  0.5735772088210426  0.13520735244439666  1.0000
  N   N16       1.0  0.25929566564718703  0.42640581844541003  0.8647971403176982  1.0000
  N   N17       1.0  0.03657164227538347  0.5759332731220468  0.20606988108770716  1.0000
  N   N18       1.0  0.9634062563668307  0.42407030976318794  0.7939363190455851  1.0000
  N   N19       1.0  0.3255917511201289  0.5858780433229924  0.12677974608104142  1.0000
  N   N20       1.0  0.6743766807239667  0.414108038229145  0.8732175327952021  1.0000
