data_image0
_chemical_formula_structural       Zn2H31C29N5O10
_chemical_formula_sum              "Zn2 H31 C29 N5 O10"
_cell_length_a       9.790871434542241
_cell_length_b       11.077309229846431
_cell_length_c       16.05655852232527
_cell_angle_alpha    90.34404725582239
_cell_angle_beta     91.79841688187177
_cell_angle_gamma    88.46503093866522

_space_group_name_H-M_alt    "P 1"
_space_group_IT_number       1

loop_
  _space_group_symop_operation_xyz
  'x, y, z'

loop_
  _atom_site_type_symbol
  _atom_site_label
  _atom_site_symmetry_multiplicity
  _atom_site_fract_x
  _atom_site_fract_y
  _atom_site_fract_z
  _atom_site_occupancy
  Zn  Zn1       1.0  0.6455626546000061  0.4707401362421353  0.4985003269191211  1.0000
  Zn  Zn2       1.0  0.36344094471429866  0.4765861000173076  0.499935364483072  1.0000
  H   H1        1.0  0.6066995384448503  0.8802649968929189  0.458815932758192  1.0000
  H   H2        1.0  0.23047231682215139  0.7347766905085396  0.9691180405421207  1.0000
  H   H3        1.0  0.37566096123252635  0.8254279589764127  0.989678764896226  1.0000
  H   H4        1.0  0.2693516247232424  0.902824321586799  0.1216772911751107  1.0000
  H   H5        1.0  0.16114868267100488  0.9345752565110819  0.03255446636386241  1.0000
  H   H6        1.0  0.12366104522158848  0.8134894970429731  0.0999798986717835  1.0000
  H   H7        1.0  0.19433887991441168  0.514118749534724  0.367410597658008  1.0000
  H   H8        1.0  0.0240918899441809  0.6412030684877978  0.31899675474729616  1.0000
  H   H9        1.0  0.9888484524734691  0.6791759755911146  0.4256360629366114  1.0000
  H   H10       1.0  0.9003261518583585  0.5610174406968795  0.3748761647212007  1.0000
  H   H11       1.0  0.3469787145289303  0.29599723898210334  0.0941144914704495  1.0000
  H   H12       1.0  0.8806019460705625  0.5591984728701505  0.6067712798592453  1.0000
  H   H13       1.0  0.296781572695636  0.13255534267060656  0.003281242714670901  1.0000
  H   H14       1.0  0.39966879242170705  0.19520254664846703  0.9263066854208191  1.0000
  H   H15       1.0  0.23897566161876682  0.26551547097366063  0.9484025868243151  1.0000
  H   H16       1.0  0.6303152608182359  0.30699976465555784  0.8673931521614904  1.0000
  H   H17       1.0  0.8096513026986045  0.18888351248747176  0.9361980016960914  1.0000
  H   H18       1.0  0.6594160066125668  0.17551709096423448  0.9963024357049903  1.0000
  H   H19       1.0  0.7878141821864516  0.2783311988915359  0.027480764521087102  1.0000
  H   H20       1.0  0.8515011518567022  0.6477347362600555  0.9993233222857967  1.0000
  H   H21       1.0  0.8703182604949262  0.4960115490192579  0.9624057693347723  1.0000
  H   H22       1.0  0.023276825717786703  0.44437060228889885  0.0861751227899461  1.0000
  H   H23       1.0  0.9000008013474741  0.4202336288743994  0.4521656406072553  1.0000
  H   H24       1.0  0.08900302643658618  0.5702342947767748  0.0335089151999384  1.0000
  H   H25       1.0  0.9989369703488791  0.5928414058506208  0.1269379045850698  1.0000
  H   H26       1.0  0.1340837319681754  0.5197654895670923  0.6090383344633494  1.0000
  H   H27       1.0  0.6012586397315688  0.7066186293783119  0.9651859829841811  1.0000
  H   H28       1.0  0.27137994170899304  0.5031604424918257  0.9355123137765274  1.0000
  H   H29       1.0  0.29756243660774834  0.08690917858228182  0.4871674997605878  1.0000
  H   H30       1.0  0.6045371423703827  0.06877176050002731  0.5345502078340445  1.0000
  H   H31       1.0  0.30613383868768546  0.8626125628335047  0.5071681638071796  1.0000
  C   C1        1.0  0.5097538851826612  0.7069826440043415  0.4782597568653841  1.0000
  C   C2        1.0  0.5044667670374139  0.10901579797366881  0.5180806172881205  1.0000
  C   C3        1.0  0.4002592192310956  0.9095311624462497  0.4948521624311226  1.0000
  C   C4        1.0  0.4920799201302727  0.45301249146771033  0.33384292114587305  1.0000
  C   C5        1.0  0.5106542015066537  0.8405751721525121  0.4756826985610587  1.0000
  C   C6        1.0  0.9295385509282426  0.5191548694736028  0.5522727154391873  1.0000
  C   C7        1.0  0.07633660278234798  0.5210599447663213  0.5496784686293239  1.0000
  C   C8        1.0  0.4971551519425503  0.24255303990743476  0.5162614697649559  1.0000
  C   C9        1.0  0.5037667215153333  0.5124843486227704  0.6603503131443773  1.0000
  C   C10       1.0  0.5595531679396402  0.619198489467216  0.9804453345763805  1.0000
  C   C11       1.0  0.42727585024194065  0.5983581968208469  0.0314650160035157  1.0000
  C   C12       1.0  0.503210041509213  0.4938666834277043  0.08249619371408559  1.0000
  C   C13       1.0  0.4932791711733914  0.46082453803972373  0.2442683856671906  1.0000
  C   C14       1.0  0.5087367795042397  0.5264054739597698  0.7499461857453795  1.0000
  C   C15       1.0  0.634984659635265  0.514101785423783  0.030848841870032104  1.0000
  C   C16       1.0  0.2927780886305911  0.777186688747854  0.019301319866585204  1.0000
  C   C17       1.0  0.20669760533729686  0.8620091173704054  0.0716257667924154  1.0000
  C   C18       1.0  4.6849096747794446e-05  0.6050266964553901  0.38002034292840386  1.0000
  C   C19       1.0  0.3296680501991389  0.21773846284609286  0.9766947776881736  1.0000
  C   C20       1.0  0.7342127146016749  0.23903228027682397  0.9730841283231655  1.0000
  C   C21       1.0  0.8702633797297635  0.5530975770776294  0.0188614159987281  1.0000
  C   C22       1.0  0.002966050302390498  0.539239951678475  0.06923377355820289  1.0000
  C   C23       1.0  0.5850250603199426  0.418760567924295  0.9633438712636107  1.0000
  C   C24       1.0  0.5065469910577673  0.5244467766857497  0.9137276003680199  1.0000
  C   C25       1.0  0.45008127947497195  0.39942529910576524  0.015323331765642902  1.0000
  C   C26       1.0  0.37387309177668726  0.5052698838051202  0.9644596451628332  1.0000
  C   C27       1.0  0.49844476622270406  0.4764181760020991  0.1693530338554368  1.0000
  C   C28       1.0  0.5093281150687403  0.5311596428814626  0.825842946545535  1.0000
  C   C29       1.0  0.3961197423112139  0.040305071215584604  0.4989101055680578  1.0000
  N   N1        1.0  0.8503830138378562  0.46416759116734607  0.4991206846129472  1.0000
  N   N2        1.0  0.153526795834928  0.5073563574740731  0.4845386203271005  1.0000
  N   N3        1.0  0.11282989283857602  0.5257145768636065  0.4060288593270229  1.0000
  N   N4        1.0  0.4012916196186183  0.2870837215494291  0.0411122999618172  1.0000
  N   N5        1.0  0.673018743956547  0.33685311699965587  0.9222649875425759  1.0000
  O   O1        1.0  0.6243638031258385  0.6516332306173355  0.4688388524231826  1.0000
  O   O2        1.0  0.7610069847932052  0.5178771597634652  0.0713583813480625  1.0000
  O   O3        1.0  0.39632031810921825  0.6570550744448129  0.4909027063534879  1.0000
  O   O4        1.0  0.6058598399065146  0.4326194381141875  0.3720703561895959  1.0000
  O   O5        1.0  0.37639377136974156  0.46900135564840173  0.367968415986617  1.0000
  O   O6        1.0  0.6107664739159161  0.2952836384322524  0.5273824449007094  1.0000
  O   O7        1.0  0.3808902897771063  0.29510954878463747  0.5027401876598603  1.0000
  O   O8        1.0  0.6154297083210735  0.5217390700344566  0.6226757199058355  1.0000
  O   O9        1.0  0.3866374669431564  0.4900665885644103  0.6273489080529231  1.0000
  O   O10       1.0  0.35147165623632753  0.6847559327755448  0.0731029140985839  1.0000
