data_image0
_chemical_formula_structural       Sm2H40C36N14O24
_chemical_formula_sum              "Sm2 H40 C36 N14 O24"
_cell_length_a       11.045937894257445
_cell_length_b       10.82218929455922
_cell_length_c       14.023370104322638
_cell_angle_alpha    82.320293768858
_cell_angle_beta     66.93010023843901
_cell_angle_gamma    64.86751305036816

_space_group_name_H-M_alt    "P 1"
_space_group_IT_number       1

loop_
  _space_group_symop_operation_xyz
  'x, y, z'

loop_
  _atom_site_type_symbol
  _atom_site_label
  _atom_site_symmetry_multiplicity
  _atom_site_fract_x
  _atom_site_fract_y
  _atom_site_fract_z
  _atom_site_occupancy
  Sm  Sm1       1.0  0.28057016202733104  0.3870401783849716  0.3671114055201841  1.0000
  Sm  Sm2       1.0  0.7194263836159962  0.6129607794481658  0.6328892168300015  1.0000
  H   H1        1.0  0.0709345869922515  0.042300813015259606  0.08508661456174589  1.0000
  H   H2        1.0  0.9290717092344352  0.957700302117182  0.9149124805104235  1.0000
  H   H3        1.0  0.682717917300181  0.7537103162719633  0.9677632933681222  1.0000
  H   H4        1.0  0.3172885418099157  0.24629693575070638  0.03223803800224798  1.0000
  H   H5        1.0  0.04994797194411398  0.33986006039920374  0.6386613084596604  1.0000
  H   H6        1.0  0.9500440893432298  0.6601357986295469  0.36133257885482806  1.0000
  H   H7        1.0  0.9942483098883628  0.24222772903836196  0.7843462958344671  1.0000
  H   H8        1.0  0.005746781467053011  0.7577722603149298  0.21564914902060653  1.0000
  H   H9        1.0  0.11926213821783457  0.1829755472717025  0.8490673172738922  1.0000
  H   H10       1.0  0.8807311230334636  0.8170285269967864  0.1509283016122608  1.0000
  H   H11       1.0  0.11833804120614387  0.06583077869922961  0.772287619282757  1.0000
  H   H12       1.0  0.8816550778573318  0.9341691304417237  0.2277112801791006  1.0000
  H   H13       1.0  0.4240774485690223  0.16154508110151514  0.6018822932104582  1.0000
  H   H14       1.0  0.575919097074312  0.8384558767316151  0.39811832913972717  1.0000
  H   H15       1.0  0.3915639925386287  0.017032297436642804  0.6658107378965141  1.0000
  H   H16       1.0  0.6084292843684269  0.982973737514442  0.3341911135797274  1.0000
  H   H17       1.0  0.37867958100558513  0.14779855772161454  0.7394828900702775  1.0000
  H   H18       1.0  0.6213102083073708  0.8522043681337338  0.2605174473731395  1.0000
  H   H19       1.0  0.6718878762946545  0.4118078585119562  0.45290901377639864  1.0000
  H   H20       1.0  0.32811087076539996  0.5881858773730927  0.5470951784713235  1.0000
  H   H21       1.0  0.8154453137135604  0.1493929537938143  0.18909458893550385  1.0000
  H   H22       1.0  0.18455359065382024  0.8506049804590888  0.8109041755879787  1.0000
  H   H23       1.0  0.4112984275494256  0.8021797502433613  0.8222264054277914  1.0000
  H   H24       1.0  0.5887112750977863  0.1978223692608339  0.17777727539740343  1.0000
  H   H25       1.0  0.1256148040293681  0.2118389022637359  0.2695286962307221  1.0000
  H   H26       1.0  0.8743821789806604  0.7881609900201668  0.7304747454763998  1.0000
  H   H27       1.0  0.370642830452141  0.0179243561777085  0.2702436128469046  1.0000
  H   H28       1.0  0.629355234996929  0.9820777141766683  0.7297528826880891  1.0000
  H   H29       1.0  0.3505121899803498  0.8268776630461121  0.281799278478978  1.0000
  H   H30       1.0  0.6494896985603517  0.1731223743680843  0.7181991052920722  1.0000
  H   H31       1.0  0.18987909625212035  0.818477008232698  0.37847507690176496  1.0000
  H   H32       1.0  0.8101241850259981  0.18152000981552877  0.6215203134812766  1.0000
  H   H33       1.0  0.3530983007814541  0.7459592418506916  0.4011219823307143  1.0000
  H   H34       1.0  0.6469016356266408  0.2540407596716037  0.5988769931824152  1.0000
  H   H35       1.0  0.10086786641088706  0.9349833574150779  0.5467879391189072  1.0000
  H   H36       1.0  0.8991355268160605  0.06501775928003892  0.4532084649854866  1.0000
  H   H37       1.0  0.09686644958555492  0.1040200644034002  0.531271627046273  1.0000
  H   H38       1.0  0.9031343459001843  0.8959758453378445  0.4687267545906409  1.0000
  H   H39       1.0  0.2343396683825672  0.96926247255896  0.5655452514386852  1.0000
  H   H40       1.0  0.7656626726443322  0.030736532546328004  0.434453804540773  1.0000
  C   C1        1.0  0.5745749428810285  0.313362079730382  0.34465096318277233  1.0000
  C   C2        1.0  0.4254219332200009  0.6866337249867412  0.6553507490868212  1.0000
  C   C3        1.0  0.32799476057199667  0.9352104043416889  0.056142998499048205  1.0000
  C   C4        1.0  0.6720110428498388  0.0647916544588014  0.9438611500941219  1.0000
  C   C5        1.0  0.16693576807534066  0.2926960626670835  0.6204745385970368  1.0000
  C   C6        1.0  0.8330616260297106  0.7072988537825184  0.37951854157066844  1.0000
  C   C7        1.0  0.10352596284599969  0.1719123500420991  0.7784924316962929  1.0000
  C   C8        1.0  0.8964677357720062  0.8280906586771621  0.22150600654679659  1.0000
  C   C9        1.0  0.3599774382998789  0.12752657088441313  0.6728405888863874  1.0000
  C   C10       1.0  0.6400167738185585  0.8724774659294998  0.32715831270961365  1.0000
  C   C11       1.0  0.7281451430296074  0.28447083899184383  0.32280473579621105  1.0000
  C   C12       1.0  0.27185218051779003  0.7155239223362673  0.6771983643979665  1.0000
  C   C13       1.0  0.9377284213980701  0.3774251349830494  0.439644483768774  1.0000
  C   C14       1.0  0.062269939229871285  0.6225717046945648  0.5603581116988678  1.0000
  C   C15       1.0  0.9029664057585337  0.315081540650354  0.3694812788530726  1.0000
  C   C16       1.0  0.09702946907702868  0.6849141907202851  0.6305243078684413  1.0000
  C   C17       1.0  0.7593906659248475  0.3432758732905228  0.3882666535323906  1.0000
  C   C18       1.0  0.24060567651640946  0.6567188590115266  0.6117374582490027  1.0000
  C   C19       1.0  0.839574758647835  0.19570001407986845  0.24008738258834234  1.0000
  C   C20       1.0  0.16042543208421736  0.8042927406825414  0.7599150388482271  1.0000
  C   C21       1.0  0.9828133108057172  0.16667258982735692  0.22315732558040213  1.0000
  C   C22       1.0  0.017188435547162  0.833323282459311  0.7768443387663524  1.0000
  C   C23       1.0  0.47389995272068575  0.8774478675767697  0.057340029681263574  1.0000
  C   C24       1.0  0.5261025612692832  0.1225572965789681  0.9426598311640504  1.0000
  C   C25       1.0  0.5611523909446205  0.7699170989674899  0.884883796729163  1.0000
  C   C26       1.0  0.4388539920317385  0.2300880594113082  0.11511989064523932  1.0000
  C   C27       1.0  0.30251872011408676  0.9004769577999737  0.9706428111023584  1.0000
  C   C28       1.0  0.6974939157718651  0.09952522662217693  0.029359266393548526  1.0000
  C   C29       1.0  0.014915483769286206  0.22893911811529935  0.28589969791323  1.0000
  C   C30       1.0  0.9850811128086293  0.7710638779611757  0.7141021470138113  1.0000
  C   C31       1.0  0.3089393055906484  0.04870677677415361  0.3530903038063967  1.0000
  C   C32       1.0  0.6910582312384788  0.9512942322452531  0.6469078755242209  1.0000
  C   C33       1.0  0.2886775286995303  0.8310994795946058  0.36524586591058034  1.0000
  C   C34       1.0  0.7113238362610659  0.16889950756473132  0.6347534859399174  1.0000
  C   C35       1.0  0.16643852384441948  0.9944254721171366  0.5196541533331072  1.0000
  C   C36       1.0  0.833564803328443  0.0055735730943240035  0.4803431753429592  1.0000
  N   N1        1.0  0.09258285856457603  0.07311828595506853  0.14175941248317508  1.0000
  N   N2        1.0  0.9074238901483087  0.9268817968684643  0.8582403547974022  1.0000
  N   N3        1.0  0.22570537447695932  0.020675154859468105  0.13505461417414472  1.0000
  N   N4        1.0  0.7743004591838628  0.979326970421667  0.8649452401219617  1.0000
  N   N5        1.0  0.5793463961956249  0.7926919043443804  0.9715080270407767  1.0000
  N   N6        1.0  0.4206615524812207  0.20731639371889093  0.028493471811458386  1.0000
  N   N7        1.0  0.20846118653712148  0.20178954352522283  0.6880749065464826  1.0000
  N   N8        1.0  0.7915338337243791  0.7982083632642941  0.31192217859644705  1.0000
  N   N9        1.0  0.30043132325612726  0.5919294956830897  0.20334851064043136  1.0000
  N   N10       1.0  0.6995661525587593  0.40806945293277147  0.7966498775456897  1.0000
  N   N11       1.0  0.42242128993462563  0.8207485305239713  0.8895620466035439  1.0000
  N   N12       1.0  0.577588488846331  0.17925568262408834  0.11043927821761901  1.0000
  N   N13       1.0  0.2537884764129288  0.9620178397753493  0.4096712769868347  1.0000
  N   N14       1.0  0.7462138746936307  0.03798118749016061  0.5903263475602711  1.0000
  O   O1        1.0  0.47362863889443224  0.40878040800697596  0.40802602431301693  1.0000
  O   O2        1.0  0.5263730973787801  0.5912154421194772  0.5919770714660899  1.0000
  O   O3        1.0  0.5479929901985869  0.23738634901408778  0.2985292596053739  1.0000
  O   O4        1.0  0.4520034233365847  0.7626104658517294  0.7014732118881639  1.0000
  O   O5        1.0  0.8513833198799929  0.40282934464682546  0.5337821340771995  1.0000
  O   O6        1.0  0.14861321064384475  0.5971715799459858  0.4662206354215143  1.0000
  O   O7        1.0  0.2531269352822746  0.3238284284049443  0.5424915975964594  1.0000
  O   O8        1.0  0.7468676123337018  0.6761704663730583  0.4575076782027664  1.0000
  O   O9        1.0  0.5093702439375181  0.8998775075257586  0.12453516784376714  1.0000
  O   O10       1.0  0.4906322498931318  0.1001276123095565  0.8754675558662512  1.0000
  O   O11       1.0  0.17989625776643675  0.9431981156719901  0.9670345894614554  1.0000
  O   O12       1.0  0.8201169727935351  0.056807201568787505  0.03296487966715495  1.0000
  O   O13       1.0  0.18398714050187687  0.5732843828211076  0.2515365366754594  1.0000
  O   O14       1.0  0.816013629248445  0.42670954407734035  0.7484570438037179  1.0000
  O   O15       1.0  0.6672974886932721  0.7062905826943365  0.8074613006521075  1.0000
  O   O16       1.0  0.33271164447907603  0.2937084593917661  0.1925414099595102  1.0000
  O   O17       1.0  0.05093316328364483  0.3993562297648837  0.4001005966447834  1.0000
  O   O18       1.0  0.9490599966347517  0.6006456954591997  0.5999009568262821  1.0000
  O   O19       1.0  0.2907863949757541  0.15633747989154054  0.391557074277152  1.0000
  O   O20       1.0  0.7092102419208145  0.8436656048257946  0.6084390449204733  1.0000
  O   O21       1.0  0.4085729722385949  0.5158199008713211  0.22835487329692225  1.0000
  O   O22       1.0  0.5914221857071593  0.48418408740789715  0.7716480267250959  1.0000
  O   O23       1.0  0.30681380442157286  0.6792375524818509  0.13683422808185955  1.0000
  O   O24       1.0  0.6931826902871734  0.32076136710794856  0.8631651716914773  1.0000
