data_image0
_chemical_formula_structural       Fe2H24C16S4N12O4
_chemical_formula_sum              "Fe2 H24 C16 S4 N12 O4"
_cell_length_a       8.107341297937172
_cell_length_b       8.907649102059889
_cell_length_c       10.087003024261593
_cell_angle_alpha    89.56977849179978
_cell_angle_beta     90.88876928309978
_cell_angle_gamma    95.49962391449127

_space_group_name_H-M_alt    "P 1"
_space_group_IT_number       1

loop_
  _space_group_symop_operation_xyz
  'x, y, z'

loop_
  _atom_site_type_symbol
  _atom_site_label
  _atom_site_symmetry_multiplicity
  _atom_site_fract_x
  _atom_site_fract_y
  _atom_site_fract_z
  _atom_site_occupancy
  Fe  Fe1       1.0  0.9999994884801925  0.4999987053516296  0.499997259217956  1.0000
  Fe  Fe2       1.0  0.4999995473433643  1.3356864840994284e-06  0.9999991301287637  1.0000
  H   H1        1.0  0.7380610920497761  0.43945021764170633  0.2085905628789178  1.0000
  H   H2        1.0  0.7590609575857812  0.05683271067552201  0.7105395158583221  1.0000
  H   H3        1.0  0.2619371562120563  0.560547708038918  0.7914060497443173  1.0000
  H   H4        1.0  0.24094463861828072  0.9431753198906351  0.2894660311057464  1.0000
  H   H5        1.0  0.5924829809237906  0.5588356279901774  0.1398110321410897  1.0000
  H   H6        1.0  0.9086362976863857  0.9431883710766868  0.6440759926941979  1.0000
  H   H7        1.0  0.4075194736550287  0.44116679314863216  0.8601875742700641  1.0000
  H   H8        1.0  0.09136965519999764  0.056823046371199795  0.3559285537706245  1.0000
  H   H9        1.0  0.5297503596477924  0.42809272560842976  0.27244694747363946  1.0000
  H   H10       1.0  0.967984296844044  0.07224145908034528  0.7784317449628517  1.0000
  H   H11       1.0  0.4702506083907068  0.5719074462820474  0.7275506658534069  1.0000
  H   H12       1.0  0.03201601904180512  0.9277631933774162  0.2215757634999633  1.0000
  H   H13       1.0  0.5358791834397821  0.7984779825054106  0.4631086308548119  1.0000
  H   H14       1.0  0.9800117209326303  0.6959541548528351  0.9605533295648525  1.0000
  H   H15       1.0  0.4641177282073841  0.20151881161879  0.5368899601123543  1.0000
  H   H16       1.0  0.019985697322511015  0.30404714384499  0.0394472323310993  1.0000
  H   H17       1.0  0.42500274230943097  0.6175230123380757  0.4234317993565782  1.0000
  H   H18       1.0  0.08300825143727053  0.8811388129634068  0.9246846017565885  1.0000
  H   H19       1.0  0.5749929454108554  0.3824737814440058  0.5765677754692149  1.0000
  H   H20       1.0  0.9169917739067374  0.11886360072995221  0.0753179553284866  1.0000
  H   H21       1.0  0.46384058671289113  0.7627252025085342  0.29699384251386357  1.0000
  H   H22       1.0  0.04618194168310205  0.7397392424984875  0.794931142059653  1.0000
  H   H23       1.0  0.536157698786802  0.23727270964968747  0.7030067360227149  1.0000
  H   H24       1.0  0.9538191855905112  0.26026204370328543  0.20507043417376988  1.0000
  C   C1        1.0  0.8636920469821876  0.4440079034731782  0.7934782091058208  1.0000
  C   C2        1.0  0.6295224007772617  0.06008813262234009  0.28210761827500613  1.0000
  C   C3        1.0  0.1363150965474631  0.5559922498442803  0.2065204337981186  1.0000
  C   C4        1.0  0.3704779758938557  0.9399063933383972  0.7178919930435654  1.0000
  C   C5        1.0  0.6813131935766563  0.30849406283650893  0.9271762991375212  1.0000
  C   C6        1.0  0.8083471071523364  0.18076317837628864  0.43195840548136016  1.0000
  C   C7        1.0  0.3186979162297234  0.691497052276752  0.0728233897793586  1.0000
  C   C8        1.0  0.1916483086450356  0.8192313698801853  0.5680382009233611  1.0000
  C   C9        1.0  0.631887681972259  0.5020464046908658  0.2301821861959965  1.0000
  C   C10       1.0  0.8675769364401091  0.9967199640369985  0.7339933283060205  1.0000
  C   C11       1.0  0.3681098303517488  0.49795603198247573  0.7698153982579825  1.0000
  C   C12       1.0  0.13242459406314572  0.003284692143481001  0.2660122048198303  1.0000
  C   C13       1.0  0.5109073714656773  0.7113118695316771  0.3873854310660008  1.0000
  C   C14       1.0  0.0001758394364657255  0.7859577853851649  0.8862521174782927  1.0000
  C   C15       1.0  0.4890907734178286  0.28868492155404385  0.6126131675208767  1.0000
  C   C16       1.0  0.9998240452913479  0.21404350723569376  0.1137484596570815  1.0000
  S   S1        1.0  0.7057423462190828  0.6449992862723662  0.3479160306885162  1.0000
  S   S2        1.0  0.8008091228755774  0.8488368497648793  0.8500821402782035  1.0000
  S   S3        1.0  0.2942571725169431  0.35499862284736855  0.6520845554677663  1.0000
  S   S4        1.0  0.1991910151562237  0.15116669514279127  0.1499194223215667  1.0000
  N   N1        1.0  0.9508671180229628  0.4693626164526278  0.701897054980847  1.0000
  N   N2        1.0  0.5606442529990829  0.03522410285583531  0.1799645838077311  1.0000
  N   N3        1.0  0.04913336202648823  0.5306330441030199  0.29810057037408194  1.0000
  N   N4        1.0  0.4393554818030766  0.9647760720731217  0.8200330218996044  1.0000
  N   N5        1.0  0.7762856591415642  0.42980711520885967  0.9004936831934599  1.0000
  N   N6        1.0  0.6933528292067594  0.07523705433479934  0.4008014933230725  1.0000
  N   N7        1.0  0.22371495221461407  0.5701896697998875  0.0995049306328326  1.0000
  N   N8        1.0  0.30664508099167875  0.9247574777028974  0.599198102756084  1.0000
  N   N9        1.0  0.5894166486361743  0.20432357725615452  0.9584109749132778  1.0000
  N   N10       1.0  0.9143401157384831  0.27175981273974514  0.46906360915401263  1.0000
  N   N11       1.0  0.41057838790569434  0.7956788688747523  0.04158560282294129  1.0000
  N   N12       1.0  0.08565543136560903  0.7282358599698358  0.5309339857220791  1.0000
  O   O1        1.0  0.7524011441259972  0.558566113561419  0.47344834586115064  1.0000
  O   O2        1.0  0.7572843757638807  0.9260049704131678  0.9780489625855537  1.0000
  O   O3        1.0  0.2475995892274412  0.441431799281041  0.5265502649581748  1.0000
  O   O4        1.0  0.24271575295846054  0.07399857787510912  0.0219516085358791  1.0000
