data_image0
_chemical_formula_structural       Zn6H42C66N18O12
_chemical_formula_sum              "Zn6 H42 C66 N18 O12"
_cell_length_a       15.798505951001353
_cell_length_b       15.798513215112516
_cell_length_c       15.79851418697701
_cell_angle_alpha    100.86114217015451
_cell_angle_beta     100.86118544207395
_cell_angle_gamma    100.86115258853931

_space_group_name_H-M_alt    "P 1"
_space_group_IT_number       1

loop_
  _space_group_symop_operation_xyz
  'x, y, z'

loop_
  _atom_site_type_symbol
  _atom_site_label
  _atom_site_symmetry_multiplicity
  _atom_site_fract_x
  _atom_site_fract_y
  _atom_site_fract_z
  _atom_site_occupancy
  Zn  Zn1       1.0  0.572031584422895  0.9690095205810749  0.5880336756919179  1.0000
  Zn  Zn2       1.0  0.588033748438072  0.5720315758645994  0.9690093071718732  1.0000
  Zn  Zn3       1.0  0.9690095504581963  0.588033838520822  0.5720316228676339  1.0000
  Zn  Zn4       1.0  0.4279682599043896  0.03099074675446904  0.4119661865091189  1.0000
  Zn  Zn5       1.0  0.41196609588921973  0.42796869147095146  0.030990555029163078  1.0000
  Zn  Zn6       1.0  0.030990293869088203  0.41196642881472206  0.4279682393333957  1.0000
  H   H1        1.0  0.6575628851416797  0.16485105951075957  0.6359433245625183  1.0000
  H   H2        1.0  0.6359426723830455  0.6575620982149674  0.16485008745823396  1.0000
  H   H3        1.0  0.16485044983620165  0.6359424855507712  0.6575620003970784  1.0000
  H   H4        1.0  0.3424382844338042  0.8351495161726987  0.3640568459867239  1.0000
  H   H5        1.0  0.3640565096559881  0.3424373705083709  0.8351494989917894  1.0000
  H   H6        1.0  0.8351493951627661  0.3640564929082616  0.342437618650159  1.0000
  H   H7        1.0  0.646507966878609  0.2975888398121215  0.740799538446332  1.0000
  H   H8        1.0  0.7407988453306019  0.6465075370196091  0.29758790289236003  1.0000
  H   H9        1.0  0.2975884935005411  0.7407994324542815  0.6465075784143295  1.0000
  H   H10       1.0  0.35349320269687473  0.702411735871337  0.25920063210291744  1.0000
  H   H11       1.0  0.2592003363725865  0.3534925761419743  0.7024118051345595  1.0000
  H   H12       1.0  0.7024113511625886  0.2592001904430036  0.353492162209804  1.0000
  H   H13       1.0  0.5057975499216455  0.12094406001427427  0.873702300844009  1.0000
  H   H14       1.0  0.8737025394732143  0.5057973115868748  0.12094477028139046  1.0000
  H   H15       1.0  0.12094399941236841  0.8737026223218295  0.5057969281929003  1.0000
  H   H16       1.0  0.4942029573655802  0.8790557170569714  0.12629759395423437  1.0000
  H   H17       1.0  0.1262973042410493  0.4942035999095751  0.8790558463628739  1.0000
  H   H18       1.0  0.8790558452507612  0.12629700057546245  0.494202812431233  1.0000
  H   H19       1.0  0.525506514350198  0.9948918966621034  0.7633794673007654  1.0000
  H   H20       1.0  0.7633804071263556  0.5255069716172687  0.9948916442912006  1.0000
  H   H21       1.0  0.9948914599518093  0.7633806600426212  0.5255070307211938  1.0000
  H   H22       1.0  0.47449333025426915  0.005108370950800627  0.2366197620339321  1.0000
  H   H23       1.0  0.23661943720092896  0.47449329571828264  0.005108217909828723  1.0000
  H   H24       1.0  0.005108384039637301  0.23662025173118206  0.4744929530567389  1.0000
  H   H25       1.0  0.466656420651546  0.24806631136858215  0.9580065907357705  1.0000
  H   H26       1.0  0.9580060806818836  0.46665639858932206  0.24806603661763663  1.0000
  H   H27       1.0  0.2480659314292595  0.9580063594405388  0.4666564568390683  1.0000
  H   H28       1.0  0.5333434236757455  0.7519339559669617  0.041993271465258886  1.0000
  H   H29       1.0  0.041993763645408  0.5333438687462219  0.7519338255833998  1.0000
  H   H30       1.0  0.7519339129566874  0.04199326317939278  0.533343916651404  1.0000
  H   H31       1.0  0.6301054649419201  0.4196546424259895  0.8361680945747381  1.0000
  H   H32       1.0  0.8361680124103615  0.630105601884445  0.4196546724142891  1.0000
  H   H33       1.0  0.41965466380085564  0.8361679606357271  0.630105267069922  1.0000
  H   H34       1.0  0.36989504200946044  0.5803457790835156  0.16383192180040143  1.0000
  H   H35       1.0  0.16383249454102616  0.36989481962505993  0.5803453439608504  1.0000
  H   H36       1.0  0.5803458434863702  0.16383181643551847  0.3698946277283214  1.0000
  H   H37       1.0  0.7561305514884681  0.7916615769599391  0.5998305285413679  1.0000
  H   H38       1.0  0.599829837377726  0.7561307517861735  0.791661340782795  1.0000
  H   H39       1.0  0.7916614587032386  0.599829512810537  0.7561310156169014  1.0000
  H   H40       1.0  0.2438686298788824  0.2083391806399106  0.400169301062455  1.0000
  H   H41       1.0  0.4001693443841248  0.24386871665980442  0.2083388785335671  1.0000
  H   H42       1.0  0.20834037294197572  0.4001712164921686  0.2438705748391214  1.0000
  C   C1        1.0  0.6247560579065523  0.1581909769804427  0.6900546383682311  1.0000
  C   C2        1.0  0.6900543850223785  0.6247562258566363  0.15819091472521055  1.0000
  C   C3        1.0  0.1581909715876435  0.6900546031462441  0.6247554461406324  1.0000
  C   C4        1.0  0.37524444938067353  0.8418088000908028  0.3099452564300051  1.0000
  C   C5        1.0  0.309945459304906  0.37524404147890783  0.8418089474758188  1.0000
  C   C6        1.0  0.8418088733526687  0.3099450200284012  0.3752436616171622  1.0000
  C   C7        1.0  0.6181517570425399  0.23210200070280254  0.748980490338937  1.0000
  C   C8        1.0  0.7489799821758967  0.6181511295483447  0.23210178199946097  1.0000
  C   C9        1.0  0.2321021362610693  0.7489805589441901  0.6181513395749505  1.0000
  C   C10       1.0  0.3818487499675031  0.7678977760910827  0.25102003732563827  1.0000
  C   C11       1.0  0.2510198624872332  0.3818484933489473  0.7678979586246726  1.0000
  C   C12       1.0  0.7678977080662223  0.251019708391361  0.381848522626079  1.0000
  C   C13       1.0  0.5722969194472398  0.22201449087305042  0.8162107389423949  1.0000
  C   C14       1.0  0.816210284691266  0.5722967875909859  0.22201438568077947  1.0000
  C   C15       1.0  0.22201549523359185  0.8162108728945157  0.5722966549015993  1.0000
  C   C16       1.0  0.4277029252158897  0.7779851320242416  0.18378900168173826  1.0000
  C   C17       1.0  0.18378955991320112  0.42770348002191855  0.7779848436539183  1.0000
  C   C18       1.0  0.7779850123308165  0.18378890445409013  0.42770260703030516  1.0000
  C   C19       1.0  0.5400569821910608  0.1344030342044178  0.8222353016379245  1.0000
  C   C20       1.0  0.8222349336672964  0.5400568162318322  0.1344026594875132  1.0000
  C   C21       1.0  0.13440291647761882  0.8222354607797017  0.5400570069456805  1.0000
  C   C22       1.0  0.45994286213622365  0.8655972331311262  0.17776456056310516  1.0000
  C   C23       1.0  0.1777642483717372  0.45994265249149896  0.8655969269625102  1.0000
  C   C24       1.0  0.8655969281855107  0.1777641621175832  0.4599427336784529  1.0000
  C   C25       1.0  0.5499189902036932  0.06362230157947829  0.7611294489645174  1.0000
  C   C26       1.0  0.7611293726793562  0.5499189768923715  0.0636219564504757  1.0000
  C   C27       1.0  0.0636221550820011  0.7611294129914513  0.5499186275840059  1.0000
  C   C28       1.0  0.4500815167476945  0.9363781199300264  0.238870567410622  1.0000
  C   C29       1.0  0.23887047164792824  0.4500812904431726  0.9363779057505537  1.0000
  C   C30       1.0  0.9363783518693867  0.23887100851805343  0.4500813887911335  1.0000
  C   C31       1.0  0.5566034873715893  0.29834396513048483  0.8728324352282114  1.0000
  C   C32       1.0  0.8728317416555383  0.5566038915883313  0.29834439581231453  1.0000
  C   C33       1.0  0.2983440962693678  0.8728329747676755  0.5566036365731719  1.0000
  C   C34       1.0  0.44339569466743717  0.7016555035928462  0.12716715122181202  1.0000
  C   C35       1.0  0.1271681023359079  0.44339702018547206  0.7016555879656181  1.0000
  C   C36       1.0  0.7016564100689919  0.12716809090272826  0.44339713424519533  1.0000
  C   C37       1.0  0.5037938886436919  0.3012571525582857  0.9355932211108282  1.0000
  C   C38       1.0  0.9355930626406562  0.5037944309432378  0.30125777727141667  1.0000
  C   C39       1.0  0.30125718330788953  0.9355931801546333  0.5037942251652581  1.0000
  C   C40       1.0  0.49620529339533453  0.6987423161650524  0.06440636533919535  1.0000
  C   C41       1.0  0.0644067816866283  0.49620583639230637  0.6987420849296127  1.0000
  C   C42       1.0  0.6987426613552402  0.0644064427426586  0.49620551545887537  1.0000
  C   C43       1.0  0.5862221969969994  0.3881202575187431  0.8722380682004668  1.0000
  C   C44       1.0  0.8722372806153305  0.5862222649428617  0.3881199544992526  1.0000
  C   C45       1.0  0.38812001451485406  0.872237848213473  0.5862222773762298  1.0000
  C   C46       1.0  0.41377764733028505  0.6118800098168081  0.12776179400056265  1.0000
  C   C47       1.0  0.12776256337611613  0.41377864683094157  0.6118800292786801  1.0000
  C   C48       1.0  0.6118804927723718  0.12776192885777257  0.4137776174220066  1.0000
  C   C49       1.0  0.6248297724193465  0.8491318823701164  0.6683600508439582  1.0000
  C   C50       1.0  0.6683597216110045  0.6248300441914197  0.8491323067496879  1.0000
  C   C51       1.0  0.849131612700326  0.6683595043326563  0.624829205165014  1.0000
  C   C52       1.0  0.3751694090653147  0.15086758579850115  0.33164080133873597  1.0000
  C   C53       1.0  0.3316407850631933  0.3751703770407246  0.1508683424917834  1.0000
  C   C54       1.0  0.15086823223998647  0.3316401188419889  0.3751699025927806  1.0000
  C   C55       1.0  0.6734556869184374  0.7816729285034116  0.6936718982094233  1.0000
  C   C56       1.0  0.6936721070596975  0.6734564260851459  0.7816732895266724  1.0000
  C   C57       1.0  0.7816720690259589  0.6936718770088035  0.6734556477000524  1.0000
  C   C58       1.0  0.32654349484341344  0.2183265399425665  0.30632832110693897  1.0000
  C   C59       1.0  0.30632839900147973  0.32654463930790467  0.2183281141580338  1.0000
  C   C60       1.0  0.21832777502414305  0.3063283900493873  0.326544847367316  1.0000
  C   C61       1.0  0.7388528386381098  0.7590690401474234  0.6511483505473237  1.0000
  C   C62       1.0  0.6511466097495456  0.7388530881579956  0.7590681433602454  1.0000
  C   C63       1.0  0.759067934164989  0.6511468918748379  0.7388531204773016  1.0000
  C   C64       1.0  0.2611463428465584  0.2409304280211942  0.34885250163537046  1.0000
  C   C65       1.0  0.34885257262532593  0.26114573612707664  0.2409313215128819  1.0000
  C   C66       1.0  0.2409312475968548  0.3488525765711401  0.2611470988390606  1.0000
  N   N1        1.0  0.5900263928103372  0.07472715176962198  0.6943634640935271  1.0000
  N   N2        1.0  0.6943630876712988  0.59002581814687  0.07472682111081501  1.0000
  N   N3        1.0  0.07472645801063751  0.6943634879213649  0.5900259056647599  1.0000
  N   N4        1.0  0.40997411447688853  0.9252726253016238  0.3056364307047161  1.0000
  N   N5        1.0  0.3056360943677349  0.4099736505764611  0.9252727653392154  1.0000
  N   N6        1.0  0.9252733863166472  0.3056367794141792  0.40997395653626967  1.0000
  N   N7        1.0  0.55291041797571  0.43911665273174094  0.928993788282085  1.0000
  N   N8        1.0  0.9289935456048114  0.5529116178409981  0.43911690169654355  1.0000
  N   N9        1.0  0.43911633939195843  0.9289938188632406  0.5529109800318396  1.0000
  N   N10       1.0  0.4470894266874198  0.5608829701655438  0.07100595234204832  1.0000
  N   N11       1.0  0.07100629838663512  0.4470892939328052  0.5608830820813892  1.0000
  N   N12       1.0  0.5608828423112302  0.07100629429834987  0.44708872799508736  1.0000
  N   N13       1.0  0.502033879594606  0.3856273110352291  0.968506201317467  1.0000
  N   N14       1.0  0.9685059420241375  0.5020346865907898  0.3856277372206165  1.0000
  N   N15       1.0  0.3856273566229476  0.9685062385878922  0.5020341101362362  1.0000
  N   N16       1.0  0.4979653024444275  0.6143721576881092  0.031493385132563424  1.0000
  N   N17       1.0  0.0314939019673091  0.49796622518301353  0.614372246557316  1.0000
  N   N18       1.0  0.614372487704344  0.031494028747651795  0.4979657520647933  1.0000
  O   O1        1.0  0.64834437937229  0.886563390195015  0.6069101744589886  1.0000
  O   O2        1.0  0.6069091457942833  0.648343253709527  0.8865629989062354  1.0000
  O   O3        1.0  0.8865623395912509  0.6069093385537416  0.6483423978218994  1.0000
  O   O4        1.0  0.3516561270247323  0.1134370307597763  0.39309110764881433  1.0000
  O   O5        1.0  0.3930913605440766  0.3516578119608767  0.11343777191213893  1.0000
  O   O6        1.0  0.1134368427249655  0.39309013044695024  0.3516565557617923  1.0000
  O   O7        1.0  0.5639860435658619  0.8667659059602075  0.7046601123989262  1.0000
  O   O8        1.0  0.7046594404813291  0.5639861876602198  0.8667661688222594  1.0000
  O   O9        1.0  0.866766448661096  0.7046614214705827  0.563986843455595  1.0000
  O   O10       1.0  0.43601313758296106  0.13323420664666943  0.29534086136067117  1.0000
  O   O11       1.0  0.2953397415577044  0.4360132810631185  0.1332334176277641  1.0000
  O   O12       1.0  0.13323405734142574  0.29534028863808004  0.43601404893967544  1.0000
