data_image0
_chemical_formula_structural       K2Ag2H20C14S2O18
_chemical_formula_sum              "K2 Ag2 H20 C14 S2 O18"
_cell_length_a       6.886869750022559
_cell_length_b       8.234581408533472
_cell_length_c       10.773779834745385
_cell_angle_alpha    79.61373891246971
_cell_angle_beta     85.73389202275902
_cell_angle_gamma    90.73705667714034

_space_group_name_H-M_alt    "P 1"
_space_group_IT_number       1

loop_
  _space_group_symop_operation_xyz
  'x, y, z'

loop_
  _atom_site_type_symbol
  _atom_site_label
  _atom_site_symmetry_multiplicity
  _atom_site_fract_x
  _atom_site_fract_y
  _atom_site_fract_z
  _atom_site_occupancy
  K   K1        1.0  0.7213212071091135  0.4752464142753681  0.06992293310072029  1.0000
  K   K2        1.0  0.2786768144861043  0.5247543491318538  0.9300770589162184  1.0000
  Ag  Ag1       1.0  0.9979282890979776  0.021881906185519998  0.36594524538533335  1.0000
  Ag  Ag2       1.0  0.002071166606448606  0.978118884608307  0.6340528112140973  1.0000
  H   H1        1.0  0.3550323166996209  0.19168261775828907  0.1291295133432726  1.0000
  H   H2        1.0  0.6449685887952087  0.8083169283912  0.8708704878608202  1.0000
  H   H3        1.0  0.29770508135196383  0.2876658259911409  0.2365834305848225  1.0000
  H   H4        1.0  0.7022943854336958  0.7123349555442076  0.7634155548883967  1.0000
  H   H5        1.0  0.8232320858740395  0.8406860273557369  0.09285422220651901  1.0000
  H   H6        1.0  0.17677027589245142  0.15931352766340004  0.9071457013276429  1.0000
  H   H7        1.0  0.04889216739373841  0.8446901490995132  0.10350124456693517  1.0000
  H   H8        1.0  0.9511101943727523  0.15530940591962408  0.8964986789672267  1.0000
  H   H9        1.0  0.9617713291732812  0.17004678613223934  0.0911527610333138  1.0000
  H   H10       1.0  0.03822959388403999  0.8299540042727571  0.9088461467699602  1.0000
  H   H11       1.0  0.7292392306266888  0.48278451831060204  0.7348324800156902  1.0000
  H   H12       1.0  0.2707602185964717  0.5172150189692459  0.2651675988583477  1.0000
  H   H13       1.0  0.6415140950251512  0.2204468884718978  0.36147463954538483  1.0000
  H   H14       1.0  0.3584853366355176  0.7795514045524429  0.6385265327294647  1.0000
  H   H15       1.0  0.5500692815467119  0.06433164042920937  0.5804885113814677  1.0000
  H   H16       1.0  0.4499272089269084  0.93566539985882  0.41951298076028815  1.0000
  H   H17       1.0  0.8373165034245745  0.6322353728714345  0.31672960490919877  1.0000
  H   H18       1.0  0.16268435586404453  0.3677616940255248  0.683271654222743  1.0000
  H   H19       1.0  0.7632689844057624  0.0954217503688071  0.16166414594511738  1.0000
  H   H20       1.0  0.2367304934611241  0.904579021908063  0.8383357684018905  1.0000
  C   C1        1.0  0.6366042602392595  0.26566575060099495  0.6706520162897432  1.0000
  C   C2        1.0  0.3633952176276268  0.7343350216758677  0.32934789805725734  1.0000
  C   C3        1.0  0.7100350646077584  0.4261786372858721  0.6529275588207426  1.0000
  C   C4        1.0  0.28996440677786234  0.5738208814770045  0.3470743778008655  1.0000
  C   C5        1.0  0.759157737036837  0.5159313150179514  0.5314027264398149  1.0000
  C   C6        1.0  0.24084459148596687  0.484068267776628  0.4685944104729742  1.0000
  C   C7        1.0  0.7384127407407988  0.4383313919012294  0.4258108752354913  1.0000
  C   C8        1.0  0.2615866798386435  0.5616669103815892  0.5741893681655696  1.0000
  C   C9        1.0  0.662585746671958  0.2753508745034949  0.4444232090840572  1.0000
  C   C10       1.0  0.3374166548194921  0.7246499062541858  0.5555774787968559  1.0000
  C   C11       1.0  0.6117586660040004  0.18951083429724486  0.5660139906807657  1.0000
  C   C12       1.0  0.3882408118628859  0.810489937979618  0.433985923666242  1.0000
  C   C13       1.0  0.8279709336431935  0.690317791935186  0.5156455544061487  1.0000
  C   C14       1.0  0.17202996077040214  0.3096817634727813  0.4843535179241627  1.0000
  S   S1        1.0  0.5818300075800451  0.159762396571729  0.8279710181992855  1.0000
  S   S2        1.0  0.41816945920560766  0.8402383849636264  0.17202796727393382  1.0000
  O   O1        1.0  0.36669424079094165  0.30174575249672125  0.1513228145512926  1.0000
  O   O2        1.0  0.6333037410793239  0.6982537851719568  0.8486764131188878  1.0000
  O   O3        1.0  0.9443679616844137  0.7871078313638973  0.06872190612818942  1.0000
  O   O4        1.0  0.0556329438104157  0.2128917147855915  0.9312780950759105  1.0000
  O   O5        1.0  0.8742219369105441  0.16914589576180813  0.1693357812502967  1.0000
  O   O6        1.0  0.1257789861467771  0.8308548946431883  0.8306631265529844  1.0000
  O   O7        1.0  0.7883109115294432  0.5183959925147904  0.3071894043624184  1.0000
  O   O8        1.0  0.21169290650870917  0.4816035713739949  0.6928104415017983  1.0000
  O   O9        1.0  0.8818701134465454  0.7648149519091517  0.4023951302694329  1.0000
  O   O10       1.0  0.1181308096107756  0.23518583849584468  0.5976037775338483  1.0000
  O   O11       1.0  0.829476111103034  0.7567254067887886  0.6134016825568835  1.0000
  O   O12       1.0  0.1705262728259171  0.24327412971338447  0.3866000987248555  1.0000
  O   O13       1.0  0.7393411019094317  0.040136150194847196  0.8540691469937585  1.0000
  O   O14       1.0  0.26065400066119787  0.9598633419590995  0.14593302263767075  1.0000
  O   O15       1.0  0.5790053845053721  0.28556519377745093  0.9082165416932283  1.0000
  O   O16       1.0  0.4209955496331759  0.7144355873690671  0.09178329498384132  1.0000
  O   O17       1.0  0.3906087684095993  0.07599662880327429  0.830403726107285  1.0000
  O   O18       1.0  0.6093907316197473  0.9240041249566315  0.16959804598729286  1.0000
