data_image0
_chemical_formula_structural       Mg4H32C24N8O24
_chemical_formula_sum              "Mg4 H32 C24 N8 O24"
_cell_length_a       7.445133064015459
_cell_length_b       10.65563855110383
_cell_length_c       12.05667175851985
_cell_angle_alpha    103.79609269469218
_cell_angle_beta     90.00006240776024
_cell_angle_gamma    90.00019127434858

_space_group_name_H-M_alt    "P 1"
_space_group_IT_number       1

loop_
  _space_group_symop_operation_xyz
  'x, y, z'

loop_
  _atom_site_type_symbol
  _atom_site_label
  _atom_site_symmetry_multiplicity
  _atom_site_fract_x
  _atom_site_fract_y
  _atom_site_fract_z
  _atom_site_occupancy
  Mg  Mg1       1.0  0.9983432550848691  0.4306642137496155  0.1815189371377031  1.0000
  Mg  Mg2       1.0  0.49835011873528856  0.0693428958226008  0.318476791049001  1.0000
  Mg  Mg3       1.0  0.0016526595605554997  0.5693347680873373  0.8184826989583628  1.0000
  Mg  Mg4       1.0  0.501648482228667  0.930657027906882  0.6815217207147481  1.0000
  H   H1        1.0  0.6739180742891334  0.5211850272553135  0.14702582460519403  1.0000
  H   H2        1.0  0.17392821600245162  0.9788164899228492  0.352976642461293  1.0000
  H   H3        1.0  0.3260791835142244  0.47881488425189633  0.8529710257826861  1.0000
  H   H4        1.0  0.8260717281252496  0.021183476579920996  0.647027684115713  1.0000
  H   H5        1.0  0.8067712768323788  0.5396275962234114  0.048362787009622814  1.0000
  H   H6        1.0  0.30677610744576367  0.9603733128066593  0.45163800188311126  1.0000
  H   H7        1.0  0.19323538309234323  0.4603742601764934  0.951636121591143  1.0000
  H   H8        1.0  0.6932278661514317  0.03962468438133019  0.5483609437402777  1.0000
  H   H9        1.0  0.014581716746150199  0.687875929920459  0.18859339542569842  1.0000
  H   H10       1.0  0.5145731573349508  0.8121251002129666  0.31140303899055505  1.0000
  H   H11       1.0  0.9854262863379122  0.31212592648132187  0.8114055131759912  1.0000
  H   H12       1.0  0.4854281299448289  0.1878729091916824  0.688597568005953  1.0000
  H   H13       1.0  0.1882938305431736  0.6533585938984956  0.2597787956926254  1.0000
  H   H14       1.0  0.6882880106148334  0.8466361868110395  0.2402206407304703  1.0000
  H   H15       1.0  0.8117087998845705  0.3466355318590431  0.7402185255793441  1.0000
  H   H16       1.0  0.31170924719877746  0.15336665423595258  0.7597809583420626  1.0000
  H   H17       1.0  0.7226039087419454  0.5205875805277529  0.6043976080586688  1.0000
  H   H18       1.0  0.22261008696033707  0.9794115163917568  0.8955977036520365  1.0000
  H   H19       1.0  0.2773920059087017  0.47941428196737224  0.39560213122223337  1.0000
  H   H20       1.0  0.7773885139977638  0.0205855205693481  0.10440187423940019  1.0000
  H   H21       1.0  0.9339663945132912  0.6952478849816116  0.3944116855235791  1.0000
  H   H22       1.0  0.4339619368605839  0.8047562959888451  0.10559236455805628  1.0000
  H   H23       1.0  0.066034892763966  0.30475009998222896  0.6055855987230174  1.0000
  H   H24       1.0  0.5660339777902195  0.19524462461750147  0.8944104990570023  1.0000
  H   H25       1.0  0.9076688360194822  0.7154004142602018  0.5451709167434515  1.0000
  H   H26       1.0  0.4076674901007705  0.7845924770944135  0.9548290738622072  1.0000
  H   H27       1.0  0.09233110809369552  0.28459563804258187  0.4548259706707114  1.0000
  H   H28       1.0  0.5923270813889517  0.21540748329066872  0.0451744220236492  1.0000
  H   H29       1.0  0.7208420641461403  0.7321837216468481  0.4611714978485182  1.0000
  H   H30       1.0  0.22083868068999377  0.7678227335488472  0.038828702686309745  1.0000
  H   H31       1.0  0.2791592231281257  0.26781329087719286  0.5388247572948471  1.0000
  H   H32       1.0  0.7791599203019146  0.2321878381367739  0.9611744837131866  1.0000
  C   C1        1.0  0.7821791236145048  0.3324472795445104  0.35524773273307625  1.0000
  C   C2        1.0  0.2821888676437824  0.16755342936483686  0.14474650944799808  1.0000
  C   C3        1.0  0.21781679102618062  0.6675497696332542  0.6447535065314793  1.0000
  C   C4        1.0  0.717811076497206  0.8324542127828637  0.8552519282677622  1.0000
  C   C5        1.0  0.7205806097657684  0.34704079696003737  0.46713213231345924  1.0000
  C   C6        1.0  0.2205860911891904  0.15295884719278519  0.032871795488745185  1.0000
  C   C7        1.0  0.2794179911989687  0.6529581909908657  0.5328703344719229  1.0000
  C   C8        1.0  0.7794165392587756  0.8470430214219037  0.967128774484223  1.0000
  C   C9        1.0  0.8104773385781241  0.5371005049607048  0.44056212092478825  1.0000
  C   C10       1.0  0.31048428525267724  0.9629042369521772  0.05943365188655039  1.0000
  C   C11       1.0  0.18952126238408343  0.46289845854938255  0.5594370231106822  1.0000
  C   C12       1.0  0.6895196883582599  0.037098610214386  0.940568777878049  1.0000
  C   C13       1.0  0.8045679185701288  0.2226867874802067  0.2533530501532297  1.0000
  C   C14       1.0  0.304564887130134  0.27731695003475204  0.24665095543583956  1.0000
  C   C15       1.0  0.1954347118702486  0.7773112341467155  0.7466492182191543  1.0000
  C   C16       1.0  0.6954377433143576  0.7226829981411599  0.7533508790805711  1.0000
  C   C17       1.0  0.6545856556137793  0.2552010051610054  0.5318691003046325  1.0000
  C   C18       1.0  0.15457743055360143  0.24480070007392385  0.9681243539990233  1.0000
  C   C19       1.0  0.3454129453432203  0.7447950776909096  0.46813194054600155  1.0000
  C   C20       1.0  0.8454198272521225  0.7552001777628804  0.03187269480461201  1.0000
  C   C21       1.0  0.8456321867761858  0.6776151879055092  0.46163134439206027  1.0000
  C   C22       1.0  0.34562636735405766  0.8223916274357564  0.03837068811380114  1.0000
  C   C23       1.0  0.15437044366515104  0.3223847297193885  0.5383663366869698  1.0000
  C   C24       1.0  0.6543668609869115  0.17761315237501657  0.9616321384749683  1.0000
  N   N1        1.0  0.8393241002549701  0.4510596238853141  0.3414492594922649  1.0000
  N   N2        1.0  0.3393279464913448  0.04895188007801469  0.1585480740671699  1.0000
  N   N3        1.0  0.16067584386721728  0.548939345736855  0.6585507152316055  1.0000
  N   N4        1.0  0.6606760271129559  0.9510490160987575  0.841451466803484  1.0000
  N   N5        1.0  0.7408962305231837  0.47661484881372457  0.5179851273120661  1.0000
  N   N6        1.0  0.24090043908972092  0.0233900082910736  0.9820107016155362  1.0000
  N   N7        1.0  0.25910237044202944  0.5233850871361624  0.48201504582664256  1.0000
  N   N8        1.0  0.7590995050436788  0.9766137868688533  0.017989434499632827  1.0000
  O   O1        1.0  0.8978959991362673  0.24725585037366218  0.17326567439214097  1.0000
  O   O2        1.0  0.39788491454333313  0.25275386588393195  0.3267288503354493  1.0000
  O   O3        1.0  0.10210528814651101  0.7527431314707798  0.8267359617075981  1.0000
  O   O4        1.0  0.6021136864272519  0.747248008835342  0.6732725503222454  1.0000
  O   O5        1.0  0.7328268325073708  0.112121175686184  0.2463899828142075  1.0000
  O   O6        1.0  0.23281760423616757  0.38788328535629546  0.253608308298432  1.0000
  O   O7        1.0  0.26717714109582863  0.8878787663813982  0.7536110210156437  1.0000
  O   O8        1.0  0.7671836830638341  0.6121224669055038  0.7463955473990751  1.0000
  O   O9        1.0  0.618443616385541  0.13934602069939217  0.47623956723664657  1.0000
  O   O10       1.0  0.11843392183777719  0.3606523112315116  0.0237557156354953  1.0000
  O   O11       1.0  0.38155095510702347  0.8606558540142616  0.5237618334182912  1.0000
  O   O12       1.0  0.8815593064881925  0.6393476063802835  0.9762419654371043  1.0000
  O   O13       1.0  0.6384531352873851  0.29272376919267634  0.6399507528429922  1.0000
  O   O14       1.0  0.1384445772435186  0.20727212363600234  0.8600456423488864  1.0000
  O   O15       1.0  0.3615481519846569  0.7072713351129919  0.36004842821876787  1.0000
  O   O16       1.0  0.8615553668832591  0.7927297205341404  0.139951604872337  1.0000
  O   O17       1.0  0.77164353046129  0.4799569014543081  0.0983156097242599  1.0000
  O   O18       1.0  0.27165566341685116  0.020041900416614997  0.4016856974112599  1.0000
  O   O19       1.0  0.22835775681485876  0.5200401294003427  0.9016831374815412  1.0000
  O   O20       1.0  0.7283469670222686  0.979956108989903  0.5983149095861648  1.0000
  O   O21       1.0  0.08687174951915469  0.6179271042790687  0.20870377150525599  1.0000
  O   O22       1.0  0.5868661683599968  0.88206829888248  0.2912874178071689  1.0000
  O   O23       1.0  0.9131295377664727  0.38207379189395135  0.7912957693635647  1.0000
  O   O24       1.0  0.413127059960118  0.1179287319609372  0.7087113293931111  1.0000
