data_image0
_chemical_formula_structural       Zn2H44C84N6O16
_chemical_formula_sum              "Zn2 H44 C84 N6 O16"
_cell_length_a       11.02669039567794
_cell_length_b       14.676859788799934
_cell_length_c       15.76473263984367
_cell_angle_alpha    87.85552297615058
_cell_angle_beta     84.76727212877466
_cell_angle_gamma    88.38544214033742

_space_group_name_H-M_alt    "P 1"
_space_group_IT_number       1

loop_
  _space_group_symop_operation_xyz
  'x, y, z'

loop_
  _atom_site_type_symbol
  _atom_site_label
  _atom_site_symmetry_multiplicity
  _atom_site_fract_x
  _atom_site_fract_y
  _atom_site_fract_z
  _atom_site_occupancy
  Zn  Zn1       1.0  0.49126905101098123  0.5921497229002242  0.5032846407220151  1.0000
  Zn  Zn2       1.0  0.5012464307091377  0.3980535422829306  0.4982119912533848  1.0000
  H   H1        1.0  0.7683846187721599  0.6627824956998437  0.5636496978435731  1.0000
  H   H2        1.0  0.2135626909688213  0.33106663003766806  0.434296122484902  1.0000
  H   H3        1.0  0.21088450552970528  0.6697006715223637  0.47564377667229973  1.0000
  H   H4        1.0  0.7881882048152348  0.323449028068609  0.5685417264500006  1.0000
  H   H5        1.0  0.3953239169764942  0.6840813479451101  0.1190626517016469  1.0000
  H   H6        1.0  0.39248344929271883  0.8434007989528141  0.16744864140986954  1.0000
  H   H7        1.0  0.5799742369515356  0.9353765340982035  0.1436002968752135  1.0000
  H   H8        1.0  0.7714549901004872  0.8652993804964025  0.07685977775649629  1.0000
  H   H9        1.0  0.7730081002276918  0.706975991207777  0.0263870291466759  1.0000
  H   H10       1.0  0.4924717539023149  0.3398155525579298  0.8086433791524357  1.0000
  H   H11       1.0  0.583986882128947  0.20206226903115987  0.7437569680778537  1.0000
  H   H12       1.0  0.7392227276820762  0.10835806371969879  0.8158748696912781  1.0000
  H   H13       1.0  0.7998675959769342  0.1555906790578021  0.9565999514222838  1.0000
  H   H14       1.0  0.7136669632927308  0.2981518162707317  0.019194244866923796  1.0000
  H   H15       1.0  0.7965798480343481  0.5964767736979439  0.833399144476644  1.0000
  H   H16       1.0  0.8798736560172528  0.7306775861210753  0.7492556894849329  1.0000
  H   H17       1.0  0.7643156119045074  0.878992637060051  0.7518146881721676  1.0000
  H   H18       1.0  0.5637931916498857  0.891346573088903  0.8386281270326564  1.0000
  H   H19       1.0  0.4829117985999217  0.7583236062176085  0.9242381206919605  1.0000
  H   H20       1.0  0.5935824177542414  0.3525172693086916  0.2008878649439652  1.0000
  H   H21       1.0  0.47778920818744547  0.2363974397417152  0.2870986067554995  1.0000
  H   H22       1.0  0.3010145744254658  0.1635012960626554  0.23142636458486276  1.0000
  H   H23       1.0  0.24308475326085943  0.2091949037224481  0.08561428063241291  1.0000
  H   H24       1.0  0.356477444197715  0.3296518704295437  0.0004069194961005021  1.0000
  H   H25       1.0  0.5546889628190215  0.0090285232854868  0.2702008412066021  1.0000
  H   H26       1.0  0.663174126161806  0.08668036981306672  0.14396292711051473  1.0000
  H   H27       1.0  0.809716082511649  0.208505912623565  0.16343424557575056  1.0000
  H   H28       1.0  0.8429520236365846  0.2548367211953746  0.31008604841374415  1.0000
  H   H29       1.0  0.7346591174465257  0.1775445485425067  0.4355363017959206  1.0000
  H   H30       1.0  0.19144968928014086  0.9759191637914953  0.6258057548363355  1.0000
  H   H31       1.0  0.06593712504141541  0.8862864142457739  0.7344270731041078  1.0000
  H   H32       1.0  0.15776652342565003  0.754281923849014  0.8124360209593959  1.0000
  H   H33       1.0  0.37871426878684383  0.7140662720467645  0.7807362745991995  1.0000
  H   H34       1.0  0.505849748670535  0.8068114747371952  0.6761302655739742  1.0000
  H   H35       1.0  0.2726663881141533  0.18630701511106912  0.5602571874721678  1.0000
  H   H36       1.0  0.1739554758950845  0.2765710709160275  0.677931116399975  1.0000
  H   H37       1.0  0.2175818394295206  0.23882479725607195  0.8280469644418602  1.0000
  H   H38       1.0  0.3643382712857246  0.11198338700214801  0.8582728770690764  1.0000
  H   H39       1.0  0.4637016960101619  0.0222786315548618  0.7401391429804747  1.0000
  H   H40       1.0  0.5202020842609656  0.8006155003322135  0.34368364503927046  1.0000
  H   H41       1.0  0.6654320275230674  0.7028523065516339  0.2588815281205612  1.0000
  H   H42       1.0  0.8875721249863489  0.7348355199955848  0.2466715200720273  1.0000
  H   H43       1.0  0.9617061809420447  0.8663921409372292  0.3227242691658034  1.0000
  H   H44       1.0  0.8168437877728535  0.9618806496090002  0.41066506292519733  1.0000
  C   C1        1.0  0.5262633833757491  0.5210165253878856  0.2476880369310592  1.0000
  C   C2        1.0  0.5340429597173468  0.4981086730339754  0.7440161523716711  1.0000
  C   C3        1.0  0.5241594004262425  0.5115511575822822  0.3389329801274243  1.0000
  C   C4        1.0  0.49334968451014294  0.4895168832063847  0.6606133438862117  1.0000
  C   C5        1.0  0.7291770959797218  0.4932536648756738  0.5154948715047283  1.0000
  C   C6        1.0  0.26386653968204143  0.4934405222632279  0.4906619320688677  1.0000
  C   C7        1.0  0.5815335528570741  0.5030629364051223  0.9036952936894167  1.0000
  C   C8        1.0  0.5465387600655376  0.5156604616411258  0.08042997260108821  1.0000
  C   C9        1.0  0.49484934077901954  0.8046902645974542  0.5115139969796302  1.0000
  C   C10       1.0  0.5047570934495906  0.18369706709295738  0.4970408496479878  1.0000
  C   C11       1.0  0.5676256573887671  0.5009249078986358  0.8154873723916369  1.0000
  C   C12       1.0  0.5316987405644724  0.5218528692918909  0.1701001735771541  1.0000
  C   C13       1.0  0.8645989876622765  0.6638045520921523  0.541917223800219  1.0000
  C   C14       1.0  0.12281089150506122  0.3305024452405617  0.4674815187218471  1.0000
  C   C15       1.0  0.1148772179325874  0.6669252086170798  0.49758317352917913  1.0000
  C   C16       1.0  0.8788747720292702  0.32665468067992254  0.535383065340632  1.0000
  C   C17       1.0  0.9243978124621818  0.744296525492075  0.5399682599923636  1.0000
  C   C18       1.0  0.06315571360701003  0.25007352975097763  0.4772346489414403  1.0000
  C   C19       1.0  0.0505613612796125  0.7466488564571208  0.5120077638756015  1.0000
  C   C20       1.0  0.9437086099818971  0.24733766045758904  0.5206228365831365  1.0000
  C   C21       1.0  0.058371554502805616  0.5802120630777381  0.5054787116942236  1.0000
  C   C22       1.0  0.933614362998263  0.41331693161645694  0.5151276284857857  1.0000
  C   C23       1.0  0.9269706418575367  0.5795201538203542  0.521551654384055  1.0000
  C   C24       1.0  0.06334929734476451  0.4143652939548589  0.4940030070047711  1.0000
  C   C25       1.0  0.1261621176074144  0.4971297819103385  0.4936244071147087  1.0000
  C   C26       1.0  0.8651040368848297  0.4960489971265076  0.5210583686171547  1.0000
  C   C27       1.0  0.5009981604419805  0.901052179734279  0.5096317117414983  1.0000
  C   C28       1.0  0.5042777536479903  0.0870322826046248  0.5015068315417608  1.0000
  C   C29       1.0  0.5749811335739353  0.9433342801666456  0.4420263196066898  1.0000
  C   C30       1.0  0.4366850894648521  0.044281389150540904  0.5722191426257481  1.0000
  C   C31       1.0  0.43218415645065983  0.9484797675864272  0.5750250824494574  1.0000
  C   C32       1.0  0.5725018408033621  0.03929275038724  0.4357763939101816  1.0000
  C   C33       1.0  0.5950911119127722  0.5884892143665822  0.9405747981218369  1.0000
  C   C34       1.0  0.5371571768059198  0.4291500778978872  0.043474410543446106  1.0000
  C   C35       1.0  0.5781778523843997  0.5948144084835078  0.02957194433194841  1.0000
  C   C36       1.0  0.5666478977628912  0.42140673326159833  0.9550389158718104  1.0000
  C   C37       1.0  0.5839709564660751  0.6851118324398087  0.0686767788930851  1.0000
  C   C38       1.0  0.4778501080825349  0.7239055216908312  0.11012051457542783  1.0000
  C   C39       1.0  0.4762231277537623  0.813560397962405  0.13675568114912554  1.0000
  C   C40       1.0  0.5811907269928084  0.8651395694348026  0.12341865768969741  1.0000
  C   C41       1.0  0.6885559218491933  0.8259464184582158  0.0855026603209836  1.0000
  C   C42       1.0  0.6899597615436974  0.7366240339529498  0.058147867331335604  1.0000
  C   C43       1.0  0.5981891079942444  0.33093585128089126  0.9181434533464525  1.0000
  C   C44       1.0  0.5608766961335335  0.3011435832445385  0.8412205135604582  1.0000
  C   C45       1.0  0.6120834221562461  0.2220484202086723  0.8047321968213554  1.0000
  C   C46       1.0  0.698486205209356  0.1694284914379409  0.8453160232138046  1.0000
  C   C47       1.0  0.7327392607705931  0.19614269624440087  0.9237963204096857  1.0000
  C   C48       1.0  0.6836974125134958  0.2760148868858535  0.9593882151763893  1.0000
  C   C49       1.0  0.6340809653411271  0.6680618300137768  0.8846780953386144  1.0000
  C   C50       1.0  0.7452091626745412  0.6611541426514763  0.8337492202229202  1.0000
  C   C51       1.0  0.7919185319840241  0.7366494371102164  0.7866588308734919  1.0000
  C   C52       1.0  0.7274691467138866  0.8200606391320449  0.7886039377223569  1.0000
  C   C53       1.0  0.6154836863769119  0.826854973283794  0.8373734645805799  1.0000
  C   C54       1.0  0.5692400859497723  0.751706774568575  0.8851863170259835  1.0000
  C   C55       1.0  0.48231799931530617  0.35108237224144295  0.0947420923698772  1.0000
  C   C56       1.0  0.5160750330386962  0.3225989296085742  0.17538581900826242  1.0000
  C   C57       1.0  0.45071264763780045  0.2560512261070116  0.2241061178857819  1.0000
  C   C58       1.0  0.3520444213251679  0.2151440832093385  0.19268855899374424  1.0000
  C   C59       1.0  0.319599405838609  0.24090455810624434  0.11128884123009902  1.0000
  C   C60       1.0  0.3837684524381544  0.30825971390307677  0.0630528659289951  1.0000
  C   C61       1.0  0.637294941324413  0.08787891211029121  0.3615548098440797  1.0000
  C   C62       1.0  0.6187361488957136  0.062470831953156405  0.27866303059437314  1.0000
  C   C63       1.0  0.6802361832463291  0.10564637735470228  0.20798325447544397  1.0000
  C   C64       1.0  0.7616175629425114  0.1746651422068339  0.2188758387632319  1.0000
  C   C65       1.0  0.7798608111034112  0.20097513579385412  0.3007933315576139  1.0000
  C   C66       1.0  0.7180391248500227  0.1579981650210911  0.3717600170585627  1.0000
  C   C67       1.0  0.3574387262495832  0.8970633777017698  0.6425784240785505  1.0000
  C   C68       1.0  0.2331363225529515  0.9194626596090388  0.6605593022497587  1.0000
  C   C69       1.0  0.16227296086005075  0.8685538022343522  0.7216755824298957  1.0000
  C   C70       1.0  0.2139203952212441  0.7944285659522521  0.7651013440366585  1.0000
  C   C71       1.0  0.3372372546611189  0.771868291297352  0.7477749829391557  1.0000
  C   C72       1.0  0.4088744291556664  0.8234682251743733  0.6874548175223084  1.0000
  C   C73       1.0  0.3754194185560494  0.0985634402003583  0.642039390350611  1.0000
  C   C74       1.0  0.29351046318434026  0.1705400619320727  0.6254600189147581  1.0000
  C   C75       1.0  0.2370766542060423  0.22069113003765034  0.6920738191235998  1.0000
  C   C76       1.0  0.26150959484389347  0.19945381488904707  0.7759848921589738  1.0000
  C   C77       1.0  0.3430105364383849  0.12789766681005693  0.7931012507748181  1.0000
  C   C78       1.0  0.39947896140187567  0.07765904912432119  0.7267143009171023  1.0000
  C   C79       1.0  0.6581288873595526  0.8876062156544293  0.3841844267857511  1.0000
  C   C80       1.0  0.6170789380879073  0.8145812628449819  0.3405367088053808  1.0000
  C   C81       1.0  0.6993630737867277  0.7595204611452501  0.2917859157032581  1.0000
  C   C82       1.0  0.8234205209595941  0.7776386062762839  0.285232750427248  1.0000
  C   C83       1.0  0.8650937549143405  0.8511665776059162  0.32742802401908483  1.0000
  C   C84       1.0  0.7832671459032526  0.9057842281713065  0.37670245505312033  1.0000
  N   N1        1.0  0.5050936364670874  0.2628160967958948  0.4935833022388607  1.0000
  N   N2        1.0  0.48802343386618935  0.7260445105676325  0.5109267257038326  1.0000
  N   N3        1.0  0.8975528829687819  0.16202971455660287  0.561507946582914  1.0000
  N   N4        1.0  0.11261145278390929  0.8324672987228682  0.48650712796010254  1.0000
  N   N5        1.0  0.1148520570983464  0.17112878597976086  0.4304728539919723  1.0000
  N   N6        1.0  0.8579778630664876  0.8224084650297032  0.5797909417099874  1.0000
  O   O1        1.0  0.5524244883158573  0.5810961105687936  0.37836439294689944  1.0000
  O   O2        1.0  0.5177910221228216  0.4132414768872579  0.6254707360172347  1.0000
  O   O3        1.0  0.43850533620548043  0.5583603185733211  0.6284234151855517  1.0000
  O   O4        1.0  0.4943053880877812  0.4337361547478266  0.37217025197140435  1.0000
  O   O5        1.0  0.6642473882378112  0.5620012557439793  0.5391669511741526  1.0000
  O   O6        1.0  0.31190454007015933  0.4189418486666199  0.5164075713857059  1.0000
  O   O7        1.0  0.3218245676373356  0.5645919531413811  0.4661034719133711  1.0000
  O   O8        1.0  0.6900613564301779  0.422732364762993  0.4835502341182192  1.0000
  O   O9        1.0  0.7855888144220556  0.15418069775829224  0.575344825703141  1.0000
  O   O10       1.0  0.9752499902809361  0.1050510267865832  0.5825268317444952  1.0000
  O   O11       1.0  0.22543361559218056  0.83124323348558  0.4814322549960437  1.0000
  O   O12       1.0  0.047520494347963876  0.8992576266808573  0.46848930774596204  1.0000
  O   O13       1.0  0.22739029533634175  0.16251509349987714  0.418937509433846  1.0000
  O   O14       1.0  0.04076053794318571  0.12096201130343331  0.4021869024176681  1.0000
  O   O15       1.0  0.747725500890404  0.8315851243371455  0.571503188598406  1.0000
  O   O16       1.0  0.9165650595416038  0.8708645296371882  0.6231556317311658  1.0000
