data_image0
_chemical_formula_structural       Zn16H8C96S16Br16Cl8O52
_chemical_formula_sum              "Zn16 H8 C96 S16 Br16 Cl8 O52"
_cell_length_a       19.683269748882275
_cell_length_b       19.769142706798586
_cell_length_c       33.38918659261326
_cell_angle_alpha    78.91605067822694
_cell_angle_beta     79.16669208457024
_cell_angle_gamma    63.93052879650741

_space_group_name_H-M_alt    "P 1"
_space_group_IT_number       1

loop_
  _space_group_symop_operation_xyz
  'x, y, z'

loop_
  _atom_site_type_symbol
  _atom_site_label
  _atom_site_symmetry_multiplicity
  _atom_site_fract_x
  _atom_site_fract_y
  _atom_site_fract_z
  _atom_site_occupancy
  Zn  Zn1       1.0  0.0554507958509305  0.40065516412053653  0.4779121054468475  1.0000
  Zn  Zn2       1.0  0.9858381473993348  0.4839550867595154  0.5601738681825521  1.0000
  Zn  Zn3       1.0  0.058085448212821696  0.5617666184972381  0.4817627510663981  1.0000
  Zn  Zn4       1.0  0.8999335510465941  0.555136239895248  0.48018002414271166  1.0000
  Zn  Zn5       1.0  0.6938170351977889  0.3493164700950474  0.2722495393707404  1.0000
  Zn  Zn6       1.0  0.6908262019925644  0.18822083878620097  0.2660169744081742  1.0000
  Zn  Zn7       1.0  0.7695284465725082  0.26633678671071703  0.19002263889511536  1.0000
  Zn  Zn8       1.0  0.8474802871726511  0.19514524991782187  0.27163865843542107  1.0000
  Zn  Zn9       1.0  0.2647567207776405  0.7654330694844875  0.6898866023455098  1.0000
  Zn  Zn10      1.0  0.34960544213736716  0.6976812994451154  0.771226834720366  1.0000
  Zn  Zn11      1.0  0.19171038334171442  0.8496389451766576  0.7708250176493433  1.0000
  Zn  Zn12      1.0  0.1922388371837229  0.6878247260113142  0.7682636662485578  1.0000
  Zn  Zn13      1.0  0.5584734862233774  0.062307633851709524  0.9840340736969109  1.0000
  Zn  Zn14      1.0  0.40284247806260964  0.052252248872470444  0.9768825035019331  1.0000
  Zn  Zn15      1.0  0.5586884540118221  0.9002561867975136  0.9793014218150798  1.0000
  Zn  Zn16      1.0  0.48008099670302323  0.9839206398401501  0.05997331841484774  1.0000
  H   H1        1.0  0.749966540777244  0.4487135127448031  0.3486674467087312  1.0000
  H   H2        1.0  0.9989611834217413  0.3029905513292521  0.40125496731033644  1.0000
  H   H3        1.0  0.20135527670907294  0.6993775052538994  0.602438252105351  1.0000
  H   H4        1.0  0.04870130016096401  0.5507753668291927  0.6474611127003483  1.0000
  H   H5        1.0  0.6466421701721501  0.14893911081902908  0.049568339763951016  1.0000
  H   H6        1.0  0.603568492155425  0.10069393762264438  0.20046827315618287  1.0000
  H   H7        1.0  0.3047381366385267  0.9978776624002991  0.9013964699757366  1.0000
  H   H8        1.0  0.4466063606359755  0.7505679639314169  0.8485208317839931  1.0000
  C   C1        1.0  0.0617982563482045  0.3169002677914464  0.5617504645090888  1.0000
  C   C2        1.0  0.07025366086433141  0.5715833181300028  0.5673986681801536  1.0000
  C   C3        1.0  0.18335603246792692  0.43971221755460743  0.4383789082370484  1.0000
  C   C4        1.0  0.935146562450832  0.6843355401719579  0.438737560343796  1.0000
  C   C5        1.0  0.9287851287431934  0.4324763871045932  0.4313178482235499  1.0000
  C   C6        1.0  0.8177866843035773  0.5608684732327233  0.5633911784183353  1.0000
  C   C7        1.0  0.566303149093855  0.30919430487850275  0.3111931026685681  1.0000
  C   C8        1.0  0.6837603686112885  0.18051913206949183  0.17964284514282974  1.0000
  C   C9        1.0  0.6897503278872819  0.4332147852862391  0.18859345378807998  1.0000
  C   C10       1.0  0.935590523251193  0.18792782349645204  0.18965101609123988  1.0000
  C   C11       1.0  0.819737463910336  0.31849587034305693  0.31922733441058426  1.0000
  C   C12       1.0  0.8121192147807434  0.0656349217027812  0.31089017752056236  1.0000
  C   C13       1.0  0.432460111691789  0.6896952269097558  0.6876362400261156  1.0000
  C   C14       1.0  0.31619790464185366  0.8225682573186296  0.8186966018698311  1.0000
  C   C15       1.0  0.18791213070247184  0.9326665860223003  0.687337381115327  1.0000
  C   C16       1.0  0.0655404347773398  0.8091601359333114  0.8111440093826798  1.0000
  C   C17       1.0  0.1799601709153649  0.678422683507563  0.6824944009927876  1.0000
  C   C18       1.0  0.31599064106733726  0.5664970338376139  0.8117114886895889  1.0000
  C   C19       1.0  0.4368587121137325  0.18365310831784856  0.9385935655297784  1.0000
  C   C20       1.0  0.43540055920180276  0.926339803082762  0.9308119625634529  1.0000
  C   C21       1.0  0.6842260426600505  0.9420394480249927  0.939365225437676  1.0000
  C   C22       1.0  0.5606998642518448  0.8168500491711446  0.06251375693086199  1.0000
  C   C23       1.0  0.566191641840696  0.06937011291658739  0.07039125154398818  1.0000
  C   C24       1.0  0.3141239459048819  0.061882987360881776  0.059210457210887975  1.0000
  C   C25       1.0  0.8980071253855259  0.40644032789479223  0.4022698097225826  1.0000
  C   C26       1.0  0.8507791014139484  0.3451205212702962  0.347826258627954  1.0000
  C   C27       1.0  0.8267306316800003  0.44807973585532335  0.38697968113067555  1.0000
  C   C28       1.0  0.9222483198696524  0.30365351707276045  0.36293307010743797  1.0000
  C   C29       1.0  0.8048651787342039  0.4168103100778497  0.36040713394880425  1.0000
  C   C30       1.0  0.9440345494731731  0.33487453800338357  0.3895608618599553  1.0000
  C   C31       1.0  0.0998999638573181  0.6006543779310223  0.5954396524510769  1.0000
  C   C32       1.0  0.1500797213816014  0.6495816598018253  0.654449022891498  1.0000
  C   C33       1.0  0.1436715998262912  0.6432823228959496  0.5826952560142401  1.0000
  C   C34       1.0  0.1062311729709577  0.6070264633268041  0.66719406063401  1.0000
  C   C35       1.0  0.1676000827158575  0.6665816103784155  0.6121549928950215  1.0000
  C   C36       1.0  0.0823682028324271  0.5836622367109713  0.6377367555457168  1.0000
  C   C37       1.0  0.30525496754565046  0.4537092800532394  0.40056758666742087  1.0000
  C   C38       1.0  0.4447754485237637  0.29478048888672265  0.3495296302996919  1.0000
  C   C39       1.0  0.2585400208057749  0.4155673773505131  0.4138507466421187  1.0000
  C   C40       1.0  0.49146790016596503  0.33289628540344307  0.33615414129474885  1.0000
  C   C41       1.0  0.3769794587568853  0.3387040521237596  0.3730219256742514  1.0000
  C   C42       1.0  0.3731515719038896  0.40973576127754546  0.37714265298600214  1.0000
  C   C43       1.0  0.7254746799258526  0.5755631091684918  0.6311296952503936  1.0000
  C   C44       1.0  0.5249124950167925  0.6737709494609805  0.6199808571792429  1.0000
  C   C45       1.0  0.7434642488568812  0.5848142264826353  0.588705586004785  1.0000
  C   C46       1.0  0.5069242350863804  0.6648700686727909  0.6624316090721151  1.0000
  C   C47       1.0  0.6045520921402385  0.6412635584747763  0.6085391721025458  1.0000
  C   C48       1.0  0.6458357114083596  0.6079939976064073  0.6425758298360972  1.0000
  C   C49       1.0  0.0767308880465905  0.2245873603722473  0.6296019184767586  1.0000
  C   C50       1.0  0.1741705447229407  0.024652336427330116  0.6193757336014228  1.0000
  C   C51       1.0  0.08606338553801861  0.24254615474854557  0.5871253429264626  1.0000
  C   C52       1.0  0.1644332176027561  0.006847071737830422  0.661845184648797  1.0000
  C   C53       1.0  0.1421770890953553  0.10400660122828502  0.6075584284691329  1.0000
  C   C54       1.0  0.1087893789279875  0.1452292194339293  0.6413664736434866  1.0000
  C   C55       1.0  0.8411233459935304  0.8020329187162293  0.3969361608385639  1.0000
  C   C56       1.0  0.9058245548471788  0.9481295113812254  0.35284594388728147  1.0000
  C   C57       1.0  0.909279133623329  0.7588494779127619  0.41372402212549986  1.0000
  C   C58       1.0  0.8377072806439757  0.9911764549478833  0.3359655844680134  1.0000
  C   C59       1.0  0.9071776674313626  0.8790923510968586  0.3750238115839792  1.0000
  C   C60       1.0  0.8398535980741926  0.8709830399554834  0.37469173372635106  1.0000
  C   C61       1.0  0.6552361360810367  0.15328332033523417  0.15006001761555143  1.0000
  C   C62       1.0  0.594934656425778  0.09637510566555835  0.09997723003337457  1.0000
  C   C63       1.0  0.6673805202397247  0.16693683002719  0.10674763771472577  1.0000
  C   C64       1.0  0.5828233231050959  0.0826991237091904  0.1432837046211901  1.0000
  C   C65       1.0  0.6373301613452611  0.1384644071281827  0.08290557619277188  1.0000
  C   C66       1.0  0.6129141434997579  0.11111242231380206  0.16712847810728698  1.0000
  C   C67       1.0  0.6734991019363719  0.5250343263623736  0.12060648065102701  1.0000
  C   C68       1.0  0.5758478510408268  0.7250791439128507  0.1305275611344001  1.0000
  C   C69       1.0  0.6647148783219734  0.507424934208821  0.16312565414835936  1.0000
  C   C70       1.0  0.5850264351138323  0.742721399616635  0.08803389163661274  1.0000
  C   C71       1.0  0.6081529538494763  0.6457756028435075  0.14243038832717758  1.0000
  C   C72       1.0  0.6412036892516539  0.6043462711826069  0.10869568860119476  1.0000
  C   C73       1.0  0.0830740488952202  0.12320129290741731  0.17740332697253078  1.0000
  C   C74       1.0  0.1665469597261833  0.12759565667528971  0.07153863974889418  1.0000
  C   C75       1.0  0.0105152726019355  0.16278806571035898  0.16509620294947067  1.0000
  C   C76       1.0  0.23912766650730077  0.08792449021410685  0.08376341197242708  1.0000
  C   C77       1.0  0.10965033406316141  0.14061791929031398  0.10565633726411507  1.0000
  C   C78       1.0  0.14005058679138926  0.11046090665351478  0.14331635605990556  1.0000
  C   C79       1.0  0.3436286829899585  0.8521150729578437  0.8476937576360369  1.0000
  C   C80       1.0  0.4077517629444928  0.8963370657910588  0.902188380348157  1.0000
  C   C81       1.0  0.30320106561404  0.9229374961640747  0.8629998407620432  1.0000
  C   C82       1.0  0.4480829660938426  0.8254078253587027  0.8870003381638366  1.0000
  C   C83       1.0  0.33575371371092194  0.9433355535934499  0.8896162454048803  1.0000
  C   C84       1.0  0.41555256993716944  0.8050585604331318  0.8603474034550443  1.0000
  C   C85       1.0  0.4099302087603149  0.44742113669221345  0.8531362110169239  1.0000
  C   C86       1.0  0.3433165707064916  0.3025153548819333  0.8969869052708573  1.0000
  C   C87       1.0  0.3418347755141795  0.4915327424981373  0.8364425208049437  1.0000
  C   C88       1.0  0.411385551575016  0.25849068936652514  0.9137502789148184  1.0000
  C   C89       1.0  0.3427466988353061  0.3713578519848895  0.8748715982197055  1.0000
  C   C90       1.0  0.4105663033767826  0.37852485867276925  0.8751978366152995  1.0000
  C   C91       1.0  0.9436414658852142  0.7958775257578246  0.8496069988066207  1.0000
  C   C92       1.0  0.8056093433234892  0.9558797359505532  0.9003161216000277  1.0000
  C   C93       1.0  0.9906665037751667  0.8335350299206329  0.8359046961591613  1.0000
  C   C94       1.0  0.7586773770294428  0.9181644861183788  0.9141416708264739  1.0000
  C   C95       1.0  0.8730376857397532  0.9113675614225164  0.8767942313287801  1.0000
  C   C96       1.0  0.8761699609983963  0.8404174978726859  0.8730831914865433  1.0000
  S   S1        1.0  0.2979386011458018  0.3256901118736693  0.3977175901235127  1.0000
  S   S2        1.0  0.4522113991247636  0.42268207932123414  0.3524014504943266  1.0000
  S   S3        1.0  0.6628441024488723  0.6330058862151732  0.5627463822940867  1.0000
  S   S4        1.0  0.587555298801938  0.61660501652451  0.688378230379925  1.0000
  S   S5        1.0  0.13422155902676994  0.16209943303410773  0.5615705292358227  1.0000
  S   S6        1.0  0.1163223668648783  0.08730480210052603  0.687367000389784  1.0000
  S   S7        1.0  0.9719126015582589  0.8026134219234325  0.4022581728545872  1.0000
  S   S8        1.0  0.775239396030493  0.9472941828865944  0.3472818269391524  1.0000
  S   S9        1.0  0.6165654951784987  0.5880308250928367  0.18853172968628937  1.0000
  S   S10       1.0  0.6332156982927516  0.6621108443918619  0.06261621725295187  1.0000
  S   S11       1.0  0.011899856849062501  0.18448581728694796  0.1118515384170706  1.0000
  S   S12       1.0  0.23781323885518194  0.06656249696772684  0.13704951109249916  1.0000
  S   S13       1.0  0.2784530829058411  0.448564217532706  0.8477397207859666  1.0000
  S   S14       1.0  0.47467647982251987  0.30151627458681685  0.9025300264554018  1.0000
  S   S15       1.0  0.9521635767982772  0.9236543232916293  0.8516343810111022  1.0000
  S   S16       1.0  0.7970860311968694  0.8281160942340479  0.8983074900524454  1.0000
  Br  Br1       1.0  0.2862629247323198  0.55097387417878  0.4107890360236864  1.0000
  Br  Br2       1.0  0.4637535289120294  0.19742277040074196  0.3394523150443404  1.0000
  Br  Br3       1.0  0.793903090832643  0.5270358788301053  0.6706910221437353  1.0000
  Br  Br4       1.0  0.45673841010129496  0.7222158447800241  0.5802773083633282  1.0000
  Br  Br5       1.0  0.028391057726018697  0.29250248421939073  0.6690322278379027  1.0000
  Br  Br6       1.0  0.22253502356646493  0.9564764177710431  0.5800962548596472  1.0000
  Br  Br7       1.0  0.7582966200612377  0.7768934008439461  0.40114476503516266  1.0000
  Br  Br8       1.0  0.9888981369277373  0.9729538414160009  0.34860179668054764  1.0000
  Br  Br9       1.0  0.7207249719468082  0.4568497011829181  0.08127837840659419  1.0000
  Br  Br10      1.0  0.5283722278309001  0.793435601316787  0.16974854436879383  1.0000
  Br  Br11      1.0  0.1082265980957047  0.08882043240424763  0.23138444130562158  1.0000
  Br  Br12      1.0  0.14116906851331382  0.16182774067804942  0.017585440073595682  1.0000
  Br  Br13      1.0  0.49364248775572156  0.4712578800048136  0.8487939138179427  1.0000
  Br  Br14      1.0  0.2592612608823188  0.27906636863666284  0.9015430052778013  1.0000
  Br  Br15      1.0  0.9618939368712347  0.698697806046262  0.8396316265359614  1.0000
  Br  Br16      1.0  0.7872534550170516  0.053231216969926824  0.9100412883120582  1.0000
  Cl  Cl1       1.0  0.7627621185698105  0.5372354934852481  0.3987711066303417  1.0000
  Cl  Cl2       1.0  0.9867354569768241  0.21484975680323273  0.3507798454413305  1.0000
  Cl  Cl3       1.0  0.1710978596158697  0.6690706702220414  0.5320750683343219  1.0000
  Cl  Cl4       1.0  0.0789450864832304  0.5810792538141103  0.717814118500037  1.0000
  Cl  Cl5       1.0  0.7177252647995472  0.21772226150668691  0.08022467480564188  1.0000
  Cl  Cl6       1.0  0.5323486709514212  0.032033194533028254  0.16981300670337157  1.0000
  Cl  Cl7       1.0  0.21423257712290678  0.9882670993108182  0.8508865575465021  1.0000
  Cl  Cl8       1.0  0.5370472911062051  0.7602078953673516  0.89913515726748  1.0000
  O   O1        1.0  0.0006317151156594007  0.49905043569271623  0.49980720686300356  1.0000
  O   O2        1.0  0.0775213564871819  0.31544770737914263  0.5227811101747263  1.0000
  O   O3        1.0  0.0348615492778563  0.5308665392123261  0.5848840895956896  1.0000
  O   O4        1.0  0.1541579220366742  0.5059957293328878  0.4492647336825895  1.0000
  O   O5        1.0  0.0277000459269274  0.3754900155634077  0.5805092261213004  1.0000
  O   O6        1.0  0.1540819077424658  0.39136503627460695  0.4464068601983441  1.0000
  O   O7        1.0  0.08209867614805688  0.5894262001055638  0.5289602811241422  1.0000
  O   O8        1.0  0.003009483823440501  0.6576092166800507  0.44841505409542026  1.0000
  O   O9        1.0  0.886381130901384  0.4961497293313077  0.4440658486259322  1.0000
  O   O10       1.0  0.8888520761804698  0.6531758528919698  0.4486143355919692  1.0000
  O   O11       1.0  0.9954370493637369  0.387953296625682  0.4409739742027128  1.0000
  O   O12       1.0  0.8773581447045515  0.5266730674086093  0.5817617947339072  1.0000
  O   O13       1.0  0.8151702310949034  0.5772416727802896  0.5244862920604163  1.0000
  O   O14       1.0  0.748566887487371  0.25102243781896066  0.25023969762247583  1.0000
  O   O15       1.0  0.5956308768046269  0.35748114099623524  0.3037835524325985  1.0000
  O   O16       1.0  0.6656913712121835  0.16367770811830715  0.21783917905109002  1.0000
  O   O17       1.0  0.7264688309730688  0.3747055327534029  0.16993015870043138  1.0000
  O   O18       1.0  0.5949755411794868  0.24372692207326455  0.2993062542969511  1.0000
  O   O19       1.0  0.6721877246092163  0.4346508914949041  0.227505018799306  1.0000
  O   O20       1.0  0.7232699419884271  0.21775623427639357  0.16469501339789616  1.0000
  O   O21       1.0  0.8782442162119679  0.22479082693885769  0.169253377825207  1.0000
  O   O22       1.0  0.8614535973409759  0.2537610039216889  0.30757843688028425  1.0000
  O   O23       1.0  0.9338433499967567  0.1712291482470223  0.22849162120881059  1.0000
  O   O24       1.0  0.7536260998176942  0.3632652307388113  0.30892244478590664  1.0000
  O   O25       1.0  0.7457821131356752  0.09138595627587168  0.2992675509354966  1.0000
  O   O26       1.0  0.8575809830785986  0.09776643840822186  0.3029891594453388  1.0000
  O   O27       1.0  0.2498018663420823  0.7504269420990259  0.7502555299500384  1.0000
  O   O28       1.0  0.3733078202196154  0.7228374842128747  0.6689100639627553  1.0000
  O   O29       1.0  0.362248636071115  0.7579732288881689  0.8073871280515873  1.0000
  O   O30       1.0  0.1702466959785909  0.9346217290883699  0.7262081219835465  1.0000
  O   O31       1.0  0.43447631333565795  0.6752285553990877  0.7266290155109087  1.0000
  O   O32       1.0  0.22315726395110153  0.8737380914784298  0.668917389121411  1.0000
  O   O33       1.0  0.25027876576129415  0.8633041124036823  0.8077379187369899  1.0000
  O   O34       1.0  0.0936380942756756  0.8584605021158114  0.80212111344737  1.0000
  O   O35       1.0  0.16724289142137394  0.6614001361008732  0.7209491620544526  1.0000
  O   O36       1.0  0.095734839790353  0.7422491688800863  0.8010409759821542  1.0000
  O   O37       1.0  0.21636413846400873  0.7181692428665302  0.6649939478437189  1.0000
  O   O38       1.0  0.3611663074293716  0.5990186190291029  0.8029641869238516  1.0000
  O   O39       1.0  0.24879783030437616  0.5922125839423346  0.8012287319813537  1.0000
  O   O40       1.0  0.5006808341875983  0.9995760075231318  0.9997631047540734  1.0000
  O   O41       1.0  0.5026608858924392  0.1586136256477745  0.9507680207211988  1.0000
  O   O42       1.0  0.39039122549537814  0.9923016395100036  0.9406844711203843  1.0000
  O   O43       1.0  0.6558587832528247  0.8929506243887105  0.9476055009352817  1.0000
  O   O44       1.0  0.39226966419653314  0.15055681254242614  0.9457252117209902  1.0000
  O   O45       1.0  0.6548491766792992  0.008004213715608515  0.9506685442092928  1.0000
  O   O46       1.0  0.5002768193105781  0.8848589438200424  0.942908188007628  1.0000
  O   O47       1.0  0.5808465247707276  0.8150747429682428  0.023771093486835978  1.0000
  O   O48       1.0  0.5272136669930916  0.03158906413355582  0.08533105960773917  1.0000
  O   O49       1.0  0.5220650969911346  0.8756387893464183  0.08077517710924553  1.0000
  O   O50       1.0  0.583558689120771  0.08693831230444012  0.032198616972294807  1.0000
  O   O51       1.0  0.3161825653834072  0.07574980717953393  0.020260772685247716  1.0000
  O   O52       1.0  0.37120642512058316  0.026846318669797142  0.0799264936681041  1.0000
