data_image0
_chemical_formula_structural       Y2Cu2H44C36I2N10O18
_chemical_formula_sum              "Y2 Cu2 H44 C36 I2 N10 O18"
_cell_length_a       10.889461942015107
_cell_length_b       12.707848011894422
_cell_length_c       14.542682186837437
_cell_angle_alpha    92.04969175122818
_cell_angle_beta     96.01844972409903
_cell_angle_gamma    120.67387576425874

_space_group_name_H-M_alt    "P 1"
_space_group_IT_number       1

loop_
  _space_group_symop_operation_xyz
  'x, y, z'

loop_
  _atom_site_type_symbol
  _atom_site_label
  _atom_site_symmetry_multiplicity
  _atom_site_fract_x
  _atom_site_fract_y
  _atom_site_fract_z
  _atom_site_occupancy
  Y   Y1        1.0  0.7226089842782101  0.6250219075623703  0.03636336320791137  1.0000
  Y   Y2        1.0  0.2773983455403482  0.37498737908475743  0.9636391481614979  1.0000
  Cu  Cu1       1.0  0.4885493457929897  0.0035831513025498993  0.4124227830505518  1.0000
  Cu  Cu2       1.0  0.5114505190208546  0.9964177339120752  0.587578820862454  1.0000
  H   H1        1.0  0.20233016394232092  0.6465629742416964  0.15972264678030965  1.0000
  H   H2        1.0  0.7976707339970586  0.3534379886135852  0.8402749233379865  1.0000
  H   H3        1.0  0.2678071095430639  0.2088200898483308  0.2239528635974892  1.0000
  H   H4        1.0  0.7322013308520282  0.791191068404764  0.7760456756869232  1.0000
  H   H5        1.0  0.27468322923873956  0.0701109427071671  0.3418604613954982  1.0000
  H   H6        1.0  0.7253141617749533  0.9298952493493642  0.6581342128031409  1.0000
  H   H7        1.0  0.662218263697525  0.7946301830843222  0.201487006963383  1.0000
  H   H8        1.0  0.3377769613557716  0.20535608495030283  0.798524748099986  1.0000
  H   H9        1.0  0.6821993960425984  0.940246106046224  0.3317579754104472  1.0000
  H   H10       1.0  0.3177963983426579  0.05974110342952339  0.6682511073165784  1.0000
  H   H11       1.0  0.8976042612157683  0.9023014577538004  0.9275399399362952  1.0000
  H   H12       1.0  0.10241883470467882  0.09772110455393353  0.0724622880132983  1.0000
  H   H13       1.0  0.8214767990793064  0.6438696859557212  0.8140768593918253  1.0000
  H   H14       1.0  0.17851049043423473  0.356115380353529  0.18592591555951538  1.0000
  H   H15       1.0  0.7286126576753488  0.3849469824107103  0.2441446323071617  1.0000
  H   H16       1.0  0.2713868271160322  0.6150466987519607  0.7558601562362028  1.0000
  H   H17       1.0  0.2401584722037028  0.7934495410697547  0.29431678681017803  1.0000
  H   H18       1.0  0.7598400008080758  0.20655040963519866  0.705681228826208  1.0000
  H   H19       1.0  0.9102931813950761  0.05101784862551989  0.8524215521355529  1.0000
  H   H20       1.0  0.08970891952792932  0.9489984130315248  0.1475731530302866  1.0000
  H   H21       1.0  0.892055540312377  0.16221739412839034  0.9177836823274246  1.0000
  H   H22       1.0  0.1079433131432025  0.8377932865396004  0.0822188213303221  1.0000
  H   H23       1.0  0.7433724812262242  0.04810607596415652  0.8359616192066994  1.0000
  H   H24       1.0  0.2566263300982711  0.9519045877894144  0.16404294333258918  1.0000
  H   H25       1.0  0.7171174753820608  0.2361988467600327  0.3596194971085254  1.0000
  H   H26       1.0  0.2828681836562978  0.7637897649613377  0.6403777429747706  1.0000
  H   H27       1.0  0.8858859632152515  0.5656542432573275  0.7100370400027813  1.0000
  H   H28       1.0  0.11410319551627879  0.4343273734881876  0.2899596028212343  1.0000
  H   H29       1.0  0.9922626437969555  0.5009787852499982  0.7480569591037137  1.0000
  H   H30       1.0  0.007731646506378787  0.49901202038114434  0.2519404121106703  1.0000
  H   H31       1.0  0.07645219737129583  0.6526229412153554  0.7115402797552406  1.0000
  H   H32       1.0  0.9235347194220154  0.3473612625867304  0.2884555594186153  1.0000
  H   H33       1.0  0.10811534071796561  0.671334113224418  0.9793114471874701  1.0000
  H   H34       1.0  0.8918812345670799  0.32866574985690983  0.02068640051220428  1.0000
  H   H35       1.0  0.22825935265420574  0.723635193091674  0.8934895022817457  1.0000
  H   H36       1.0  0.7717392254746116  0.2763630369437919  0.10649952982494429  1.0000
  H   H37       1.0  0.12351152090714382  0.5636742550051324  0.9058331400073456  1.0000
  H   H38       1.0  0.8764838097542478  0.43631839404127243  0.09416369059125879  1.0000
  H   H39       1.0  0.6478094166601522  0.9209023150432358  0.061143574965697695  1.0000
  H   H40       1.0  0.3521858152740265  0.0790867686251033  0.9388503870381014  1.0000
  H   H41       1.0  0.5944547876527507  0.9844854450069388  0.967597978055231  1.0000
  H   H42       1.0  0.4055375764151207  0.015501735813209903  0.032392925158404785  1.0000
  H   H43       1.0  0.7404408490228461  0.08409281241615928  0.05606335258381279  1.0000
  H   H44       1.0  0.2595432501801653  0.9159028988191196  0.9439325938139405  1.0000
  C   C1        1.0  0.498039981636623  0.3046973761277131  0.22262493296268807  1.0000
  C   C2        1.0  0.5019624276869051  0.6953063321169778  0.777374228260406  1.0000
  C   C3        1.0  0.31052469805703  0.7103267629675328  0.19584221551669148  1.0000
  C   C4        1.0  0.6894733387575015  0.2896659611329042  0.8041617299254398  1.0000
  C   C5        1.0  0.4990188750924247  0.38277450341167457  0.1473054438436279  1.0000
  C   C6        1.0  0.5009832398045617  0.6172371881133358  0.8527021886151473  1.0000
  C   C7        1.0  0.4128505626065929  0.6188757214593892  0.09307704395601488  1.0000
  C   C8        1.0  0.5871447684761436  0.38112045349809887  0.9069274592943231  1.0000
  C   C9        1.0  0.43016228707799076  0.7096628254452211  0.1692778508495607  1.0000
  C   C10       1.0  0.5698394754625866  0.29033814739302233  0.8307239210001568  1.0000
  C   C11       1.0  0.36933972102323753  0.21708471454935108  0.2522580409897657  1.0000
  C   C12       1.0  0.6306607556749951  0.7829206549319067  0.7477465043570888  1.0000
  C   C13       1.0  0.37229663849655037  0.140011452302943  0.31667565669264514  1.0000
  C   C14       1.0  0.6276999721084023  0.8599901878292756  0.6833243115982768  1.0000
  C   C15       1.0  0.5666635838149858  0.7935283382346017  0.2185803983607641  1.0000
  C   C16       1.0  0.4333317889077861  0.2064597519560394  0.7814279869430931  1.0000
  C   C17       1.0  0.5783878265234391  0.8741371417624604  0.2907424070904767  1.0000
  C   C18       1.0  0.42160919120924933  0.12585551033546244  0.7092648858525122  1.0000
  C   C19       1.0  0.8278518425893038  0.9046790127714033  0.976362114814826  1.0000
  C   C20       1.0  0.1721636620028875  0.09533967313075209  0.0236317687361876  1.0000
  C   C21       1.0  0.9120916493487385  0.6658830806831375  0.86855900068484  1.0000
  C   C22       1.0  0.08789954754647768  0.334098680067406  0.1314309471374386  1.0000
  C   C23       1.0  0.626318088639401  0.31457110374434893  0.2631794759214472  1.0000
  C   C24       1.0  0.37367954827990957  0.6854323741649964  0.736820638047547  1.0000
  C   C25       1.0  0.3311441371149044  0.7929350269855675  0.2696116575760783  1.0000
  C   C26       1.0  0.6688506459817986  0.20706655371373017  0.7303847113089078  1.0000
  C   C27       1.0  0.8351958559442991  0.0660733823503463  0.8872320869142243  1.0000
  C   C28       1.0  0.16480406595673008  0.9339391530091918  0.1127685035400674  1.0000
  C   C29       1.0  0.6205296283803107  0.23355320871182536  0.3265145761129773  1.0000
  C   C30       1.0  0.37947121338428497  0.7664477315908939  0.6734857391806983  1.0000
  C   C31       1.0  0.9894886947885835  0.5861918703092853  0.7477697087585966  1.0000
  C   C32       1.0  0.010498798569208989  0.4137950407085425  0.2522269512578532  1.0000
  C   C33       1.0  0.12366018015478619  0.6500442027397851  0.9094682083627745  1.0000
  C   C34       1.0  0.876341420251272  0.34995141639322463  0.090529946888573  1.0000
  C   C35       1.0  0.6860341631088287  0.993894782787464  0.014825829256629688  1.0000
  C   C36       1.0  0.31395574885645056  0.006103002198429401  0.985168623779451  1.0000
  I   I1        1.0  0.2494673823665253  0.9031925396893642  0.4910717597890653  1.0000
  I   I2        1.0  0.7505351460480297  0.09680487775379022  0.5089313451972615  1.0000
  N   N1        1.0  0.49536847932651534  0.14503903342563254  0.35169075169502406  1.0000
  N   N2        1.0  0.5046367978633267  0.854966577667248  0.6483114683182336  1.0000
  N   N3        1.0  0.4630552462950775  0.8748677113096691  0.3165256197311024  1.0000
  N   N4        1.0  0.5369400001041454  0.12512490390788858  0.6834753286305713  1.0000
  N   N5        1.0  0.005780265124798208  0.6369939995681192  0.8427870699579572  1.0000
  N   N6        1.0  0.9942113678979465  0.3629904120167494  0.15721056164537117  1.0000
  N   N7        1.0  0.9113914028323151  0.6742612356407847  0.20657024899596618  1.0000
  N   N8        1.0  0.08862602750428286  0.32575297339109  0.793436043490857  1.0000
  N   N9        1.0  0.7849054982052903  0.984471020206875  0.9600376892140472  1.0000
  N   N10       1.0  0.21509118261813848  0.015530648116040898  0.03995884760765729  1.0000
  O   O1        1.0  0.6207234562783555  0.46115133529753644  0.1260694924264314  1.0000
  O   O2        1.0  0.3792861720745576  0.5388589127566518  0.8739387500694845  1.0000
  O   O3        1.0  0.37665845416563554  0.3616556455721278  0.10912846231970968  1.0000
  O   O4        1.0  0.6233530574489662  0.6383511585564676  0.8908729617550365  1.0000
  O   O5        1.0  0.28631800150381537  0.5387618258317913  0.0541754169212609  1.0000
  O   O6        1.0  0.7136870220568168  0.46123663195239556  0.9458238110777586  1.0000
  O   O7        1.0  0.5258714981491294  0.6238732164311144  0.0715970435566291  1.0000
  O   O8        1.0  0.47413404629226347  0.3761360276975124  0.9283998095253024  1.0000
  O   O9        1.0  0.9215517387520362  0.713893693234503  0.9482676688876879  1.0000
  O   O10       1.0  0.07844438587072496  0.2860954116930828  0.0517291222598431  1.0000
  O   O11       1.0  0.7947359378505751  0.8372392835374851  0.041418669762997164  1.0000
  O   O12       1.0  0.2052761711833782  0.16276847330851746  0.9585787093877228  1.0000
  O   O13       1.0  0.8225696930376714  0.7125488366350153  0.19859633058025142  1.0000
  O   O14       1.0  0.17744396993285957  0.28746520842589257  0.8014082534454516  1.0000
  O   O15       1.0  0.9282451818996124  0.6317763030420877  0.1292768782638802  1.0000
  O   O16       1.0  0.07176661775169892  0.36822780385374193  0.8707279266996932  1.0000
  O   O17       1.0  0.9770142598369772  0.677118562946923  0.2818198625502077  1.0000
  O   O18       1.0  0.023007437470226887  0.32290482498761003  0.7181829565955553  1.0000
