data_image0
_chemical_formula_structural       Zn6H84C120N18O27
_chemical_formula_sum              "Zn6 H84 C120 N18 O27"
_cell_length_a       9.486661012193307
_cell_length_b       19.546951608913336
_cell_length_c       19.548902952538356
_cell_angle_alpha    117.44236915158612
_cell_angle_beta     99.31736470430087
_cell_angle_gamma    99.29132250899572

_space_group_name_H-M_alt    "P 1"
_space_group_IT_number       1

loop_
  _space_group_symop_operation_xyz
  'x, y, z'

loop_
  _atom_site_type_symbol
  _atom_site_label
  _atom_site_symmetry_multiplicity
  _atom_site_fract_x
  _atom_site_fract_y
  _atom_site_fract_z
  _atom_site_occupancy
  Zn  Zn1       1.0  0.6283063490791531  0.621156991144076  0.4625521027406164  1.0000
  Zn  Zn2       1.0  0.165992993110521  0.5376814686940461  0.15873751232776095  1.0000
  Zn  Zn3       1.0  0.0074093408933037725  0.8412671332056403  0.378800139069611  1.0000
  Zn  Zn4       1.0  0.07315442615855963  0.25962034691100633  0.12816231438863204  1.0000
  Zn  Zn5       1.0  0.9456724942013532  0.8720997974476388  0.13158512011395349  1.0000
  Zn  Zn6       1.0  0.8140918387070994  0.8684046025904735  0.7404408078126112  1.0000
  H   H1        1.0  0.3840147679340403  0.23547852081323128  0.16056443331035555  1.0000
  H   H2        1.0  0.22407768978098355  0.8393823262339452  0.07486531005564247  1.0000
  H   H3        1.0  0.14918031248814856  0.9249383622773307  0.7644299466729053  1.0000
  H   H4        1.0  0.5334754456219385  0.20920860594684138  0.2577456703825405  1.0000
  H   H5        1.0  0.2757498258936904  0.7421613043851277  0.9512164933823897  1.0000
  H   H6        1.0  0.3245656576445483  0.04844780550653379  0.7906675347057119  1.0000
  H   H7        1.0  0.2002655790441423  0.2570452215772363  0.38846399943475524  1.0000
  H   H8        1.0  0.8117732797194462  0.6118502088410124  0.8688028074038814  1.0000
  H   H9        1.0  0.9432058360834432  0.13113978231982765  0.7428692834143577  1.0000
  H   H10       1.0  0.06897060158156877  0.2855755493904367  0.28708410154435887  1.0000
  H   H11       1.0  0.7823921295016728  0.7132659476987298  0.9988294502615247  1.0000
  H   H12       1.0  0.7837206471978247  0.0012085162024888995  0.714348263578181  1.0000
  H   H13       1.0  0.9571019799386277  0.373504038149214  0.06177421121499546  1.0000
  H   H14       1.0  0.895746834282505  0.9382501950501518  0.31171484674420896  1.0000
  H   H15       1.0  0.5840666697936996  0.6881721545754614  0.6265956963268877  1.0000
  H   H16       1.0  0.8444513535636275  0.2759155981974714  0.9208474184703167  1.0000
  H   H17       1.0  0.9248014112257933  0.0792046836223932  0.3549831017978705  1.0000
  H   H18       1.0  0.569603437852521  0.6448804614573687  0.7242197046496841  1.0000
  H   H19       1.0  0.03180049955558665  0.45611135325467694  0.8652446255476463  1.0000
  H   H20       1.0  0.16685929276989944  0.13474482310002855  0.5909505702450064  1.0000
  H   H21       1.0  0.5765329327666392  0.40898197061450486  0.5439415948971772  1.0000
  H   H22       1.0  0.14237399502740528  0.546367132099192  0.01038902465820964  1.0000
  H   H23       1.0  0.1318371429824053  0.9895261739114143  0.5360642690987091  1.0000
  H   H24       1.0  0.5966008091846147  0.4639006185314471  0.45368656579795913  1.0000
  H   H25       1.0  0.3443963372858149  0.6171957574247459  0.34298161414346856  1.0000
  H   H26       1.0  0.0017605606376633603  0.6573044485379212  0.2743222791325053  1.0000
  H   H27       1.0  0.7279724984021667  0.7258394343470369  0.3830185250747178  1.0000
  H   H28       1.0  0.32446139144113306  0.7603952584816439  0.34817460612538303  1.0000
  H   H29       1.0  0.9758182077935726  0.6519077294144322  0.4121456645236705  1.0000
  H   H30       1.0  0.564234910077367  0.5879208881043282  0.2399544359183068  1.0000
  H   H31       1.0  0.6769504799879653  0.8073929164456641  0.5417519506466135  1.0000
  H   H32       1.0  0.13494112397724928  0.45833507868953655  0.26563551251855705  1.0000
  H   H33       1.0  0.8691635778384635  0.7342525906671894  0.19248855910287693  1.0000
  H   H34       1.0  0.33149478239316454  0.8843374833279893  0.4162939232622306  1.0000
  H   H35       1.0  0.9143316805690701  0.583571227948532  0.4678047337634015  1.0000
  H   H36       1.0  0.44699220465722067  0.5318194835548055  0.11598778028317004  1.0000
  H   H37       1.0  0.3927085307267005  0.02738598802070409  0.4552289123504921  1.0000
  H   H38       1.0  0.936445639155657  0.5445492061307033  0.5718404260581735  1.0000
  H   H39       1.0  0.36472071430395653  0.42784110672410236  0.9729015434261543  1.0000
  H   H40       1.0  0.8399453833924043  0.05811407141391098  0.5759893305925419  1.0000
  H   H41       1.0  0.2632479382144126  0.423957971664258  0.48200276845685164  1.0000
  H   H42       1.0  0.7805686921483072  0.5179978551996739  0.9417401208131794  1.0000
  H   H43       1.0  0.7805182272266648  0.9143224160481079  0.5351337915444246  1.0000
  H   H44       1.0  0.24480545158026956  0.46485044151481947  0.37913180189981693  1.0000
  H   H45       1.0  0.8653434693889679  0.6208327026017884  0.08554202441465011  1.0000
  H   H46       1.0  0.9770151638742064  0.3690047137887475  0.7492883478858233  1.0000
  H   H47       1.0  0.22830077237739488  0.2508412282188388  0.6197130416614627  1.0000
  H   H48       1.0  0.6085029252723116  0.3801717702069993  0.6312794748433888  1.0000
  H   H49       1.0  0.8571034486515217  0.2750906180964846  0.6064952294467646  1.0000
  H   H50       1.0  0.2504136852742532  0.39360762538429117  0.6686699110388333  1.0000
  H   H51       1.0  0.5813315835285522  0.3312880124705301  0.7251091541402772  1.0000
  H   H52       1.0  0.600968131060327  0.11782300698953915  0.6666038805897828  1.0000
  H   H53       1.0  0.9343687288985976  0.33320799176380683  0.4510427886096623  1.0000
  H   H54       1.0  0.48287629971061097  0.5489977319733936  0.8821442552628795  1.0000
  H   H55       1.0  0.7127898542067042  0.2132450801037605  0.8090227621730153  1.0000
  H   H56       1.0  0.9043930378676776  0.1908200964727271  0.4040235540262033  1.0000
  H   H57       1.0  0.500214658669961  0.5959516720791669  0.7867687518096533  1.0000
  H   H58       1.0  0.5051175809245618  0.2456682167842813  0.5805092479040753  1.0000
  H   H59       1.0  0.9239843332152871  0.4195527248118295  0.6650018795634054  1.0000
  H   H60       1.0  0.2584586616829583  0.3348300485722788  0.7543554288785971  1.0000
  H   H61       1.0  0.38569857611638975  0.2867973054136143  0.48938613645370316  1.0000
  H   H62       1.0  0.8958035304382221  0.5107183395299869  0.7972864441196635  1.0000
  H   H63       1.0  0.09843771822124127  0.20243295559303925  0.7131582096208222  1.0000
  H   H64       1.0  0.5345116803368342  0.11780840596866678  0.2991343680960838  1.0000
  H   H65       1.0  0.2350254528691096  0.7008041599665444  0.8185400345537275  1.0000
  H   H66       1.0  0.41685665564628477  0.18127976899624793  0.8819374176477199  1.0000
  H   H67       1.0  0.654154086604656  0.07688947430085587  0.39126610438811593  1.0000
  H   H68       1.0  0.2624341760860246  0.6086310886002763  0.6855043464222634  1.0000
  H   H69       1.0  0.5768046138127403  0.3144772136219203  0.9229925068570425  1.0000
  H   H70       1.0  0.7783372984229471  0.4241482614761764  0.289767856945211  1.0000
  H   H71       1.0  0.4890499412768178  0.7105085216644298  0.13430552174973084  1.0000
  H   H72       1.0  0.3547447077877235  0.8656112882539088  0.5759917870122564  1.0000
  H   H73       1.0  0.37163998746833454  0.30439676783780795  0.039744010768210006  1.0000
  H   H74       1.0  0.33254602744219836  0.9605559388160924  0.26492659870944363  1.0000
  H   H75       1.0  0.0679332753676931  0.7348871737274365  0.6953375675743347  1.0000
  H   H76       1.0  0.6095767734724544  0.2639932274697968  0.03655181416313973  1.0000
  H   H77       1.0  0.5734426544917991  0.9637451582996658  0.22752665193055305  1.0000
  H   H78       1.0  0.3462372124465673  0.7723411002409077  0.7359430909908583  1.0000
  H   H79       1.0  0.9045738594480351  0.12422541134451137  0.052202472454766266  1.0000
  H   H80       1.0  0.8524602217451117  0.9478587065404793  0.0719897689165592  1.0000
  H   H81       1.0  0.7804442130408943  0.9279194578016426  0.8757649871013342  1.0000
  H   H82       1.0  0.9611631161043164  0.11598345476458857  0.12861895166340534  1.0000
  H   H83       1.0  0.8328576930578817  0.8714964822466126  0.9873323083780505  1.0000
  H   H84       1.0  0.8451165587046886  0.012593873346666796  0.8840481388581625  1.0000
  C   C1        1.0  0.3481115884007409  0.2402077282708177  0.21244750728582323  1.0000
  C   C2        1.0  0.13611293251744855  0.787585343421092  0.027769918485489316  1.0000
  C   C3        1.0  0.10837741534482587  0.9720707919393586  0.7597295051696449  1.0000
  C   C4        1.0  0.4303050492019196  0.22493272994826438  0.2668599998713361  1.0000
  C   C5        1.0  0.1635900500779214  0.7331325324405993  0.9579906153065849  1.0000
  C   C6        1.0  0.2056743197531645  0.04178519459929218  0.7749688413576623  1.0000
  C   C7        1.0  0.37903399927813536  0.22937308100335932  0.33193084841863657  1.0000
  C   C8        1.0  0.04701559691029179  0.6681441648496076  0.8974156509047905  1.0000
  C   C9        1.0  0.1498094486923307  0.10239441752876388  0.7705110225285454  1.0000
  C   C10       1.0  0.24795472879296193  0.25334786093579703  0.3401595643232227  1.0000
  C   C11       1.0  0.9078764651062841  0.6601031297708104  0.913324794122204  1.0000
  C   C12       1.0  0.9947494322348119  0.08659063683330706  0.7466068158364721  1.0000
  C   C13       1.0  0.17244318065613834  0.2682797709198326  0.28374709365925105  1.0000
  C   C14       1.0  0.8891070043315493  0.716543803144333  0.9847595572390592  1.0000
  C   C15       1.0  0.9044918164825687  0.015207146106824594  0.7316595995921349  1.0000
  C   C16       1.0  0.9702155313824932  0.3902526096750947  0.016679528541715196  1.0000
  C   C17       1.0  0.9539941936757186  0.9833406197739971  0.3735665283247298  1.0000
  C   C18       1.0  0.5805741084546127  0.6263286821294612  0.6098445068472174  1.0000
  C   C19       1.0  0.9058419826550193  0.335412947246695  0.9362100277975572  1.0000
  C   C20       1.0  0.9705734435656127  0.0638189792673742  0.39915446088663503  1.0000
  C   C21       1.0  0.5714093638172951  0.6007261854795585  0.6647050378178179  1.0000
  C   C22       1.0  0.9241324519845121  0.35610217919577264  0.8774723296177742  1.0000
  C   C23       1.0  0.047504994822254794  0.12253745288741409  0.4786096341221936  1.0000
  C   C24       1.0  0.5689970265166763  0.5212811826505046  0.6440016706317523  1.0000
  C   C25       1.0  0.011756491654530429  0.43428261376491395  0.9059009255911408  1.0000
  C   C26       1.0  0.1063193950672954  0.09408672719730046  0.5284241812240041  1.0000
  C   C27       1.0  0.5782948391197991  0.47148138007757  0.5657844356859698  1.0000
  C   C28       1.0  0.07401966685799267  0.4858024393203023  0.987230953518136  1.0000
  C   C29       1.0  0.08689681253701309  0.012724627124555396  0.49863169050961903  1.0000
  C   C30       1.0  0.5888125911803072  0.5013048277425226  0.5142596119059633  1.0000
  C   C31       1.0  0.4083640559256665  0.6782910066558044  0.3850916296455437  1.0000
  C   C32       1.0  0.023397544275198363  0.6151346321491785  0.29327264694548927  1.0000
  C   C33       1.0  0.7305501954741088  0.706828205236441  0.3218727056300353  1.0000
  C   C34       1.0  0.39919682560829967  0.7479609672990434  0.3864561994018487  1.0000
  C   C35       1.0  0.012424537030902462  0.6136682175333374  0.3614738636196718  1.0000
  C   C36       1.0  0.6513797924836096  0.6385593288098262  0.2522638270969609  1.0000
  C   C37       1.0  0.5851896727429207  0.7745254075973023  0.4882347762598443  1.0000
  C   C38       1.0  0.09675988496712756  0.5118830099884589  0.2862908499612047  1.0000
  C   C39       1.0  0.8104702451099255  0.713669356808978  0.2254588682356696  1.0000
  C   C40       1.0  0.5502554667080799  0.8909224828491059  0.47504572365654935  1.0000
  C   C41       1.0  0.07445280733511335  0.5248850397169419  0.41570265038571824  1.0000
  C   C42       1.0  0.658820787105746  0.5841189010951451  0.10918066011431894  1.0000
  C   C43       1.0  0.4425818281196143  0.9223964987846286  0.45143826363299416  1.0000
  C   C44       1.0  0.9902599815981787  0.5484129305456305  0.47071925198712705  1.0000
  C   C45       1.0  0.5197775430625455  0.5289766568401005  0.07783284110436026  1.0000
  C   C46       1.0  0.47727224142794705  0.0027294438195112998  0.47314720740432403  1.0000
  C   C47       1.0  0.0031677634155896947  0.5266499448825923  0.5293114388281807  1.0000
  C   C48       1.0  0.4738952937887147  0.47042102168230554  0.9974644993721782  1.0000
  C   C49       1.0  0.6199431240047274  0.05219734399305049  0.5190644403431862  1.0000
  C   C50       1.0  0.09996869317069464  0.4807501133440508  0.5328971677503134  1.0000
  C   C51       1.0  0.5667418872939931  0.46696943221391507  0.9478555672926137  1.0000
  C   C52       1.0  0.7280373901129876  0.01987917673204719  0.541618757639057  1.0000
  C   C53       1.0  0.1855585124450342  0.458242371051213  0.47806660421878183  1.0000
  C   C54       1.0  0.7070824761517187  0.5218416421184031  0.9800641532905775  1.0000
  C   C55       1.0  0.6942317537989807  0.9394671348981233  0.5198247599906695  1.0000
  C   C56       1.0  0.1736395612726723  0.4800822894278978  0.41948060753820476  1.0000
  C   C57       1.0  0.7539312861031177  0.5803989959093769  0.06049241307343315  1.0000
  C   C58       1.0  0.8552284252224922  0.2995859739540093  0.791800723901517  1.0000
  C   C59       1.0  0.06416723967321757  0.2082062084621937  0.5076877611024813  1.0000
  C   C60       1.0  0.5563268615765934  0.4922226524588566  0.7005592310707558  1.0000
  C   C61       1.0  0.8919142682340533  0.31519074856392837  0.732346386462247  1.0000
  C   C62       1.0  0.16003506083606564  0.2677293868648362  0.5828031213965305  1.0000
  C   C63       1.0  0.5770404622566687  0.41710523998033  0.6850236943829844  1.0000
  C   C64       1.0  0.825205991403635  0.2624208071723402  0.6514904330381912  1.0000
  C   C65       1.0  0.1737185069068872  0.34856987197979816  0.610943480268091  1.0000
  C   C66       1.0  0.5623937636035591  0.38901401364564225  0.7377277569747778  1.0000
  C   C67       1.0  0.7198432492668444  0.19017297263540908  0.6264716783034531  1.0000
  C   C68       1.0  0.09319997372983825  0.37347873528621267  0.5636322927865011  1.0000
  C   C69       1.0  0.5290063505375997  0.4363623251677635  0.8098695176738745  1.0000
  C   C70       1.0  0.6828428707263041  0.17335596860974786  0.6850625999515431  1.0000
  C   C71       1.0  0.9978403968376383  0.31480693687635847  0.48816408411189377  1.0000
  C   C72       1.0  0.5092876790403832  0.511844886445658  0.8266468998615508  1.0000
  C   C73       1.0  0.7483957432332744  0.22732861924041706  0.7656913396758399  1.0000
  C   C74       1.0  0.983170834883971  0.23421085851003906  0.46149050609945164  1.0000
  C   C75       1.0  0.521475688863184  0.5384750155592285  0.7727209083608174  1.0000
  C   C76       1.0  0.5922930056919427  0.1607642913675207  0.4928955717159057  1.0000
  C   C77       1.0  0.09879482646307021  0.5070705771691592  0.6677033216084851  1.0000
  C   C78       1.0  0.4307028769546973  0.3322191201517625  0.8392356842177265  1.0000
  C   C79       1.0  0.5155017951978991  0.21971594961231483  0.5194806120689394  1.0000
  C   C80       1.0  0.9954339171522973  0.48057030622709346  0.7000971678913004  1.0000
  C   C81       1.0  0.29497812462973627  0.2997488522715415  0.7802627873516246  1.0000
  C   C82       1.0  0.4478286469102953  0.24231878078344948  0.4675851036037956  1.0000
  C   C83       1.0  0.9797263607724389  0.5324697808243284  0.7746016940601947  1.0000
  C   C84       1.0  0.20506352673458386  0.22516944197022323  0.75759965262548  1.0000
  C   C85       1.0  0.45515969951440377  0.20740490842708675  0.38767845485883623  1.0000
  C   C86       1.0  0.06710370822661804  0.6123489119123489  0.8196271040017465  1.0000
  C   C87       1.0  0.2476354213705534  0.18016795479258  0.7924547343781115  1.0000
  C   C88       1.0  0.5314935671371542  0.14782416471653892  0.36151540357005985  1.0000
  C   C89       1.0  0.16957588326143733  0.6384441357103937  0.7861779718566597  1.0000
  C   C90       1.0  0.38355217360869176  0.2136726554326813  0.8520071384474478  1.0000
  C   C91       1.0  0.598545471368716  0.12443716247653207  0.4128804336864321  1.0000
  C   C92       1.0  0.18515568446537145  0.587051686550268  0.7114087932608087  1.0000
  C   C93       1.0  0.4736279284365565  0.2885202814023486  0.8754684662250228  1.0000
  C   C94       1.0  0.7080032385927594  0.34171129318842464  0.16288867764281184  1.0000
  C   C95       1.0  0.5455359258268757  0.8373886108607563  0.17877842872587008  1.0000
  C   C96       1.0  0.3669090854715903  0.8210892873390275  0.6583476340206289  1.0000
  C   C97       1.0  0.6895039141015642  0.39858598471676016  0.23502194272703034  1.0000
  C   C98       1.0  0.4549946827129219  0.7652586506408667  0.1635816644484578  1.0000
  C   C99       1.0  0.2915086210230057  0.8362893396848389  0.6014361903365426  1.0000
  C   C100      1.0  0.5594110013498649  0.4233241737775655  0.2374476903355642  1.0000
  C   C101      1.0  0.32266843669532336  0.7628131239351317  0.1860421040880168  1.0000
  C   C102      1.0  0.13673713992096023  0.8138118613372851  0.5765539513076945  1.0000
  C   C103      1.0  0.44497786081096535  0.3894069326772679  0.16634193099523742  1.0000
  C   C104      1.0  0.27935594272836534  0.8339547007225006  0.223299934889816  1.0000
  C   C105      1.0  0.05620088180042852  0.7765326175742471  0.6103854011991103  1.0000
  C   C106      1.0  0.46220682005341723  0.33151887921967926  0.09411464826618501  1.0000
  C   C107      1.0  0.368736089925207  0.9061744987490313  0.2376235937779327  1.0000
  C   C108      1.0  0.13133318074292785  0.7621904659398523  0.668247665619667  1.0000
  C   C109      1.0  0.5936043172129786  0.3084280185051539  0.09230876348631507  1.0000
  C   C110      1.0  0.501781474987318  0.9079795045631581  0.21619938786338355  1.0000
  C   C111      1.0  0.28581762110772485  0.7836430342730193  0.6914940014789578  1.0000
  C   C112      1.0  0.850397226049253  0.3181155237785659  0.16188761092008258  1.0000
  C   C113      1.0  0.6889414846395354  0.8382995376677937  0.15613447873332822  1.0000
  C   C114      1.0  0.5329034632441816  0.8437160034737655  0.6819337415493792  1.0000
  C   C115      1.0  0.5416933493124602  0.48449304454192776  0.3154091301784376  1.0000
  C   C116      1.0  0.2269343029666756  0.6848313978722514  0.16921394244628363  1.0000
  C   C117      1.0  0.05770558112555331  0.8306863057681111  0.5154623583648997  1.0000
  C   C118      1.0  0.3089843294717126  0.4188953770802825  0.16404250790977665  1.0000
  C   C119      1.0  0.14564653382129922  0.8362347482022159  0.2550712503814053  1.0000
  C   C120      1.0  0.8906914402147734  0.7448396323196675  0.5810107872069922  1.0000
  N   N1        1.0  0.22016540623899059  0.26068865613586917  0.21987660964578742  1.0000
  N   N2        1.0  0.0008743378582990427  0.7803134384361241  0.04097753235171793  1.0000
  N   N3        1.0  0.9599419240944866  0.9589508714471363  0.739256251095121  1.0000
  N   N4        1.0  0.053976588913471235  0.4646026366940247  0.04233874421587548  1.0000
  N   N5        1.0  0.01176689053253461  0.9576511409969798  0.42230591106526577  1.0000
  N   N6        1.0  0.5897912624835724  0.5776054329339215  0.5354620632791978  1.0000
  N   N7        1.0  0.524336412466283  0.695596590495789  0.4488159016856629  1.0000
  N   N8        1.0  0.07564835158203914  0.5514104510036829  0.24686860178562853  1.0000
  N   N9        1.0  0.8289625317454393  0.7531831995974939  0.3044264217314563  1.0000
  N   N10       1.0  0.5126029980112462  0.8084249189624086  0.4517628712708586  1.0000
  N   N11       1.0  0.06035470020439949  0.548283913240368  0.3565851988245754  1.0000
  N   N12       1.0  0.7039208020763396  0.6433510465227313  0.19167451548516817  1.0000
  N   N13       1.0  0.6550073636067779  0.13527353315120644  0.5447347940947865  1.0000
  N   N14       1.0  0.1096100769281846  0.45517134285240946  0.5903746333417388  1.0000
  N   N15       1.0  0.5185309890604373  0.4096135851779295  0.8647818989924972  1.0000
  N   N16       1.0  0.07597914365011599  0.13861464709853513  0.9606103507225331  1.0000
  N   N17       1.0  0.1157490965868391  0.039492469671443986  0.17795238729873836  1.0000
  N   N18       1.0  0.938046336340555  0.822111438489905  0.8615244009493779  1.0000
  O   O1        1.0  0.6640425846612814  0.5350776618392955  0.3678388692800922  1.0000
  O   O2        1.0  0.2967675333365988  0.6323905958980799  0.16751472005395834  1.0000
  O   O3        1.0  0.129242762239201  0.8325222427896573  0.4647887955190625  1.0000
  O   O4        1.0  0.4156586104052807  0.48495204319243623  0.32704144838519517  1.0000
  O   O5        1.0  0.08923330133244885  0.6732122542548635  0.15784506442273025  1.0000
  O   O6        1.0  0.931306640037945  0.8419786439357605  0.5152042759602294  1.0000
  O   O7        1.0  0.3326477561267751  0.49128765794701923  0.1779333366501561  1.0000
  O   O8        1.0  0.1553662550168865  0.8222872030226823  0.313526327119753  1.0000
  O   O9        1.0  0.841607637998109  0.6864219456638521  0.5085950550868504  1.0000
  O   O10       1.0  0.18114265892862846  0.37367620452328504  0.14433880395425547  1.0000
  O   O11       1.0  0.0374889639502455  0.8559326498578839  0.22953206157140468  1.0000
  O   O12       1.0  0.8083500108377847  0.770403688539808  0.6264105865692359  1.0000
  O   O13       1.0  0.8785366737112668  0.2826013718276241  0.09332891342439348  1.0000
  O   O14       1.0  0.7857538385297785  0.9068221657066428  0.18925468629426212  1.0000
  O   O15       1.0  0.5965616242722118  0.8106414787217486  0.7174244321381025  1.0000
  O   O16       1.0  0.9379055268900344  0.3342526408336254  0.22649943146802093  1.0000
  O   O17       1.0  0.7117383692732844  0.773661208145114  0.1076458104224683  1.0000
  O   O18       1.0  0.6042603666094449  0.8921637155857665  0.6657804499150757  1.0000
  O   O19       1.0  0.923726459435187  0.151601586278673  0.11100791339155346  1.0000
  O   O20       1.0  0.8130357202552643  0.8890481701018371  0.04054938913269258  1.0000
  O   O21       1.0  0.7722050845781677  0.9593364474981029  0.8483850718054385  1.0000
  O   O22       1.0  0.15050423545186217  0.20138790773971488  0.0268368904820662  1.0000
  O   O23       1.0  0.12417635610652393  0.9732904149784074  0.17453504448328516  1.0000
  O   O24       1.0  0.9498886837752207  0.8255415762649745  0.7987542916711022  1.0000
  O   O25       1.0  0.9463731736557506  0.10775776737595777  0.9586649674015181  1.0000
  O   O26       1.0  0.9879773642539149  0.041444159541733  0.14918753727124576  1.0000
  O   O27       1.0  0.8390315143897451  0.8508858079800985  0.8922366183065408  1.0000
