data_image0
_chemical_formula_structural       Ag4P4H40C40N8O16
_chemical_formula_sum              "Ag4 P4 H40 C40 N8 O16"
_cell_length_a       8.465376449171606
_cell_length_b       8.34701867
_cell_length_c       18.729
_cell_angle_alpha    90.0
_cell_angle_beta     101.50698561747902
_cell_angle_gamma    90.0

_space_group_name_H-M_alt    "P 1"
_space_group_IT_number       1

loop_
  _space_group_symop_operation_xyz
  'x, y, z'

loop_
  _atom_site_type_symbol
  _atom_site_label
  _atom_site_symmetry_multiplicity
  _atom_site_fract_x
  _atom_site_fract_y
  _atom_site_fract_z
  _atom_site_occupancy
  Ag  Ag1       1.0  0.8164612100986446  0.0446830197397858  0.5223539664742987  1.0000
  Ag  Ag2       1.0  0.183545337764194  0.04466864334927578  0.977643740697026  1.0000
  Ag  Ag3       1.0  0.1835465432769041  0.9553243277937966  0.4776427815317064  1.0000
  Ag  Ag4       1.0  0.8164551825350941  0.9553207336961689  0.022357694438227296  1.0000
  P   P1        1.0  0.7583844297490501  0.4987972549964326  0.5155390617949038  1.0000
  P   P2        1.0  0.2416124740121077  0.4987756904106675  0.9844593775916124  1.0000
  P   P3        1.0  0.2416112684993976  0.5012160826998624  0.48445179385554843  1.0000
  P   P4        1.0  0.7583856352617602  0.5012088945046074  0.015548247324971998  1.0000
  H   H1        1.0  0.5482720028669448  0.4951672163924811  0.5691722285777914  1.0000
  H   H2        1.0  0.4517273119196332  0.4951564340995986  0.9308264282034245  1.0000
  H   H3        1.0  0.4517249008942059  0.5048461213038138  0.4308182018386689  1.0000
  H   H4        1.0  0.5482720028669448  0.504825754750591  0.0691813054105168  1.0000
  H   H5        1.0  0.9729403764827113  0.6468513146383046  0.5086635399444646  1.0000
  H   H6        1.0  0.027060143816577  0.6468369382477945  0.9913384291221236  1.0000
  H   H7        1.0  0.0270541162530265  0.3531680132207029  0.49132560521461954  1.0000
  H   H8        1.0  0.9729403764827113  0.35315603289527786  0.0086710149831788  1.0000
  H   H9        1.0  0.6074445942705466  0.7732413518130983  0.44059659108067717  1.0000
  H   H10       1.0  0.3925655701304223  0.7732305695202155  0.0593971707320051  1.0000
  H   H11       1.0  0.3925498984651838  0.22677557998082418  0.5594021648424672  1.0000
  H   H12       1.0  0.6074433887578365  0.2267647976879417  0.9405964823833274  1.0000
  H   H13       1.0  0.3780741018353737  0.7436391657190313  0.3396196992064233  1.0000
  H   H14       1.0  0.6219396791037326  0.7436104129380112  0.16037118511030712  1.0000
  H   H15       1.0  0.6219023082096982  0.2563825582050612  0.6603865030891569  1.0000
  H   H16       1.0  0.37808615696247466  0.2563753700098061  0.8396154468665814  1.0000
  H   H17       1.0  0.3904752110901129  0.259408788407562  0.3095947218791935  1.0000
  H   H18       1.0  0.6095048154930964  0.25936685726857417  0.1904192815471504  1.0000
  H   H19       1.0  0.6095397753617035  0.740609341418903  0.6904000086542368  1.0000
  H   H20       1.0  0.3904535118613168  0.740602153223648  0.8095997064342271  1.0000
  H   H21       1.0  0.6134793909001957  0.2699766334654683  0.41473942723430224  1.0000
  H   H22       1.0  0.3865126908101146  0.2699550688797032  0.0852740613715568  1.0000
  H   H23       1.0  0.3865428286278814  0.7300414963609967  0.5852559554832482  1.0000
  H   H24       1.0  0.6134564861586966  0.7300307140681139  0.9147432352293096  1.0000
  H   H25       1.0  0.24220799729118173  0.7274441618087337  0.2352531029159834  1.0000
  H   H26       1.0  0.7578274828767135  0.7274190031253409  0.2647440094037776  1.0000
  H   H27       1.0  0.7578419490292418  0.2725751660502738  0.76473677087062  1.0000
  H   H28       1.0  0.24219955870220386  0.2725667798224762  0.7352539438285319  1.0000
  H   H29       1.0  0.027931729506399  0.7217762698498902  0.1225388070457427  1.0000
  H   H30       1.0  0.9721037506614961  0.7217523091990399  0.3774615088620408  1.0000
  H   H31       1.0  0.9721146002758941  0.2782322757162348  0.8774560799621725  1.0000
  H   H32       1.0  0.0279293184809717  0.2782358698138623  0.6225359199943556  1.0000
  H   H33       1.0  0.9813705268684743  0.2154649547465297  0.12164428095796612  1.0000
  H   H34       1.0  0.0186155272782784  0.2154493803234772  0.3783585194657419  1.0000
  H   H35       1.0  0.0185902115113592  0.7845328085267126  0.8783669154480692  1.0000
  H   H36       1.0  0.9813837875082925  0.784543590819595  0.6216337301394432  1.0000
  H   H37       1.0  0.1889219244538154  0.24349292607967496  0.2346190002143445  1.0000
  H   H38       1.0  0.811060513154807  0.2434713614939099  0.265385609842653  1.0000
  H   H39       1.0  0.8110364029005979  0.7565144214539075  0.7653951823850065  1.0000
  H   H40       1.0  0.1889303630427932  0.7565168175189922  0.7346096164004194  1.0000
  C   C1        1.0  0.5552507159490574  0.8790707544925169  0.4108597294596024  1.0000
  C   C2        1.0  0.4447510098629408  0.8790467938416595  0.0891375429223089  1.0000
  C   C3        1.0  0.4447389547358327  0.12094497926887018  0.5891439309874968  1.0000
  C   C4        1.0  0.5552507159490574  0.1209389891061576  0.9108591955282679  1.0000
  C   C5        1.0  0.427136058134522  0.8632842796792275  0.35204923051257003  1.0000
  C   C6        1.0  0.5728704897283164  0.8632651111585472  0.1479500784527659  1.0000
  C   C7        1.0  0.5728596401139185  0.136737444244865  0.6479560412839689  1.0000
  C   C8        1.0  0.4271288250582543  0.1367266619519825  0.8520443068777583  1.0000
  C   C9        1.0  0.3649014644458006  0.9989530788961289  0.3117514143554061  1.0000
  C   C10       1.0  0.6350918227772269  0.9989243261151088  0.18825150432108023  1.0000
  C   C11       1.0  0.6350894117517996  0.0010662489628784995  0.6882528887203847  1.0000
  C   C12       1.0  0.3649002589330904  0.0010602588001659998  0.8117497038640381  1.0000
  C   C13       1.0  0.4330213711880475  0.1472765365217512  0.3362031490359669  1.0000
  C   C14       1.0  0.5669743270603931  0.14725497193598608  0.1638074620739332  1.0000
  C   C15       1.0  0.5669924097510517  0.8527427913372563  0.6637936085254595  1.0000
  C   C16       1.0  0.4330020829846788  0.8527320090443735  0.8362046134663502  1.0000
  C   C17       1.0  0.5597436618217486  0.15476423991273686  0.3957653517267445  1.0000
  C   C18       1.0  0.4402460088631415  0.1547390812293443  0.10424364803371591  1.0000
  C   C19       1.0  0.4402604750156698  0.845246701718473  0.6042321380498734  1.0000
  C   C20       1.0  0.5597328122073577  0.8452419095883028  0.8957697127639365  1.0000
  C   C21       1.0  0.2363347393647572  0.9872015776861787  0.2459355535488186  1.0000
  C   C22       1.0  0.763668191959951  0.9871764190027861  0.2540650311184649  1.0000
  C   C23       1.0  0.7636730140107915  0.012814156075201297  0.75406386411386  1.0000
  C   C24       1.0  0.2363275062884966  0.0128105619775738  0.7459349013647056  1.0000
  C   C25       1.0  0.187439143819681  0.8393583717718016  0.21300097335562643  1.0000
  C   C26       1.0  0.8125770481448455  0.8393260248931467  0.2869970694631833  1.0000
  C   C27       1.0  0.8125866922465264  0.1606549659245005  0.7869968711793263  1.0000
  C   C28       1.0  0.187439143819681  0.1606525698594155  0.7129967019049348  1.0000
  C   C29       1.0  0.0688070489873382  0.8338198673275485  0.1501231747919647  1.0000
  C   C30       1.0  0.9312139650280284  0.8338054909370385  0.3498742349535817  1.0000
  C   C31       1.0  0.9312199925915863  0.1661838861084064  0.849870506989646  1.0000
  C   C32       1.0  0.0688058434746281  0.1661934703687464  0.6501214643006037  1.0000
  C   C33       1.0  0.0424135536997667  0.11086712952086937  0.1492938915596511  1.0000
  C   C34       1.0  0.9575809390359709  0.11085754526052938  0.35070753402017374  1.0000
  C   C35       1.0  0.9575664728834425  0.8891318317849155  0.8507105011026397  1.0000
  C   C36       1.0  0.0424207867760273  0.889145010142883  0.6492886704990682  1.0000
  C   C37       1.0  0.1596665419910934  0.12448276936704158  0.21215946593282814  1.0000
  C   C38       1.0  0.8403231286937967  0.12445162052093649  0.2878452623769476  1.0000
  C   C39       1.0  0.8403134845921088  0.8755245781665406  0.7878518678368351  1.0000
  C   C40       1.0  0.1596749805800712  0.8755269742316257  0.7121511499815726  1.0000
  N   N1        1.0  0.6219613783325215  0.022422377066519093  0.43230383737518  1.0000
  N   N2        1.0  0.3780427585048898  0.0224115947736365  0.06769845778346449  1.0000
  N   N3        1.0  0.3780499915811575  0.9775849704670633  0.5676932367228815  1.0000
  N   N4        1.0  0.6219493232054205  0.9775777822718084  0.9323059539896762  1.0000
  N   N5        1.0  0.9975195751407142  0.96760296332247  0.11849576684525691  1.0000
  N   N6        1.0  0.0024809451585739  0.96758379480179  0.3815051343586617  1.0000
  N   N7        1.0  0.0024773286204435997  0.0323959979833148  0.8815085457859553  1.0000
  N   N8        1.0  0.9975304247551052  0.0324079783087399  0.6184882022200497  1.0000
  O   O1        1.0  0.871017893333061  0.354385214283937  0.5188877822155861  1.0000
  O   O2        1.0  0.1289729828645392  0.3543672437957993  0.98110637616481  1.0000
  O   O3        1.0  0.1289850379916473  0.6456305194774428  0.481107997069671  1.0000
  O   O4        1.0  0.8710118657695105  0.6456245293147305  0.018893111973525785  1.0000
  O   O5        1.0  0.6733981946717122  0.4974674388741959  0.5838833773120342  1.0000
  O   O6        1.0  0.3265987090894455  0.4974542605162284  0.9161161299371514  1.0000
  O   O7        1.0  0.3266011201148658  0.5025566811149814  0.4161094062244787  1.0000
  O   O8        1.0  0.6733969891590021  0.5025447007895565  0.0838902097220569  1.0000
  O   O9        1.0  0.8658896422618412  0.6573748324921382  0.5273388334088694  1.0000
  O   O10       1.0  0.1341108780374469  0.6573580600365432  0.9726620677950494  1.0000
  O   O11       1.0  0.134101233935759  0.3426456933994118  0.4726473160014778  1.0000
  O   O12       1.0  0.865898080850819  0.3426373071716142  0.027351874711072824  1.0000
  O   O13       1.0  0.6319586952421758  0.5119444641184714  0.4453623471177579  1.0000
  O   O14       1.0  0.3680357974935617  0.5119121172398167  0.054636942736721004  1.0000
  O   O15       1.0  0.3680370030062718  0.4880580912849481  0.554627440670018  1.0000
  O   O16       1.0  0.631959900754886  0.48805210112223557  0.9453720665791678  1.0000
