data_image0
_chemical_formula_structural       CuSiH12C24N4F10
_chemical_formula_sum              "Cu1 Si1 H12 C24 N4 F10"
_cell_length_a       8.257310104606999
_cell_length_b       13.845607320678665
_cell_length_c       13.862869127311157
_cell_angle_alpha    89.6835070770331
_cell_angle_beta     102.51741851072978
_cell_angle_gamma    102.68425328263841

_space_group_name_H-M_alt    "P 1"
_space_group_IT_number       1

loop_
  _space_group_symop_operation_xyz
  'x, y, z'

loop_
  _atom_site_type_symbol
  _atom_site_label
  _atom_site_symmetry_multiplicity
  _atom_site_fract_x
  _atom_site_fract_y
  _atom_site_fract_z
  _atom_site_occupancy
  Cu  Cu1       1.0  0.5002540675444536  0.5006186128941296  0.49943669496064996  1.0000
  Si  Si1       1.0  3.4395376935853134e-05  0.498476290272471  0.5016112115997727  1.0000
  H   H1        1.0  0.2571262759256356  0.6238033344846912  0.4414409490084736  1.0000
  H   H2        1.0  0.23460934454633525  0.7976392593768935  0.4407071384719003  1.0000
  H   H3        1.0  0.7820316877802895  0.8794384150733946  0.5552110405464035  1.0000
  H   H4        1.0  0.22015847319733686  0.1223684556601512  0.4363475195359214  1.0000
  H   H5        1.0  0.7405740637747087  0.3762786033164716  0.5668013518865891  1.0000
  H   H6        1.0  0.7613896224569813  0.2019930076498966  0.5699982248941424  1.0000
  H   H7        1.0  0.2592694863844827  0.43516481969139426  0.6242419334968403  1.0000
  H   H8        1.0  0.23741464252502448  0.4322661228512528  0.7981299892339635  1.0000
  H   H9        1.0  0.7810031005582232  0.5603193003905317  0.8779113309621848  1.0000
  H   H10       1.0  0.21683028385472616  0.44777386638927646  0.12074596747079619  1.0000
  H   H11       1.0  0.7432734794995283  0.5565007387884008  0.3753987695067521  1.0000
  H   H12       1.0  0.7656581253839575  0.5570366995707373  0.20167498051576865  1.0000
  C   C1        1.0  0.3709688118608838  0.6822426821653311  0.4658060867931581  1.0000
  C   C2        1.0  0.35901474875592493  0.7804375753193679  0.4653420474693277  1.0000
  C   C3        1.0  0.5069044264063151  0.8552645461066747  0.4984714713786075  1.0000
  C   C4        1.0  0.6619504746891707  0.8262044696468464  0.5295137508826925  1.0000
  C   C5        1.0  0.6600504430160045  0.725735593168281  0.5272095164109699  1.0000
  C   C6        1.0  0.5012501206265298  0.9565973579668918  0.5004910364764044  1.0000
  C   C7        1.0  0.4969579575660603  0.044003285719561795  0.5022759245223156  1.0000
  C   C8        1.0  0.4918634202159993  0.14545404612671578  0.5034160498595526  1.0000
  C   C9        1.0  0.33912000344265897  0.17518752073730326  0.46605828901779484  1.0000
  C   C10       1.0  0.34260936731816816  0.27587719798224697  0.46636828029292576  1.0000
  C   C11       1.0  0.6275885317299199  0.31814817593998157  0.5392408444443219  1.0000
  C   C12       1.0  0.6385328057984195  0.21976437109182706  0.5409919555557677  1.0000
  C   C13       1.0  0.37247499108201515  0.46173255991759277  0.6823215336460604  1.0000
  C   C14       1.0  0.3609669540240503  0.46012616382667204  0.7805132159700534  1.0000
  C   C15       1.0  0.5080622718529494  0.49626995823108183  0.8547629570454162  1.0000
  C   C16       1.0  0.6617137780401376  0.5318635950728064  0.8251065307284051  1.0000
  C   C17       1.0  0.6588576482983581  0.531343783327557  0.7246244354944122  1.0000
  C   C18       1.0  0.5025915724346461  0.4975660756641742  0.9560257999242694  1.0000
  C   C19       1.0  0.49816130567153033  0.4994539267465755  0.04331694790703718  1.0000
  C   C20       1.0  0.49263546386772095  0.5017086886876924  0.14453616855055165  1.0000
  C   C21       1.0  0.33722957904680567  0.47230958459447686  0.17379040255678288  1.0000
  C   C22       1.0  0.3391798470576077  0.47491680081314763  0.2741351894025498  1.0000
  C   C23       1.0  0.6291098797349973  0.533220649563212  0.3171618088229379  1.0000
  C   C24       1.0  0.6410055039973555  0.53353051153114  0.21905287243190935  1.0000
  N   N1        1.0  0.5199939712117683  0.6537746195971793  0.4979552875372589  1.0000
  N   N2        1.0  0.48114032209372226  0.3473307887837862  0.5009602615852771  1.0000
  N   N3        1.0  0.5198450329837313  0.498463928728384  0.6531960852767185  1.0000
  N   N4        1.0  0.47966496148179516  0.5026422972692045  0.3458395238772454  1.0000
  F   F1        1.0  0.20103839894478168  0.4850166512170091  0.48876383290848924  1.0000
  F   F2        1.0  0.798982843751027  0.5121719784419767  0.5141223787798879  1.0000
  F   F3        1.0  0.00047454138832850665  0.5862168137554279  0.4123535149501194  1.0000
  F   F4        1.0  0.9996057491479249  0.41082109283310336  0.5908096142158215  1.0000
  F   F5        1.0  0.09716528316123874  0.5888371396976452  0.5902825247447294  1.0000
  F   F6        1.0  0.9028412634017967  0.40815889301254055  0.41288947799774417  1.0000
  F   F7        1.0  0.8080587968546099  0.6989455837431251  0.5560545104880745  1.0000
  F   F8        1.0  0.19779054081115524  0.3036522106085542  0.4288483952308084  1.0000
  F   F9        1.0  0.8049912578888083  0.5665735978668849  0.6971237561194952  1.0000
  F   F10       1.0  0.19066504859261357  0.4482093747544693  0.3010194621423564  1.0000
