data_image0
_chemical_formula_structural       Zn8H26C42S4O38
_chemical_formula_sum              "Zn8 H26 C42 S4 O38"
_cell_length_a       18.507201799473087
_cell_length_b       18.50684421617983
_cell_length_c       18.523310822915228
_cell_angle_alpha    60.67074615407288
_cell_angle_beta     60.76002597519731
_cell_angle_gamma    60.16005605727943

_space_group_name_H-M_alt    "P 1"
_space_group_IT_number       1

loop_
  _space_group_symop_operation_xyz
  'x, y, z'

loop_
  _atom_site_type_symbol
  _atom_site_label
  _atom_site_symmetry_multiplicity
  _atom_site_fract_x
  _atom_site_fract_y
  _atom_site_fract_z
  _atom_site_occupancy
  Zn  Zn1       1.0  0.5476495647705945  0.5375380847194224  0.04943273847239741  1.0000
  Zn  Zn2       1.0  0.5425242071690947  0.5399639113418714  0.8771345473111083  1.0000
  Zn  Zn3       1.0  0.37237949335685283  0.5420835986654637  0.044880756731508584  1.0000
  Zn  Zn4       1.0  0.543465511298116  0.36809828956528184  0.0453327235144842  1.0000
  Zn  Zn5       1.0  0.9556288840727236  0.9557212679257745  0.4598935491856294  1.0000
  Zn  Zn6       1.0  0.12788287319683195  0.9590955704968563  0.45383627382431496  1.0000
  Zn  Zn7       1.0  0.9546670331086278  0.9604135325671379  0.6294824075110835  1.0000
  Zn  Zn8       1.0  0.9564114610006698  0.13152905713785398  0.4556309836934388  1.0000
  H   H1        1.0  0.7464801604433688  0.393112374165689  0.1607967177237199  1.0000
  H   H2        1.0  0.1105871685320921  0.8163972350679742  0.7961153702584697  1.0000
  H   H3        1.0  0.5730975989446135  0.22408205059566913  0.23993665355550323  1.0000
  H   H4        1.0  0.348770660179433  0.7373244159895193  0.7380392774620219  1.0000
  H   H5        1.0  0.7907784412993307  0.8005705353857024  0.8149131769886182  1.0000
  H   H6        1.0  0.7801293342095833  0.803733444787497  0.6519281626111139  1.0000
  H   H7        1.0  0.7360605601425905  0.6765006030282733  0.8913174518572544  1.0000
  H   H8        1.0  0.5571795183638102  0.0823498715884767  0.3513668796835674  1.0000
  H   H9        1.0  0.7669278451357969  0.0352691463966934  0.4257351995943636  1.0000
  H   H10       1.0  0.19284241428530904  0.7252212613446714  0.17821081654060586  1.0000
  H   H11       1.0  0.7816851101922921  0.3154577094324651  0.5954301230267374  1.0000
  H   H12       1.0  0.3507343764607356  0.7406506485388817  0.17914413238757018  1.0000
  H   H13       1.0  0.29232284874155584  0.8066377578754922  0.5270078930714561  1.0000
  H   H14       1.0  0.1942901904553694  0.6870830322212383  0.8984857606196143  1.0000
  H   H15       1.0  0.5095805528532438  0.7389233823964715  0.7810055982995009  1.0000
  H   H16       1.0  0.6646602332856946  0.8414449307517486  0.46031338960337803  1.0000
  H   H17       1.0  0.8443310543230921  0.2984654507611851  0.2537122207838466  1.0000
  H   H18       1.0  0.06588920350716886  0.8677455497178456  0.1200598094727425  1.0000
  H   H19       1.0  0.25148957894538176  0.7546933034148039  0.32050346571202226  1.0000
  H   H20       1.0  0.09617358156320678  0.3120168298553666  0.30114634444554866  1.0000
  H   H21       1.0  0.2669538258660111  0.1520028117575762  0.2817817985963131  1.0000
  H   H22       1.0  0.19061538826357355  0.40324216032980337  0.19293714979931312  1.0000
  H   H23       1.0  0.34536925698621007  0.2375991325865741  0.24192772359338474  1.0000
  H   H24       1.0  0.8137010908193221  0.16011413610783623  0.7616371370383275  1.0000
  H   H25       1.0  0.7025066212938001  0.40828535792152815  0.6911791666356848  1.0000
  H   H26       1.0  0.6837934560101573  0.2368948161480162  0.8435672401741313  1.0000
  C   C1        1.0  0.622868340729042  0.36361446451197565  0.8641613555122235  1.0000
  C   C2        1.0  0.1899861830974672  0.8042297850072727  0.30854581632436145  1.0000
  C   C3        1.0  0.22535487639269997  0.7478418838080999  0.19496263279474133  1.0000
  C   C4        1.0  0.3670914385905136  0.6505679346460482  0.12382065593792643  1.0000
  C   C5        1.0  0.31388391937422006  0.7174576888445187  0.16869756309461081  1.0000
  C   C6        1.0  0.16735194436963502  0.2786959155420304  0.27926167641808763  1.0000
  C   C7        1.0  0.19716230958913883  0.1899001552389166  0.30359177312604396  1.0000
  C   C8        1.0  0.2223308822985075  0.3335422400672101  0.22463991546915457  1.0000
  C   C9        1.0  0.3093628661760378  0.305503007088646  0.2106359956644751  1.0000
  C   C10       1.0  0.7728302774802532  0.28309916850960787  0.6653960333139464  1.0000
  C   C11       1.0  0.8169131021024328  0.19589766853785312  0.693276877651641  1.0000
  C   C12       1.0  0.7261400378836029  0.0776390053437481  0.3838004572314873  1.0000
  C   C13       1.0  0.715691254600472  0.33726673178124145  0.7217261186637104  1.0000
  C   C14       1.0  0.6765029495700435  0.30643733149476293  0.8089167217546488  1.0000
  C   C15       1.0  0.1756721008725748  0.7708549303303301  0.7710926804006348  1.0000
  C   C16       1.0  0.6309445345969422  0.6386576537509255  0.8739483672863314  1.0000
  C   C17       1.0  0.19585247850967144  0.7744462992294456  0.6890373297698602  1.0000
  C   C18       1.0  0.22787627568256139  0.716680143878449  0.8294922972707965  1.0000
  C   C19       1.0  0.31298988708418574  0.7062799201534631  0.8050159636673438  1.0000
  C   C20       1.0  0.7685029063318752  0.7864431157648966  0.779845316972249  1.0000
  C   C21       1.0  0.79615154515799  0.8182633397971982  0.6916503112229575  1.0000
  C   C22       1.0  0.7195141679391597  0.7261211979535888  0.8321050849008458  1.0000
  C   C23       1.0  0.7362704414093956  0.15926059937068973  0.32146426218816515  1.0000
  C   C24       1.0  0.6585946982987921  0.7178813531185709  0.8188519102156419  1.0000
  C   C25       1.0  0.1385136649744112  0.1368683828870871  0.3613770884297621  1.0000
  C   C26       1.0  0.8542006309017652  0.8720416680501942  0.6406744112627436  1.0000
  C   C27       1.0  0.13617781542776441  0.8600051342269381  0.36601532939069137  1.0000
  C   C28       1.0  0.3632951982308938  0.36301897287414425  0.1501842759104122  1.0000
  C   C29       1.0  0.8709710111410518  0.14150114786607298  0.6351843296490998  1.0000
  C   C30       1.0  0.13752878725610174  0.8463333333281113  0.635083823563221  1.0000
  C   C31       1.0  0.8606356370051956  0.13680973860285658  0.36425197539607973  1.0000
  C   C32       1.0  0.3649576643345613  0.6484593616238284  0.8655000455025571  1.0000
  C   C33       1.0  0.635699122203853  0.3567952931053854  0.14555502274850352  1.0000
  C   C34       1.0  0.6798658069011624  0.21350107326482262  0.2678646303341238  1.0000
  C   C35       1.0  0.6162112984628295  0.18321774575699123  0.27978020423758215  1.0000
  C   C36       1.0  0.6073299086748564  0.10404596690331398  0.3413615188290392  1.0000
  C   C37       1.0  0.6635129899710535  0.0516169761968186  0.3928772407406456  1.0000
  C   C38       1.0  0.6870889573406274  0.29780428074295173  0.20798863621179461  1.0000
  C   C39       1.0  0.7440279522802272  0.32773452868034514  0.20528129994519156  1.0000
  C   C40       1.0  0.7989158089417359  0.27468928699901335  0.25747499031389526  1.0000
  C   C41       1.0  0.7973292209216255  0.19094849501553307  0.3134420029573447  1.0000
  C   C42       1.0  0.17012128763566628  0.8081863652317126  0.24543730433202873  1.0000
  S   S1        1.0  0.2836370413962115  0.6948882023193903  0.636706311712544  1.0000
  S   S2        1.0  0.6076298551856355  0.795728800272222  0.7355834755160943  1.0000
  S   S3        1.0  0.6498624905540994  0.9533117053505435  0.47920308626205355  1.0000
  S   S4        1.0  0.06954619385530239  0.8878980386393492  0.2217881593811484  1.0000
  O   O1        1.0  0.5017087468293014  0.4973859388731795  0.004982447300640959  1.0000
  O   O2        1.0  0.8992252758724177  0.05831747675434679  0.6745028760165894  1.0000
  O   O3        1.0  0.17700874855697177  0.8724777762015423  0.5520566130238291  1.0000
  O   O4        1.0  0.6007367061081441  0.32359453018825235  0.9468885218460554  1.0000
  O   O5        1.0  0.8810298812262192  0.17912312430161142  0.3849795319116609  1.0000
  O   O6        1.0  0.056469934413513626  0.8770524181986444  0.6744630762415015  1.0000
  O   O7        1.0  0.8900894102965893  0.053599283091280404  0.381620160345669  1.0000
  O   O8        1.0  0.05423055478956938  0.8727783260741828  0.39905200198708707  1.0000
  O   O9        1.0  0.8846487742591693  0.17981946472219332  0.5529237053653941  1.0000
  O   O10       1.0  0.17821155942706923  0.05318522866904369  0.3859078019250219  1.0000
  O   O11       1.0  0.8749625957898814  0.8947909267025197  0.6813216709890713  1.0000
  O   O12       1.0  0.626658627206588  0.604469957517189  0.9539901607641352  1.0000
  O   O13       1.0  0.4503026094562514  0.6251930662321004  0.10556505601297783  1.0000
  O   O14       1.0  0.6146094921628347  0.6116260778668092  0.833861818395384  1.0000
  O   O15       1.0  0.3242176016814469  0.44562241129559504  0.11901054872955538  1.0000
  O   O16       1.0  0.4472255776634099  0.6394197195369102  0.8310928056353928  1.0000
  O   O17       1.0  0.6251649885030234  0.32077569005985396  0.10937463967783856  1.0000
  O   O18       1.0  0.3266520448351288  0.6105004242385731  0.9450030876808807  1.0000
  O   O19       1.0  0.6085352571795326  0.439419812874057  0.1318757183545075  1.0000
  O   O20       1.0  0.3416693979837718  0.6294940456414225  0.6864465831727669  1.0000
  O   O21       1.0  0.2401632915084022  0.6695188148468888  0.6107045742318177  1.0000
  O   O22       1.0  0.3379922374179145  0.7547863751135396  0.552811381322975  1.0000
  O   O23       1.0  0.44662690097467106  0.32328415475735284  0.13368615145333249  1.0000
  O   O24       1.0  0.596243493879307  0.8819719086416383  0.7257661580592368  1.0000
  O   O25       1.0  0.6506371519789411  0.7635937740222049  0.662732256430992  1.0000
  O   O26       1.0  0.5100756478659676  0.7902844258544733  0.7842921514061486  1.0000
  O   O27       1.0  0.7118988894984783  0.9179946704512644  0.5234134790358809  1.0000
  O   O28       1.0  0.5575427055958216  0.9672237948905362  0.5272087716456896  1.0000
  O   O29       1.0  0.6825545911227594  0.8934423680761513  0.42041530875308564  1.0000
  O   O30       1.0  0.0015243019984723142  0.8489002343448036  0.2720239134688781  1.0000
  O   O31       1.0  0.05781964662407552  0.9715741295011426  0.21912178646423547  1.0000
  O   O32       1.0  0.09822094172074705  0.8960900405395621  0.12070430043363693  1.0000
  O   O33       1.0  0.6035936126040796  0.4470648700678481  0.8259603062170696  1.0000
  O   O34       1.0  0.3263340044754058  0.6236568987388438  0.10799641579077963  1.0000
  O   O35       1.0  0.9999284335266553  0.0016003800025999  0.5009033953136139  1.0000
  O   O36       1.0  0.0553636150361001  0.17672735587622407  0.38226145366074604  1.0000
  O   O37       1.0  0.8797725399170845  0.8905348380487438  0.5579284528183447  1.0000
  O   O38       1.0  0.17919398460928457  0.8868985020067868  0.3786800890424117  1.0000
