data_image0
_chemical_formula_structural       Al4H28C56S24O92
_chemical_formula_sum              "Al4 H28 C56 S24 O92"
_cell_length_a       7.2439821330848435
_cell_length_b       18.169743447132266
_cell_length_c       24.16564956020324
_cell_angle_alpha    89.99421749399737
_cell_angle_beta     89.99462945436244
_cell_angle_gamma    90.13714135915949

_space_group_name_H-M_alt    "P 1"
_space_group_IT_number       1

loop_
  _space_group_symop_operation_xyz
  'x, y, z'

loop_
  _atom_site_type_symbol
  _atom_site_label
  _atom_site_symmetry_multiplicity
  _atom_site_fract_x
  _atom_site_fract_y
  _atom_site_fract_z
  _atom_site_occupancy
  Al  Al1       1.0  0.0982287637327204  0.7490296951048023  0.24906380763666652  1.0000
  Al  Al2       1.0  0.9017813507515696  0.2510049111221733  0.749037631111669  1.0000
  Al  Al3       1.0  0.5979525974673123  0.7489455084611618  0.2508161974805461  1.0000
  Al  Al4       1.0  0.40204513558516897  0.25107959919498757  0.7507293863071993  1.0000
  H   H1        1.0  0.5858345568151222  0.5808858913730646  0.6087410208101574  1.0000
  H   H2        1.0  0.13564366416596838  0.39734819896137447  0.36626959936617  1.0000
  H   H3        1.0  0.4137110048461921  0.4177996867158312  0.1089074181454492  1.0000
  H   H4        1.0  0.8634500402636788  0.6027300423158195  0.8669659770596921  1.0000
  H   H5        1.0  0.3797198565659698  0.9008047933738863  0.870040267084171  1.0000
  H   H6        1.0  0.6423596323778111  0.10437505162154537  0.13297665077995896  1.0000
  H   H7        1.0  0.6218489247757332  0.09953518243264627  0.369667396024596  1.0000
  H   H8        1.0  0.35898984151908303  0.8960100659400181  0.6326775186957576  1.0000
  H   H9        1.0  0.1398306701294914  0.6822851369877583  0.570616886250761  1.0000
  H   H10       1.0  0.8915995089959238  0.3160067269836304  0.43170228201105226  1.0000
  H   H11       1.0  0.8598543436024213  0.3167183536281683  0.0704654203750295  1.0000
  H   H12       1.0  0.10832266498611179  0.6837573762418429  0.9326595581218129  1.0000
  H   H13       1.0  0.6557523847203156  0.8205613594332846  0.93526319568668  1.0000
  H   H14       1.0  0.3771164417510846  0.1830811843557996  0.0690047935367417  1.0000
  H   H15       1.0  0.3461347146851637  0.1799304345275914  0.4348982425739152  1.0000
  H   H16       1.0  0.6230295149431412  0.8172083070167699  0.5686097312077507  1.0000
  H   H17       1.0  0.8049195680359985  0.3914227470414247  0.6394837573038004  1.0000
  H   H18       1.0  0.5502204851009791  0.5991851484985984  0.47726679833294827  1.0000
  H   H19       1.0  0.19505957002095187  0.607280935296913  0.13999626845496488  1.0000
  H   H20       1.0  0.44927503170787014  0.40013433365482587  0.9773868503631461  1.0000
  H   H21       1.0  0.2930455867574365  0.10526151296146218  0.862255809084708  1.0000
  H   H22       1.0  0.047626553976030585  0.8997326291282519  0.0178725481395645  1.0000
  H   H23       1.0  0.7078703591974289  0.8952185765522738  0.3619467522803532  1.0000
  H   H24       1.0  0.9536669108412283  0.10076507345409877  0.5175572963592643  1.0000
  H   H25       1.0  0.3460803656433241  0.6576015760220598  0.2746385512157659  1.0000
  H   H26       1.0  0.6536973098793551  0.3425888622192018  0.7742854235861998  1.0000
  H   H27       1.0  0.8484279553195506  0.84030374526165  0.2250927386911528  1.0000
  H   H28       1.0  0.15146980379687136  0.15957639989586161  0.7253191089699343  1.0000
  C   C1        1.0  0.34587669029325946  0.8315465310315843  0.32403901429503884  1.0000
  C   C2        1.0  0.6502894260967692  0.17572426048391068  0.6725709152836997  1.0000
  C   C3        1.0  0.6540820525765553  0.16877983889418863  0.8241887292060426  1.0000
  C   C4        1.0  0.34991121614835646  0.8240903076599367  0.17250340888885768  1.0000
  C   C5        1.0  0.8444378474900701  0.6664036720044706  0.17581582629888712  1.0000
  C   C6        1.0  0.152367244531959  0.3262219186437463  0.8271353209111965  1.0000
  C   C7        1.0  0.15550180434487967  0.3331650693863322  0.6754449675348013  1.0000
  C   C8        1.0  0.8475753069048365  0.6740095344099969  0.3273033092632076  1.0000
  C   C9        1.0  0.11932005592838377  0.5353185454543236  0.535672644978284  1.0000
  C   C10       1.0  0.908519418339999  0.45960206025305417  0.46023911100479614  1.0000
  C   C11       1.0  0.8800496404632199  0.46382460134288556  0.0359635437672736  1.0000
  C   C12       1.0  0.0907889954575651  0.5398859883612062  0.9606740653217256  1.0000
  C   C13       1.0  0.6170678179102609  0.9659609987970297  0.9636043414401173  1.0000
  C   C14       1.0  0.40925432106293147  0.03966211061911909  0.040560641360201495  1.0000
  C   C15       1.0  0.38419636706375826  0.0344633174529818  0.4633012571452325  1.0000
  C   C16       1.0  0.591958975107701  0.9606449797666201  0.5402129127496095  1.0000
  C   C17       1.0  0.9079933018899167  0.5503133695514321  0.5236899974695817  1.0000
  C   C18       1.0  0.12030701014143827  0.4446228401152013  0.4725859303113609  1.0000
  C   C19       1.0  0.0913331303940836  0.44885878098451554  0.023904623667320397  1.0000
  C   C20       1.0  0.8790440239762702  0.5548163617358383  0.9731132598068726  1.0000
  C   C21       1.0  0.40723818698735664  0.9492132462087852  0.9773167234633178  1.0000
  C   C22       1.0  0.6192283371776881  0.0566284301503757  0.026686039949268495  1.0000
  C   C23       1.0  0.5940764091735813  0.05122321235602809  0.4770207905043335  1.0000
  C   C24       1.0  0.38194193786801384  0.9437518390710976  0.5263762724022669  1.0000
  C   C25       1.0  0.858759641661635  0.6307604588976119  0.3768946711137531  1.0000
  C   C26       1.0  0.15618881242026106  0.37029349602269684  0.6230376247368739  1.0000
  C   C27       1.0  0.1409678708785052  0.36919727463102686  0.8768481469037254  1.0000
  C   C28       1.0  0.8435925252500452  0.6289017784117091  0.12356677488002528  1.0000
  C   C29       1.0  0.36182789924072967  0.8679931842244456  0.12321671976140179  1.0000
  C   C30       1.0  0.6509622051172171  0.13102675479670006  0.8764416519474592  1.0000
  C   C31       1.0  0.6386478347206505  0.13203126342641977  0.6231753797456108  1.0000
  C   C32       1.0  0.34931979830826515  0.869393029335164  0.3762157395584822  1.0000
  C   C33       1.0  0.1599300735763336  0.5302700234552445  0.47135067221758215  1.0000
  C   C34       1.0  0.8680011570155627  0.464373796795357  0.5243806810817446  1.0000
  C   C35       1.0  0.8394078746382191  0.46917093008934063  0.9716661973942918  1.0000
  C   C36       1.0  0.13139852728671997  0.5347785110864933  0.024789734700760797  1.0000
  C   C37       1.0  0.6630870558881838  0.9712022999828919  0.0275839530345152  1.0000
  C   C38       1.0  0.36310029141510103  0.03463152989353801  0.9768028152388624  1.0000
  C   C39       1.0  0.3382834742257613  0.02921871451439269  0.5272983042625725  1.0000
  C   C40       1.0  0.6380494042425867  0.9657762781364098  0.4764521649864903  1.0000
  C   C41       1.0  0.9481373067199498  0.5450202732654859  0.4594007092787179  1.0000
  C   C42       1.0  0.07881548642779278  0.4497617905792168  0.5364977749362794  1.0000
  C   C43       1.0  0.051201477341770385  0.4544392448663784  0.9596279766965521  1.0000
  C   C44       1.0  0.920667276899202  0.5493642718279047  0.0370051187835401  1.0000
  C   C45       1.0  0.45256258642604746  0.9546986031281217  0.04111669898967559  1.0000
  C   C46       1.0  0.5726072978325476  0.051061576942075186  0.9630565042402353  1.0000
  C   C47       1.0  0.5487603061787851  0.045633806786078396  0.5408358045706265  1.0000
  C   C48       1.0  0.4285251663260111  0.9493478631726759  0.462759940289672  1.0000
  C   C49       1.0  0.8885380111017935  0.592819079753184  0.4170760643391915  1.0000
  C   C50       1.0  0.1358784654707321  0.403431268743077  0.5799982840264803  1.0000
  C   C51       1.0  0.1109462568036292  0.4068392502319326  0.9171760812034009  1.0000
  C   C52       1.0  0.8640591617205969  0.5955875211108719  0.0806142342194676  1.0000
  C   C53       1.0  0.39482545246324446  0.9063564164995268  0.08344140747350788  1.0000
  C   C54       1.0  0.6267674780644227  0.09767020465650936  0.9192581591432472  1.0000
  C   C55       1.0  0.6063521872024251  0.09384377698003728  0.5832615628923961  1.0000
  C   C56       1.0  0.37426495347871475  0.9027498221797216  0.4189881098399511  1.0000
  S   S1        1.0  0.7878106571261513  0.6287830148449343  0.5533269501213312  1.0000
  S   S2        1.0  0.23199810696116427  0.36309584051485194  0.4451701197621389  1.0000
  S   S3        1.0  0.2115866793065493  0.370293258659764  0.0533718234822089  1.0000
  S   S4        1.0  0.7672497050603226  0.6365127916511356  0.945987173689609  1.0000
  S   S5        1.0  0.30118529390163923  0.8670298320930953  0.9494606063608444  1.0000
  S   S6        1.0  0.7268075654254601  0.13970251999333527  0.0534211606797541  1.0000
  S   S7        1.0  0.7003383918812317  0.13337316217571524  0.44909236192791  1.0000
  S   S8        1.0  0.2739263361890565  0.860744222738681  0.553160900990818  1.0000
  S   S9        1.0  0.2239053735239978  0.5770937767674338  0.5963563889677842  1.0000
  S   S10       1.0  0.7937168584130558  0.4179988289456986  0.40086629395567996  1.0000
  S   S11       1.0  0.7756473595141101  0.4216813959478357  0.09654907239754348  1.0000
  S   S12       1.0  0.20580418088854194  0.5819145041803039  0.9014562188721982  1.0000
  S   S13       1.0  0.7271254060278308  0.9253862173717309  0.9027673401805956  1.0000
  S   S14       1.0  0.29448003994113486  0.07967562636729748  0.100471366537036  1.0000
  S   S15       1.0  0.2743084699840068  0.0750881378696207  0.40243865471637  1.0000
  S   S16       1.0  0.7066545453981375  0.9204956864453706  0.6000523382734357  1.0000
  S   S17       1.0  0.6933814081729109  0.41152448768447414  0.5581795326834751  1.0000
  S   S18       1.0  0.309950005779548  0.5834487110711849  0.4283654167192524  1.0000
  S   S19       1.0  0.3063304048927762  0.5873594461203098  0.0586948654160935  1.0000
  S   S20       1.0  0.6895646731323382  0.4161371858491235  0.9285333429218666  1.0000
  S   S21       1.0  0.18523355369129743  0.08613389832838439  0.9435871780572712  1.0000
  S   S22       1.0  0.8151940174829732  0.9172905636315887  0.0692987189997183  1.0000
  S   S23       1.0  0.8158192379646464  0.9143700674960089  0.443196993519571  1.0000
  S   S24       1.0  0.1861849423019777  0.08324106939163298  0.5689700790216037  1.0000
  O   O1        1.0  0.5064492821660024  0.8076673918340304  0.1929576611254262  1.0000
  O   O2        1.0  0.49215398473750577  0.18132955169344459  0.8048562986168121  1.0000
  O   O3        1.0  0.4937064763299972  0.1919908770263845  0.6930710839968484  1.0000
  O   O4        1.0  0.5078168397474271  0.8189400216267585  0.3046698185212264  1.0000
  O   O5        1.0  0.003861887655645499  0.6892568884233866  0.3061084858366456  1.0000
  O   O6        1.0  0.992127754470836  0.3202069010136839  0.6937915261878587  1.0000
  O   O7        1.0  0.9961058847939127  0.31108578539245707  0.8058553850892949  1.0000
  O   O8        1.0  0.0078652116246687  0.6794991034054048  0.19406914875238357  1.0000
  O   O9        1.0  0.1890747048663144  0.8168786069774042  0.3035400724332149  1.0000
  O   O10       1.0  0.8106660827211343  0.1921154519161802  0.6903515935352331  1.0000
  O   O11       1.0  0.8108345531129046  0.1834235033035441  0.8036393208498113  1.0000
  O   O12       1.0  0.18946409931808006  0.8077213391062796  0.19025870583931237  1.0000
  O   O13       1.0  0.6890545614422479  0.6803289809684471  0.1973842160393104  1.0000
  O   O14       1.0  0.3128976533961988  0.30924148070705815  0.8098800447750064  1.0000
  O   O15       1.0  0.3109058894306713  0.3194532477813823  0.6970709380675543  1.0000
  O   O16       1.0  0.6870815977318826  0.6910293332708336  0.3100786499494248  1.0000
  O   O17       1.0  0.3476940374125377  0.7029015801864061  0.2530807978012461  1.0000
  O   O18       1.0  0.6522548645325871  0.2971701123624939  0.752850759253448  1.0000
  O   O19       1.0  0.8491181623738201  0.7949591033350244  0.2466030031156379  1.0000
  O   O20       1.0  0.15090519679429087  0.2050228644118661  0.7466965816112247  1.0000
  O   O21       1.0  0.9229979498374944  0.6862216398028949  0.560725585312511  1.0000
  O   O22       1.0  0.6347407773451508  0.648646227999336  0.517897683548469  1.0000
  O   O23       1.0  0.7184232330994361  0.603467255192065  0.6101221291449548  1.0000
  O   O24       1.0  0.4065712410282174  0.3487002181499931  0.46930421061763633  1.0000
  O   O25       1.0  0.08890160397795198  0.30716707638569557  0.4534631803017532  1.0000
  O   O26       1.0  0.25885295954099513  0.3802791119436861  0.38284383944706946  1.0000
  O   O27       1.0  0.07648160687907078  0.31279024603924904  0.060639468043575596  1.0000
  O   O28       1.0  0.3647152228187308  0.35061065509746203  0.017909545509788  1.0000
  O   O29       1.0  0.28098813777150866  0.39535684741504434  0.1102230999691258  1.0000
  O   O30       1.0  0.5927488795612135  0.6507865468211164  0.9702093358308373  1.0000
  O   O31       1.0  0.9103372452562579  0.6924045668812512  0.9543334362123657  1.0000
  O   O32       1.0  0.7401754440667858  0.6195743317559347  0.8836228009939617  1.0000
  O   O33       1.0  0.4433698741809309  0.8116477858087306  0.9547112916410612  1.0000
  O   O34       1.0  0.1282466122171257  0.8497864020928032  0.9758090285438782  1.0000
  O   O35       1.0  0.25709200425960427  0.8855778269053898  0.8885485721256501  1.0000
  O   O36       1.0  0.8973664481271796  0.1576069346612883  0.027841876790802196  1.0000
  O   O37       1.0  0.5777041544489733  0.19314748661830086  0.0473724618537545  1.0000
  O   O38       1.0  0.7632209430612917  0.12169312816923387  0.1152961941650901  1.0000
  O   O39       1.0  0.5583529041227635  0.18883358235427747  0.4543781245518089  1.0000
  O   O40       1.0  0.8733683178837239  0.15055840541214846  0.4753959572435491  1.0000
  O   O41       1.0  0.7444079865286001  0.11480687840181497  0.38818436914895926  1.0000
  O   O42       1.0  0.10310855564683409  0.8430899344918712  0.5276577333804795  1.0000
  O   O43       1.0  0.42255128271956005  0.8070914846307744  0.5470460441063807  1.0000
  O   O44       1.0  0.2379920724297975  0.878773683120073  0.6150508230602156  1.0000
  O   O45       1.0  0.0831954908570509  0.5689547109672333  0.6375308532134198  1.0000
  O   O46       1.0  0.40333317428945037  0.5464875972428942  0.6083983547044197  1.0000
  O   O47       1.0  0.2629246962790289  0.6581479772894454  0.5789008067498997  1.0000
  O   O48       1.0  0.6185812235120167  0.44937852274432527  0.38977292084000226  1.0000
  O   O49       1.0  0.9354477353128983  0.42556989162319064  0.3580879734787246  1.0000
  O   O50       1.0  0.767339763241729  0.33639778966440287  0.4178734524084006  1.0000
  O   O51       1.0  0.9165599134591176  0.42953714887149624  0.1376815465012768  1.0000
  O   O52       1.0  0.5962762843408169  0.452205733728981  0.10877420440987612  1.0000
  O   O53       1.0  0.7366476029753598  0.3407507823847951  0.0788249603180162  1.0000
  O   O54       1.0  0.3808369506906502  0.550489417255683  0.8902845144761571  1.0000
  O   O55       1.0  0.0642315184565589  0.5748670085986871  0.8586121533005624  1.0000
  O   O56       1.0  0.2325240231127665  0.6633943534762848  0.9188268050061268  1.0000
  O   O57       1.0  0.5781561857921247  0.9270927262370987  0.8618674035323365  1.0000
  O   O58       1.0  0.8953223761899094  0.959811693543045  0.887450813155688  1.0000
  O   O59       1.0  0.7719713358003374  0.8453456632358679  0.9211462934533542  1.0000
  O   O60       1.0  0.12363542903813138  0.04491886199705419  0.11257994082776429  1.0000
  O   O61       1.0  0.4394659589782464  0.07582910479949588  0.1424202603009874  1.0000
  O   O62       1.0  0.2563416208366148  0.1603366848489856  0.08300428646857229  1.0000
  O   O63       1.0  0.4233118535372497  0.0731608937793169  0.3615324007571701  1.0000
  O   O64       1.0  0.10589298136160609  0.04083054030239449  0.38711994231344693  1.0000
  O   O65       1.0  0.229880010103642  0.155197870606159  0.4207489845825805  1.0000
  O   O66       1.0  0.8777242553676246  0.9551228088310989  0.6120714172238237  1.0000
  O   O67       1.0  0.5618684498226894  0.9244402316912709  0.6420664320230712  1.0000
  O   O68       1.0  0.7440926795972729  0.8398065313081488  0.5825362619322263  1.0000
  O   O69       1.0  0.5237770308286186  0.4457874518337589  0.5431475886890382  1.0000
  O   O70       1.0  0.7357593100114456  0.33579112734254574  0.5477271437990865  1.0000
  O   O71       1.0  0.7273496653727278  0.42964269453990045  0.6217938396174247  1.0000
  O   O72       1.0  0.28523228960883534  0.555705687712077  0.373391137458391  1.0000
  O   O73       1.0  0.27132207240869377  0.6589040464279774  0.4421686019929609  1.0000
  O   O74       1.0  0.5029639611598639  0.5607438452025306  0.44981095999187903  1.0000
  O   O75       1.0  0.47563761550735956  0.5529439952924377  0.0435140844194351  1.0000
  O   O76       1.0  0.26446044812801256  0.663206131863042  0.0484633639823357  1.0000
  O   O77       1.0  0.27252587987587157  0.5690364793273728  0.12228883027491122  1.0000
  O   O78       1.0  0.7144530736084888  0.444106446709874  0.8736297483333928  1.0000
  O   O79       1.0  0.728171026955053  0.3406350700795358  0.9421885570405023  1.0000
  O   O80       1.0  0.4964462994082694  0.43867188949450037  0.9499788521261365  1.0000
  O   O81       1.0  0.015815985508289998  0.052769482535460085  0.9600155057471865  1.0000
  O   O82       1.0  0.22920438629989087  0.16224865942218258  0.9523511042230624  1.0000
  O   O83       1.0  0.21874982162375287  0.06614080439314307  0.880093743921023  1.0000
  O   O84       1.0  0.7960239545993204  0.9449862363875994  0.12444909484292307  1.0000
  O   O85       1.0  0.7710108582041996  0.8422122435434716  0.055552035693303  1.0000
  O   O86       1.0  0.008805256563654499  0.9378014759428125  0.0466129810267404  1.0000
  O   O87       1.0  0.9850885669264428  0.9478244715155808  0.4596483843277496  1.0000
  O   O88       1.0  0.7720762486477496  0.8382238950580286  0.4519054006682452  1.0000
  O   O89       1.0  0.7822074883570521  0.9343769666398816  0.3796981780747331  1.0000
  O   O90       1.0  0.2053286282541578  0.05566593672556049  0.6241544113117996  1.0000
  O   O91       1.0  0.2304916631346785  0.15828036393410366  0.5551309181822432  1.0000
  O   O92       1.0  0.9925621793856222  0.06273965696889408  0.546324527563911  1.0000
