data_image0
_chemical_formula_structural       AlH27C51O18
_chemical_formula_sum              "Al1 H27 C51 O18"
_cell_length_a       4.0862038934413425
_cell_length_b       23.49777313555002
_cell_length_c       23.463198621136197
_cell_angle_alpha    60.30541294724155
_cell_angle_beta     87.13474888351487
_cell_angle_gamma    86.92921111946961

_space_group_name_H-M_alt    "P 1"
_space_group_IT_number       1

loop_
  _space_group_symop_operation_xyz
  'x, y, z'

loop_
  _atom_site_type_symbol
  _atom_site_label
  _atom_site_symmetry_multiplicity
  _atom_site_fract_x
  _atom_site_fract_y
  _atom_site_fract_z
  _atom_site_occupancy
  Al  Al1       1.0  0.0035573520424989884  0.500897265951359  0.49956798655658463  1.0000
  H   H1        1.0  0.3226239940918206  0.32686610179811737  0.6741439785867055  1.0000
  H   H2        1.0  0.32767372705790626  0.25661656951717754  0.7938088106646431  1.0000
  H   H3        1.0  0.7642634435691207  0.15221833332122253  0.021180550066318922  1.0000
  H   H4        1.0  0.5507090121137422  0.8068630674268392  0.26590575184760445  1.0000
  H   H5        1.0  0.255719542366073  0.8876859776397765  0.2441193089122321  1.0000
  H   H6        1.0  0.23126674641940073  0.006171025326217699  0.1762841274097227  1.0000
  H   H7        1.0  0.47568832318722093  0.0990948615285845  0.11088181455347978  1.0000
  H   H8        1.0  0.4626551360350817  0.6734434175870944  0.5083981287010175  1.0000
  H   H9        1.0  0.4508454714401112  0.7938204053638667  0.4561200123517253  1.0000
  H   H10       1.0  0.7633405436675671  0.021281915130337798  0.32098898315071966  1.0000
  H   H11       1.0  0.7480673974179695  0.2696693484179207  0.4161386315931921  1.0000
  H   H12       1.0  0.2916169694687127  0.24179014473072152  0.37373541679202293  1.0000
  H   H13       1.0  0.25068420338609326  0.17489541914717674  0.3209445875259575  1.0000
  H   H14       1.0  0.503097544990368  0.11022073161933578  0.28818102234869497  1.0000
  H   H15       1.0  0.32541162251370537  0.4984629519214677  0.3289809799562632  1.0000
  H   H16       1.0  0.320075597700857  0.44734331050596393  0.25934335965479965  1.0000
  H   H17       1.0  0.7810681387971669  0.318776368455552  0.1521514023773136  1.0000
  H   H18       1.0  0.6616286439056226  0.4186670406962775  0.8112766582753607  1.0000
  H   H19       1.0  0.23270239137039533  0.3702897247354784  0.8897377947044518  1.0000
  H   H20       1.0  0.2026383141406853  0.3171614392327058  0.009826822161627984  1.0000
  H   H21       1.0  0.48732852229725393  0.28673665541246146  0.1006772668198366  1.0000
  H   H22       1.0  0.02537932302494987  0.3696887352123781  0.5086617666924125  1.0000
  H   H23       1.0  0.9585330528423339  0.5131964960692769  0.6197730398131184  1.0000
  H   H24       1.0  0.8492236413381065  0.649577802102506  0.30148717890354965  1.0000
  H   H25       1.0  0.1728746956844276  0.36311589881583467  0.15950041627013437  1.0000
  H   H26       1.0  0.1594919202889428  0.1628665811952672  0.9638779120885415  1.0000
  H   H27       1.0  0.15838781744158575  0.9657875106516512  0.36297509955490886  1.0000
  C   C1        1.0  0.49592018961158135  0.45020471915879756  0.6014815033490988  1.0000
  C   C2        1.0  0.5351180995443556  0.44855405126492087  0.4498119359573065  1.0000
  C   C3        1.0  0.4881599197699629  0.5998094574872468  0.45082670172526207  1.0000
  C   C4        1.0  0.40275744652366535  0.3465663674322314  0.7043751910755629  1.0000
  C   C5        1.0  0.406658201629824  0.3066727400077127  0.7721729386509107  1.0000
  C   C6        1.0  0.6645419893420907  0.22984110080678724  0.9232459851928778  1.0000
  C   C7        1.0  0.6458748360820437  0.20036183403393437  0.9920148888357402  1.0000
  C   C8        1.0  0.49297207026209827  0.7110468946342436  0.3480039995214027  1.0000
  C   C9        1.0  0.5230905902307227  0.7786552571181813  0.3191688069518718  1.0000
  C   C10       1.0  0.37952824129202867  0.9164937412353279  0.26079034778698673  1.0000
  C   C11       1.0  0.3642375127616119  0.9841685597325096  0.22192278310152574  1.0000
  C   C12       1.0  0.4976666068560007  0.41180578560354764  0.6747715916475625  1.0000
  C   C13       1.0  0.5108326137552764  0.33116572457166876  0.8119010115439166  1.0000
  C   C14       1.0  0.5115552669934117  0.29253533032483137  0.8847318740571307  1.0000
  C   C15       1.0  0.4838675351774313  0.23002164385923848  0.025100189388375327  1.0000
  C   C16       1.0  0.4785097181778255  0.19678075530433856  0.09757826159155061  1.0000
  C   C17       1.0  0.4792121526717352  0.12819619405525629  0.13536511575870946  1.0000
  C   C18       1.0  0.4797497229306912  0.7031513473876386  0.45506154499587825  1.0000
  C   C19       1.0  0.47894667798613716  0.7710372286022461  0.425636469481269  1.0000
  C   C20       1.0  0.6740645853962804  0.9229139528900911  0.34392753168320667  1.0000
  C   C21       1.0  0.6552049333206397  0.9914860836750843  0.30359174512395265  1.0000
  C   C22       1.0  0.663736825131238  0.3485478145734717  0.43597923991198667  1.0000
  C   C23       1.0  0.6618141624809581  0.3206227152870581  0.3954078478884638  1.0000
  C   C24       1.0  0.40055627837978836  0.25890943609516626  0.3247874319565155  1.0000
  C   C25       1.0  0.38048281167207415  0.22068792595986508  0.2951808175036916  1.0000
  C   C26       1.0  0.4881720310665542  0.672582304045747  0.416796101944925  1.0000
  C   C27       1.0  0.5195848689502539  0.8101124077533439  0.3571006344687574  1.0000
  C   C28       1.0  0.5303115166026515  0.8829121161236415  0.3224549271968229  1.0000
  C   C29       1.0  0.5020351438122788  0.023808399048107297  0.24296346448861778  1.0000
  C   C30       1.0  0.4889880520509706  0.09616003971893147  0.20404543118055324  1.0000
  C   C31       1.0  0.49485612654746086  0.13424902898304228  0.23483611425725565  1.0000
  C   C32       1.0  0.42497729485864966  0.44863576746428874  0.34733759189808205  1.0000
  C   C33       1.0  0.42337053267212343  0.41993469718266135  0.30783194100637695  1.0000
  C   C34       1.0  0.6882058112368696  0.3418280523781688  0.2297050088054391  1.0000
  C   C35       1.0  0.6703932948651782  0.3020230023140869  0.20090978211024435  1.0000
  C   C36       1.0  0.5868530549281556  0.4381918904679055  0.7138488652696676  1.0000
  C   C37       1.0  0.591816283355996  0.3971990318625059  0.7819155420410623  1.0000
  C   C38       1.0  0.35317028800823635  0.32231813648483854  0.9185637278717136  1.0000
  C   C39       1.0  0.33757112183356236  0.2924059330256198  0.9865924518538945  1.0000
  C   C40       1.0  0.5488100637397794  0.4138484599486175  0.4108116160122677  1.0000
  C   C41       1.0  0.5506712055078606  0.3556544863111597  0.3311175840173845  1.0000
  C   C42       1.0  0.5472044845985878  0.3204570071366817  0.293225329463219  1.0000
  C   C43       1.0  0.5140753873096884  0.24191420353092494  0.2317808640062465  1.0000
  C   C44       1.0  0.49513204009279826  0.20284336943671372  0.1984580309605164  1.0000
  C   C45       1.0  0.4851736907928271  0.23340465971586602  0.12983853254883831  1.0000
  C   C46       1.0  0.7598733034760768  0.3031475584537659  0.5058603632216216  1.0000
  C   C47       1.0  0.6484501489401353  0.5094527203460116  0.6885828953544432  1.0000
  C   C48       1.0  0.4131508559615326  0.6807855467073549  0.3072610887474738  1.0000
  C   C49       1.0  0.8532739430845241  0.406258001430885  0.19028953099540757  1.0000
  C   C50       1.0  0.8458161221656082  0.1917426374728564  0.8947791550043218  1.0000
  C   C51       1.0  0.8305397250078741  0.9001268910606652  0.4092970881036492  1.0000
  O   O1        1.0  0.26326749230366886  0.5717958638666472  0.4387031180312916  1.0000
  O   O2        1.0  0.24898678253353523  0.4889363994880753  0.5737984233572033  1.0000
  O   O3        1.0  0.289030808633612  0.4380830405731756  0.4896498940612802  1.0000
  O   O4        1.0  0.7174190992313567  0.5701819585570931  0.4910994123180002  1.0000
  O   O5        1.0  0.7602930130330205  0.48802351463450566  0.4392554396997567  1.0000
  O   O6        1.0  0.7367492660015386  0.4399348925524507  0.5710833107250792  1.0000
  O   O7        1.0  0.9162531143745625  0.32803174587952805  0.5377988984976482  1.0000
  O   O8        1.0  0.6896317793165138  0.24569925505436163  0.5336319893717416  1.0000
  O   O9        1.0  0.8244554970107528  0.5422320688503037  0.631789672253248  1.0000
  O   O10       1.0  0.5345536385461785  0.5372456475239031  0.7175503477213281  1.0000
  O   O11       1.0  0.613445818808273  0.6380096875407941  0.30134202324615694  1.0000
  O   O12       1.0  0.14020556405873924  0.6945526744217003  0.28237656468292727  1.0000
  O   O13       1.0  0.09502869656354562  0.40779470980211824  0.147031220148513  1.0000
  O   O14       1.0  0.7812737642152852  0.45582114375557825  0.19265994305212794  1.0000
  O   O15       1.0  0.09293715744035319  0.15025463131669173  0.9322864787060821  1.0000
  O   O16       1.0  0.7832251328395188  0.19348367838711764  0.8439651177571432  1.0000
  O   O17       1.0  0.07244865081994326  0.938842167784429  0.40781399886318315  1.0000
  O   O18       1.0  0.7461719077158051  0.8548643592421781  0.46187998832674276  1.0000
