data_image0
_chemical_formula_structural       Ag4H24C20S16N4O12
_chemical_formula_sum              "Ag4 H24 C20 S16 N4 O12"
_cell_length_a       7.6899067174964015
_cell_length_b       9.120869136309746
_cell_length_c       14.419190924843628
_cell_angle_alpha    90.00100635683738
_cell_angle_beta     91.65614932509988
_cell_angle_gamma    89.99748235141541

_space_group_name_H-M_alt    "P 1"
_space_group_IT_number       1

loop_
  _space_group_symop_operation_xyz
  'x, y, z'

loop_
  _atom_site_type_symbol
  _atom_site_label
  _atom_site_symmetry_multiplicity
  _atom_site_fract_x
  _atom_site_fract_y
  _atom_site_fract_z
  _atom_site_occupancy
  Ag  Ag1       1.0  0.5785628821672261  0.5073063007706653  0.8728145585950458  1.0000
  Ag  Ag2       1.0  0.07857528717141093  0.9927137379745404  0.872815183962672  1.0000
  Ag  Ag3       1.0  0.42140811654451227  0.4927011772450598  0.1271923349036257  1.0000
  Ag  Ag4       1.0  0.9214375080332787  0.007303606641222901  0.12718643650922706  1.0000
  H   H1        1.0  0.4491655906988612  0.7063536762701118  0.5893248136878031  1.0000
  H   H2        1.0  0.9492026310412952  0.7936328893859823  0.5893319407090658  1.0000
  H   H3        1.0  0.5508175146591723  0.29361981331580717  0.41066779490545  1.0000
  H   H4        1.0  0.0507918391964424  0.20637458815593854  0.41067341631477927  1.0000
  H   H5        1.0  0.5201198867748856  0.7667824382203747  0.7043960864999619  1.0000
  H   H6        1.0  0.020122628063518302  0.7332228858594833  0.7044089033887533  1.0000
  H   H7        1.0  0.4798750582816139  0.23320859325903603  0.29559194159537583  1.0000
  H   H8        1.0  0.9798614923714624  0.266794459328402  0.2955941328942231  1.0000
  H   H9        1.0  0.3027380849221402  0.7058908041239605  0.6836024335608502  1.0000
  H   H10       1.0  0.8027353272271042  0.7941063319773746  0.6835885285662187  1.0000
  H   H11       1.0  0.6972578005016674  0.29409584198253197  0.3163987946032876  1.0000
  H   H12       1.0  0.19724904025499512  0.20589676004694007  0.31640549664597023  1.0000
  H   H13       1.0  0.14024165667274957  0.40668007029493947  0.8308369112934743  1.0000
  H   H14       1.0  0.6402323246365285  0.0933286041272083  0.8308067817557118  1.0000
  H   H15       1.0  0.8597471178581132  0.5932901304678426  0.16918634688556017  1.0000
  H   H16       1.0  0.35977246541644803  0.9066931256012366  0.16915442464910063  1.0000
  H   H17       1.0  0.02459987771678131  0.40737674613149005  0.9363079731425474  1.0000
  H   H18       1.0  0.5245776469410616  0.09267562808679491  0.9362747627109587  1.0000
  H   H19       1.0  0.9753966440163425  0.5926230569572367  0.06371754563904372  1.0000
  H   H20       1.0  0.47543881139718286  0.9073888605243214  0.0636881017048339  1.0000
  H   H21       1.0  0.003227951798081101  0.5616310622959731  0.8585884474514318  1.0000
  H   H22       1.0  0.5032090857353708  0.9383980388746809  0.858570201136807  1.0000
  H   H23       1.0  0.996797491561587  0.43836216176426757  0.14142664448594644  1.0000
  H   H24       1.0  0.4967924950690943  0.061639040651869  0.1414131259366513  1.0000
  C   C1        1.0  0.43798958295739954  0.6906678792892935  0.6641803957724477  1.0000
  C   C2        1.0  0.9380025633300236  0.8093333560735874  0.6641822816494383  1.0000
  C   C3        1.0  0.5619961048285658  0.30931438135186806  0.3358129663496143  1.0000
  C   C4        1.0  0.06198413975037202  0.19068398907559472  0.3358215081193237  1.0000
  C   C5        1.0  0.021390991933763807  0.442971044868834  0.8638301718369163  1.0000
  C   C6        1.0  0.5213730145217284  0.057060704250027114  0.8638008314465682  1.0000
  C   C7        1.0  0.9786173511194534  0.5570221796154868  0.136191459482383  1.0000
  C   C8        1.0  0.4786264200954379  0.9429763750747783  0.13616579960107342  1.0000
  C   C9        1.0  0.8338441427033983  0.4183786034908508  0.6987720954316998  1.0000
  C   C10       1.0  0.333825241785746  0.08163193600455541  0.6987550055002674  1.0000
  C   C11       1.0  0.1661578670831432  0.5816146210222828  0.3012431466726754  1.0000
  C   C12       1.0  0.6661763589466076  0.9183667699755202  0.3012276282310964  1.0000
  C   C13       1.0  0.6950847203192578  0.478988845398348  0.6516382921731889  1.0000
  C   C14       1.0  0.195067372967543  0.020998250017392202  0.6516261227199324  1.0000
  C   C15       1.0  0.30491476383274124  0.5210010899618993  0.3483741169675199  1.0000
  C   C16       1.0  0.8049274772067604  0.9789927815142931  0.3483653711449791  1.0000
  C   C17       1.0  0.9476574476778125  0.48175725067420666  0.5354167122256612  1.0000
  C   C18       1.0  0.4476274770073659  0.018197010747407198  0.53539520279827  1.0000
  C   C19       1.0  0.05235885275927641  0.5182074675236805  0.46459955471817  1.0000
  C   C20       1.0  0.5523353288814546  0.9817304307063066  0.4645782077584499  1.0000
  S   S1        1.0  0.48807469704779294  0.5027521697360768  0.6957500859905112  1.0000
  S   S2        1.0  0.9880682178949202  0.9972546366115439  0.6957438695114038  1.0000
  S   S3        1.0  0.5119250148214789  0.4972377654987242  0.30425400530323543  1.0000
  S   S4        1.0  0.011930420119540501  0.0027659973511902007  0.3042518739199808  1.0000
  S   S5        1.0  0.8320673103648771  0.3526738364817206  0.8125624808434608  1.0000
  S   S6        1.0  0.3320520723335107  0.1473532403300055  0.812530936876634  1.0000
  S   S7        1.0  0.1679161650886272  0.6473347379676683  0.18746412262957082  1.0000
  S   S8        1.0  0.6679460050055398  0.8526652004761034  0.187437743375412  1.0000
  S   S9        1.0  0.7231536661404832  0.519238237033747  0.533816646800453  1.0000
  S   S10       1.0  0.22312918762133896  0.9807170341429909  0.533807269007518  1.0000
  S   S11       1.0  0.2768731732928841  0.48073963753523696  0.4661950094580192  1.0000
  S   S12       1.0  0.7768473385374648  0.019225756778837408  0.46618796122114503  1.0000
  S   S13       1.0  0.023652556192232096  0.3907588471872289  0.6361615562930325  1.0000
  S   S14       1.0  0.5236218305953741  0.1092420667749323  0.6361234755263114  1.0000
  S   S15       1.0  0.9763658326329363  0.6092409556195478  0.3638734863104105  1.0000
  S   S16       1.0  0.4763828092227769  0.8907160726060325  0.36384327579796866  1.0000
  N   N1        1.0  0.7689176388162622  0.8021526288768541  0.9343285641298849  1.0000
  N   N2        1.0  0.26890495712425627  0.6978827103623716  0.9343503462485573  1.0000
  N   N3        1.0  0.23110296103651956  0.1978734866853671  0.0656732373806648  1.0000
  N   N4        1.0  0.7310866641998499  0.30214888787296706  0.0656639615625778  1.0000
  O   O1        1.0  0.8006774765507246  0.7515493242922986  0.8548825623731775  1.0000
  O   O2        1.0  0.30068926059284  0.7485000223606093  0.8549179511387595  1.0000
  O   O3        1.0  0.19935251397853898  0.24846253791338313  0.14510905292034693  1.0000
  O   O4        1.0  0.6993461138374216  0.25153376807384825  0.1451147111729227  1.0000
  O   O5        1.0  0.6689121148702383  0.7358381845084594  0.9877143692360664  1.0000
  O   O6        1.0  0.16886485026317644  0.7641597974212788  0.9877388502243395  1.0000
  O   O7        1.0  0.3311179894904796  0.2641747740212424  0.012273087139348599  1.0000
  O   O8        1.0  0.8311046013516831  0.23583123495378544  0.012277024028627195  1.0000
  O   O9        1.0  0.8376280965161484  0.9243286395930779  0.960380840652043  1.0000
  O   O10       1.0  0.33764754702439603  0.5756883685117132  0.9603999482215004  1.0000
  O   O11       1.0  0.16237073153455836  0.07568103039768198  0.039607971186434617  1.0000
  O   O12       1.0  0.6623543868020151  0.42430704881672915  0.039618066509284205  1.0000
