data_image0
_chemical_formula_structural       Zn4H32C48N8O16
_chemical_formula_sum              "Zn4 H32 C48 N8 O16"
_cell_length_a       8.313713919008284
_cell_length_b       11.714213730000683
_cell_length_c       12.696973592012728
_cell_angle_alpha    90.00001849512319
_cell_angle_beta     89.9998404709042
_cell_angle_gamma    90.00003491139687

_space_group_name_H-M_alt    "P 1"
_space_group_IT_number       1

loop_
  _space_group_symop_operation_xyz
  'x, y, z'

loop_
  _atom_site_type_symbol
  _atom_site_label
  _atom_site_symmetry_multiplicity
  _atom_site_fract_x
  _atom_site_fract_y
  _atom_site_fract_z
  _atom_site_occupancy
  Zn  Zn1       1.0  0.8936459869783063  0.4269883506840772  0.24706364657850333  1.0000
  Zn  Zn2       1.0  0.6063606118073039  0.5730109772933929  0.7470641802586042  1.0000
  Zn  Zn3       1.0  0.1063518344228598  0.9269884458445147  0.252937485898606  1.0000
  Zn  Zn4       1.0  0.39364679068152236  0.07300895647673399  0.752938136427467  1.0000
  H   H1        1.0  0.179823207419247  0.3402132515483132  0.1392850499154932  1.0000
  H   H2        1.0  0.3201747033555762  0.659789233985947  0.6392860120702789  1.0000
  H   H3        1.0  0.820180555053362  0.8402119907026702  0.36071763124477474  1.0000
  H   H4        1.0  0.6798195410603255  0.1597899370353133  0.8607210566543769  1.0000
  H   H5        1.0  0.36935160944755546  0.4060070145535022  0.9965277525746143  1.0000
  H   H6        1.0  0.1306483743265758  0.5939921781897297  0.4965261689869037  1.0000
  H   H7        1.0  0.6306488565086781  0.9060055483250553  0.5034738781821062  1.0000
  H   H8        1.0  0.8693515722701904  0.09398942823870023  0.0034795873697958998  1.0000
  H   H9        1.0  0.07868989275046799  0.7080374594627159  0.9639108392701768  1.0000
  H   H10       1.0  0.42131383972215986  0.2919676978008994  0.46390627652581157  1.0000
  H   H11       1.0  0.9213092036329728  0.20803645086085254  0.5360938814107925  1.0000
  H   H12       1.0  0.5786838679685856  0.7919602441546943  0.036090089197010386  1.0000
  H   H13       1.0  0.9042589523940164  0.6346770450854393  0.11099266033216539  1.0000
  H   H14       1.0  0.5957422170940205  0.3653256511288702  0.6109931497562896  1.0000
  H   H15       1.0  0.09573862281150979  0.13467835406694922  0.38901074567936417  1.0000
  H   H16       1.0  0.40425701177233725  0.8653233629895141  0.8890061058148714  1.0000
  H   H17       1.0  0.7966541328180838  0.5806273514731474  0.41865661654301073  1.0000
  H   H18       1.0  0.7033481199508741  0.41936947404485647  0.9186474773370105  1.0000
  H   H19       1.0  0.20333978836683997  0.0806251882645483  0.08134756056082179  1.0000
  H   H20       1.0  0.2966547629364412  0.9193832531520058  0.5813510071419825  1.0000
  H   H21       1.0  0.5693657823700065  0.7109826220607264  0.4622632957914944  1.0000
  H   H22       1.0  0.930633877287839  0.2890193403162229  0.962263157969417  1.0000
  H   H23       1.0  0.43062343728345803  0.21098310512379473  0.0377377707534521  1.0000
  H   H24       1.0  0.06937490996485  0.7890210530977271  0.5377376494782453  1.0000
  H   H25       1.0  0.36949063624628303  0.639885137743711  0.15641892892102044  1.0000
  H   H26       1.0  0.1305276490010385  0.36011308532269487  0.6564303802868067  1.0000
  H   H27       1.0  0.6305081461921916  0.13988922787144287  0.3435781779656678  1.0000
  H   H28       1.0  0.869484806610771  0.860107572034501  0.8435751743947504  1.0000
  H   H29       1.0  0.6053034322835202  0.5087402318999281  0.12374240557682727  1.0000
  H   H30       1.0  0.89471452204954  0.49125563935685085  0.6237416066972654  1.0000
  H   H31       1.0  0.3946964425258699  0.008745936589306802  0.37625859922085414  1.0000
  H   H32       1.0  0.1052944355236178  0.991255776117484  0.8762624128436226  1.0000
  C   C1        1.0  0.34743633850667516  0.6045427227164025  0.8839253789482979  1.0000
  C   C2        1.0  0.1525701434103155  0.39545472428957135  0.38392527040358  1.0000
  C   C3        1.0  0.6525614678905285  0.10454418396361119  0.6160745846048667  1.0000
  C   C4        1.0  0.8474312599236667  0.8954482700172831  0.11607664003230407  1.0000
  C   C5        1.0  0.16137068774836652  0.42028007379656174  0.09730499618808607  1.0000
  C   C6        1.0  0.3386322147953322  0.5797206900905466  0.5973043254399569  1.0000
  C   C7        1.0  0.8386271280030968  0.9202805427286265  0.4026961342412533  1.0000
  C   C8        1.0  0.661367976357205  0.07971969200003311  0.9026964181225308  1.0000
  C   C9        1.0  0.2655012288433056  0.4571054316183094  0.0189500154823037  1.0000
  C   C10       1.0  0.23450201048194685  0.5428953055404051  0.5189510964620112  1.0000
  C   C11       1.0  0.7345002264154842  0.9571058813939146  0.4810527013639286  1.0000
  C   C12       1.0  0.7654981496489484  0.04289096540947671  0.9810519986260997  1.0000
  C   C13       1.0  0.236627656795342  0.5618535481439437  0.9695600522851037  1.0000
  C   C14       1.0  0.2633724428950828  0.4381490500549319  0.469557394176057  1.0000
  C   C15       1.0  0.7633701136433758  0.061855882672368495  0.530442261004289  1.0000
  C   C16       1.0  0.736624185070248  0.9381442250717029  0.030444529297653792  1.0000
  C   C17       1.0  0.1034907118438042  0.626164114680158  0.0011561832852961995  1.0000
  C   C18       1.0  0.3965126039782376  0.3738391773988924  0.5011506197694827  1.0000
  C   C19       1.0  0.896509261855833  0.1261658139975879  0.4988472201253982  1.0000
  C   C20       1.0  0.6034854292261258  0.8738318925391441  0.9988478508116568  1.0000
  C   C21       1.0  0.005543923703797299  0.5849090971547711  0.08127299490735848  1.0000
  C   C22       1.0  0.49445664208561607  0.41509166126287056  0.5812719928836997  1.0000
  C   C23       1.0  0.9944548124231645  0.08491081230310733  0.4187280331427842  1.0000
  C   C24       1.0  0.5055402230327671  0.9150894278940954  0.9187264902923854  1.0000
  C   C25       1.0  0.3182376472766109  0.7690786332478298  0.3321671748320298  1.0000
  C   C26       1.0  0.18177025993937687  0.2309290400682116  0.8321690432679244  1.0000
  C   C27       1.0  0.6817576354637181  0.2690698810518484  0.16783312185172142  1.0000
  C   C28       1.0  0.8182396812247461  0.7309294198954105  0.667829383677521  1.0000
  C   C29       1.0  0.6996206101044109  0.595254849454271  0.3626654107990602  1.0000
  C   C30       1.0  0.800385491801208  0.4047411033024347  0.862665543202837  1.0000
  C   C31       1.0  0.3003733234079888  0.09525530909535009  0.1373356204134595  1.0000
  C   C32       1.0  0.1996197844188643  0.9047497367642592  0.6373368747538988  1.0000
  C   C33       1.0  0.5728108376489729  0.6679212477137  0.3864373427862872  1.0000
  C   C34       1.0  0.9271963649116799  0.33208068879912384  0.8864387994941365  1.0000
  C   C35       1.0  0.4271819542321253  0.1679200477979421  0.11356371060985278  1.0000
  C   C36       1.0  0.07281005294220928  0.8320849899520153  0.6135635962798957  1.0000
  C   C37       1.0  0.4518458132124081  0.684994483984674  0.311838575204355  1.0000
  C   C38       1.0  0.04815616720549801  0.3149986701119118  0.8118446482098844  1.0000
  C   C39       1.0  0.5481433845577753  0.1849976311387991  0.18816090822911485  1.0000
  C   C40       1.0  0.9518502362600215  0.8150033840697403  0.688158529938853  1.0000
  C   C41       1.0  0.4622420713776094  0.6274566772840943  0.21570304954617103  1.0000
  C   C42       1.0  0.037773553400555195  0.37254498065945546  0.7157107340325907  1.0000
  C   C43       1.0  0.5377542949210151  0.1274564379977079  0.2842972039050338  1.0000
  C   C44       1.0  0.9622377098499229  0.872543756341223  0.7842956120350308  1.0000
  C   C45       1.0  0.5923066961697145  0.5560716299698711  0.19715361918407837  1.0000
  C   C46       1.0  0.9077061312939065  0.44392597365619924  0.6971559327789975  1.0000
  C   C47       1.0  0.4076908128410892  0.056073047024384  0.30284582488540207  1.0000
  C   C48       1.0  0.092303989245984  0.943926933312852  0.8028496474911789  1.0000
  N   N1        1.0  0.03384160280535299  0.4833436091995155  0.12805181781994424  1.0000
  N   N2        1.0  0.4661587619173915  0.5166528968565629  0.6280508978333257  1.0000
  N   N3        1.0  0.9661574688908844  0.9833466848319788  0.37195011944930195  1.0000
  N   N4        1.0  0.5338377676187916  0.016655246736370102  0.8719521892480626  1.0000
  N   N5        1.0  0.7092554703136855  0.5402029120307291  0.2695235129734782  1.0000
  N   N6        1.0  0.7907546404379815  0.45979215528947043  0.7695197416086188  1.0000
  N   N7        1.0  0.2907408224938237  0.0402051065273881  0.23047907661000974  1.0000
  N   N8        1.0  0.20925188498015498  0.9597991174420883  0.7304819055628897  1.0000
  O   O1        1.0  0.480784676494892  0.5477117918492169  0.8765053716401919  1.0000
  O   O2        1.0  0.0192134174910237  0.45229333559812085  0.37650709611478544  1.0000
  O   O3        1.0  0.5192166905361689  0.04770722122002271  0.6234922117923175  1.0000
  O   O4        1.0  0.9807832223925316  0.9522937719304352  0.12349325649902448  1.0000
  O   O5        1.0  0.30606148327240845  0.6869340639913587  0.8278616751477869  1.0000
  O   O6        1.0  0.1939344141441381  0.31307446151608076  0.32785752890011816  1.0000
  O   O7        1.0  0.6939327840097035  0.1869287332851783  0.6721422515053985  1.0000
  O   O8        1.0  0.8060681226416335  0.8130697154699005  0.17214356879755136  1.0000
  O   O9        1.0  0.2152982615238912  0.7788009743841331  0.2559475311828692  1.0000
  O   O10       1.0  0.28470395910274954  0.22118959965704485  0.7559633876168373  1.0000
  O   O11       1.0  0.7846958265928875  0.2788033911775969  0.24404568016829123  1.0000
  O   O12       1.0  0.7153023653499274  0.721195082104039  0.7440421246628118  1.0000
  O   O13       1.0  0.317776807053626  0.8256125313724637  0.4156563706752649  1.0000
  O   O14       1.0  0.1822139016362456  0.17437553615444298  0.9156668845163336  1.0000
  O   O15       1.0  0.6822161176579583  0.32561314119912765  0.08433606737755638  1.0000
  O   O16       1.0  0.8177863692456953  0.6743878385939794  0.5843323127648431  1.0000
