data_image0
_chemical_formula_structural       Cd2H38C56N8Cl2O8
_chemical_formula_sum              "Cd2 H38 C56 N8 Cl2 O8"
_cell_length_a       8.485373645223222
_cell_length_b       11.658790053202312
_cell_length_c       14.551772175920634
_cell_angle_alpha    113.05017712084151
_cell_angle_beta     93.33852874009847
_cell_angle_gamma    106.70596027398699

_space_group_name_H-M_alt    "P 1"
_space_group_IT_number       1

loop_
  _space_group_symop_operation_xyz
  'x, y, z'

loop_
  _atom_site_type_symbol
  _atom_site_label
  _atom_site_symmetry_multiplicity
  _atom_site_fract_x
  _atom_site_fract_y
  _atom_site_fract_z
  _atom_site_occupancy
  Cd  Cd1       1.0  0.7041804463525523  0.0671027390878578  0.08408087297915758  1.0000
  Cd  Cd2       1.0  0.29582328035021277  0.9329039483326297  0.9159204695918601  1.0000
  H   H1        1.0  0.9820976656019199  0.5109760426677925  0.09732944175296158  1.0000
  H   H2        1.0  0.017905008071139206  0.4890256767511687  0.9026696158170037  1.0000
  H   H3        1.0  0.23370339043486876  0.6969389894462737  0.11704908428129811  1.0000
  H   H4        1.0  0.7662962094976605  0.30306377305033283  0.8829502020816375  1.0000
  H   H5        1.0  0.5438068527236484  0.46090211269473264  0.11855779476194779  1.0000
  H   H6        1.0  0.4561989180488554  0.5391065407286534  0.8814401095752158  1.0000
  H   H7        1.0  0.2903570694842159  0.2790153078732871  0.1050147063906195  1.0000
  H   H8        1.0  0.7096520586667553  0.7209903044749951  0.8949823494578906  1.0000
  H   H9        1.0  0.4148809795929438  0.7704470218696926  0.03852193405952422  1.0000
  H   H10       1.0  0.585118324815262  0.22955774080342195  0.961475223483468  1.0000
  H   H11       1.0  0.03477801816519836  0.9809490416468806  0.1469964231480745  1.0000
  H   H12       1.0  0.9652256703206703  0.019049671415359615  0.8530024082182519  1.0000
  H   H13       1.0  0.195481846414424  0.9063582032693847  0.24880112964780204  1.0000
  H   H14       1.0  0.8045187713025115  0.09364155232572811  0.7511986176403906  1.0000
  H   H15       1.0  0.05058673781182681  0.723266565081353  0.2924545434357099  1.0000
  H   H16       1.0  0.9494146021651988  0.27673218378877357  0.7075435359578034  1.0000
  H   H17       1.0  0.7429299367233569  0.6068263829568465  0.23668837422321323  1.0000
  H   H18       1.0  0.2570689290626973  0.39317738844379596  0.7633098315187822  1.0000
  H   H19       1.0  0.052053376089141096  0.2754825949121056  0.2629941659044305  1.0000
  H   H20       1.0  0.9479442005748243  0.7245181977682621  0.7370133685946951  1.0000
  H   H21       1.0  0.49889720941660437  0.9802537478965335  0.2671668371798717  1.0000
  H   H22       1.0  0.501102922546501  0.01973704370214341  0.7328293857159023  1.0000
  H   H23       1.0  0.47653802023500447  0.889314383715906  0.3986642426690851  1.0000
  H   H24       1.0  0.5234485998372663  0.11067262455618732  0.6013289775141145  1.0000
  H   H25       1.0  0.7200300157629442  0.9583357945549836  0.532983447922028  1.0000
  H   H26       1.0  0.27995895578976615  0.0416511773644501  0.46701121136288026  1.0000
  H   H27       1.0  0.9957807198985833  0.1148832879565234  0.5407887434428246  1.0000
  H   H28       1.0  0.004211044728322064  0.8851046383379639  0.4592069938737067  1.0000
  H   H29       1.0  0.17675021645523256  0.3309340585751812  0.5826170194918558  1.0000
  H   H30       1.0  0.823249974525929  0.6690647035684166  0.4173865245109524  1.0000
  H   H31       1.0  0.483893647008756  0.40929273771394736  0.6512921622609864  1.0000
  H   H32       1.0  0.516106585160891  0.5907139982431389  0.34871458007542333  1.0000
  H   H33       1.0  0.5796904065806602  0.2870632017889108  0.3460378850888332  1.0000
  H   H34       1.0  0.4203008408736579  0.7129366926796906  0.6539643513393826  1.0000
  H   H35       1.0  0.27481908295624186  0.2006929825463431  0.2769089039416953  1.0000
  H   H36       1.0  0.7251758675041343  0.7993098428498513  0.7230998725381209  1.0000
  H   H37       1.0  0.9028642370838967  0.4722722959891287  0.6556675172137145  1.0000
  H   H38       1.0  0.09713140039126957  0.5277215477790662  0.34433776729563437  1.0000
  C   C1        1.0  0.9660733613760399  0.2706694394740979  0.08502934609017389  1.0000
  C   C2        1.0  0.03393490141700552  0.7293341881501976  0.9149725546719477  1.0000
  C   C3        1.0  0.11990521251524199  0.38280426493516734  0.09854796825103308  1.0000
  C   C4        1.0  0.8800988007970504  0.6172004239431034  0.9014534417531975  1.0000
  C   C5        1.0  0.10573523288481117  0.501277461414354  0.10266139063612911  1.0000
  C   C6        1.0  0.8942655517027307  0.4987252812716323  0.8973406766643774  1.0000
  C   C7        1.0  0.24709612706518422  0.6053148395896387  0.11352860909293842  1.0000
  C   C8        1.0  0.7529034609809601  0.3946879250860177  0.8864679287543777  1.0000
  C   C9        1.0  0.40538252526765467  0.5910153239621678  0.11864978438887161  1.0000
  C   C10       1.0  0.5946185425439623  0.40899340216653707  0.8813452417448739  1.0000
  C   C11       1.0  0.42186120769615343  0.473999394060961  0.11689775720004288  1.0000
  C   C12       1.0  0.5781432145223279  0.5260062915374065  0.8830957333161391  1.0000
  C   C13       1.0  0.2793843147676541  0.3711739446973611  0.10787259628776981  1.0000
  C   C14       1.0  0.7206231930777421  0.6288306956443109  0.8921234139510614  1.0000
  C   C15       1.0  0.5334505117671355  0.779132276806088  0.07831549360020773  1.0000
  C   C16       1.0  0.4665533580334582  0.22087740206337972  0.9216826719518776  1.0000
  C   C17       1.0  0.7983480282516595  0.8395993801067616  0.13991026118926433  1.0000
  C   C18       1.0  0.2016541800548879  0.16040135294259272  0.8600836604195476  1.0000
  C   C19       1.0  0.9720176043876664  0.9027261318824884  0.16902704652967052  1.0000
  C   C20       1.0  0.027986683647767997  0.09727656063261492  0.8309716823921601  1.0000
  C   C21       1.0  0.05978541670883434  0.8591397540314321  0.2245590035603158  1.0000
  C   C22       1.0  0.9402182628622455  0.1408589606650921  0.775437766419287  1.0000
  C   C23       1.0  0.9767874201312383  0.7546452311367419  0.24917524708320113  1.0000
  C   C24       1.0  0.023218604977095894  0.2453534482966475  0.7508215877403044  1.0000
  C   C25       1.0  0.8040119456833639  0.6885321418720665  0.21810633243661204  1.0000
  C   C26       1.0  0.19598719482583957  0.3114696331654088  0.7818891922229764  1.0000
  C   C27       1.0  0.7154744224069705  0.7321041046844884  0.16230911354038824  1.0000
  C   C28       1.0  0.2845254433339193  0.26789666308324206  0.8376854303534313  1.0000
  C   C29       1.0  0.9717105568079989  0.2211004011475382  0.29814295330773877  1.0000
  C   C30       1.0  0.028286124782077537  0.77889841225646  0.7018625548159391  1.0000
  C   C31       1.0  0.7607034474304156  0.09575570967828641  0.3298888430529558  1.0000
  C   C32       1.0  0.23929228303931185  0.9042331533596767  0.67010800471715  1.0000
  C   C33       1.0  0.6055048109537965  0.008344843369187099  0.32643610717147437  1.0000
  C   C34       1.0  0.3944938293574508  0.991639988955498  0.6735588789222573  1.0000
  C   C35       1.0  0.5948337002984444  0.9590272262663717  0.39973665740613723  1.0000
  C   C36       1.0  0.4051553909931939  0.0409547600199645  0.6002557492996772  1.0000
  C   C37       1.0  0.7338618720182452  0.9984678169208222  0.4765138532865548  1.0000
  C   C38       1.0  0.266131062405691  0.0015200922868530004  0.5234812293230247  1.0000
  C   C39       1.0  0.8890501848509447  0.08674443882806325  0.48182123787894665  1.0000
  C   C40       1.0  0.11094280264786233  0.9132514420140578  0.5181797915798467  1.0000
  C   C41       1.0  0.9004041370973255  0.13317403621928037  0.4067062018116373  1.0000
  C   C42       1.0  0.09959147660507037  0.8668198119070143  0.5932935856664655  1.0000
  C   C43       1.0  0.20736956835247616  0.26198820958784813  0.4259900690186881  1.0000
  C   C44       1.0  0.7926293390359335  0.738015554186113  0.5740177565279864  1.0000
  C   C45       1.0  0.2653608952279995  0.3201685425558268  0.5313880512594122  1.0000
  C   C46       1.0  0.7346425745811944  0.6798401379592536  0.46862009516743797  1.0000
  C   C47       1.0  0.43676935115045984  0.3648076185058287  0.5695276215637861  1.0000
  C   C48       1.0  0.5632335394964798  0.6352050601832107  0.430479015738804  1.0000
  C   C49       1.0  0.5504539999416452  0.3535880823494963  0.5029358003858418  1.0000
  C   C50       1.0  0.44954739905343644  0.6464186370655443  0.49706960011470597  1.0000
  C   C51       1.0  0.4910730453984727  0.2969192778623508  0.39752740090762717  1.0000
  C   C52       1.0  0.5089231945978555  0.7030785448139485  0.6024784682861436  1.0000
  C   C53       1.0  0.32033550864289856  0.2500897479243633  0.359022467417489  1.0000
  C   C54       1.0  0.6796581110930333  0.7499101063782376  0.6409860180147786  1.0000
  C   C55       1.0  0.7338038451212869  0.3986529284719326  0.5385805669457253  1.0000
  C   C56       1.0  0.2662084883955202  0.6013466529865711  0.46141675604634697  1.0000
  N   N1        1.0  0.8101432937327075  0.15381114058624226  0.26409800745190637  1.0000
  N   N2        1.0  0.1898535075962897  0.8461826871846655  0.7359052480926775  1.0000
  N   N3        1.0  0.0342751865315094  0.21296145877103362  0.3835279260093855  1.0000
  N   N4        1.0  0.9657206059278706  0.7870353742670773  0.6164769299966577  1.0000
  N   N5        1.0  0.5454858944892109  0.6950346577124334  0.12134235669893911  1.0000
  N   N6        1.0  0.4545165189048249  0.304977036786056  0.8786563961268781  1.0000
  N   N7        1.0  0.6804914387039176  0.8659508948378872  0.08835809511472806  1.0000
  N   N8        1.0  0.3195140072421623  0.1340517827694612  0.9116372305845243  1.0000
  Cl  Cl1       1.0  0.40437530923789927  0.05922214609531551  0.11551438430348777  1.0000
  Cl  Cl2       1.0  0.5956295961766784  0.9407845226040763  0.8844883649472873  1.0000
  O   O1        1.0  0.9850646838477602  0.1638308550299357  0.08076822223434019  1.0000
  O   O2        1.0  0.014940341305745506  0.8361708280363658  0.9192322744373339  1.0000
  O   O3        1.0  0.8231776707808082  0.28632225740407335  0.08128531265442258  1.0000
  O   O4        1.0  0.1768310395491781  0.7136823598584031  0.9187176012954194  1.0000
  O   O5        1.0  0.7801107453890168  0.4440990193504958  0.6416282565938827  1.0000
  O   O6        1.0  0.21988839512018638  0.5559027556869793  0.35836726806570596  1.0000
  O   O7        1.0  0.8368169700101474  0.3960607914821708  0.48315907771497263  1.0000
  O   O8        1.0  0.16318096289899126  0.6039250448436846  0.516841011917961  1.0000
