data_image0
_chemical_formula_structural       Zn4H48C60N8O20
_chemical_formula_sum              "Zn4 H48 C60 N8 O20"
_cell_length_a       7.289391666026789
_cell_length_b       11.30408377001274
_cell_length_c       17.76709565510023
_cell_angle_alpha    89.99985516868047
_cell_angle_beta     91.29577825627973
_cell_angle_gamma    89.99991075830913

_space_group_name_H-M_alt    "P 1"
_space_group_IT_number       1

loop_
  _space_group_symop_operation_xyz
  'x, y, z'

loop_
  _atom_site_type_symbol
  _atom_site_label
  _atom_site_symmetry_multiplicity
  _atom_site_fract_x
  _atom_site_fract_y
  _atom_site_fract_z
  _atom_site_occupancy
  Zn  Zn1       1.0  0.5000000675228691  0.49999936699954617  0.9999995426395357  1.0000
  Zn  Zn2       1.0  0.49999803861840764  5.260944960000001e-07  0.49999977256153727  1.0000
  Zn  Zn3       1.0  0.9999995750656936  0.5000000007969236  0.9999997278110371  1.0000
  Zn  Zn4       1.0  0.9999999032582566  0.9999998922964081  0.49999959673575495  1.0000
  H   H1        1.0  0.5044564723284211  0.766486444884663  0.0070283782211717  1.0000
  H   H2        1.0  0.49554253941231957  0.26648653630369523  0.4929718805814005  1.0000
  H   H3        1.0  0.4955452283812606  0.23351427379301276  0.9929715229306663  1.0000
  H   H4        1.0  0.5044564251861418  0.73351329773822  0.5070285647842993  1.0000
  H   H5        1.0  0.0202655734173973  0.7031323906681666  0.10873905096124757  1.0000
  H   H6        1.0  0.9797349693913731  0.20313239999771332  0.39126132064545516  1.0000
  H   H7        1.0  0.9797361272945012  0.2968665587374062  0.8912608501920329  1.0000
  H   H8        1.0  0.020262623025530495  0.7968665494088614  0.6087391153752433  1.0000
  H   H9        1.0  0.20610217167609327  0.8655407069164269  0.18604262437769137  1.0000
  H   H10       1.0  0.7938965916454421  0.3655420941892516  0.3139574726663739  1.0000
  H   H11       1.0  0.7938954042347532  0.1344582424923857  0.8139566858338438  1.0000
  H   H12       1.0  0.2061037533909413  0.6344559705787349  0.686043544951076  1.0000
  H   H13       1.0  0.07984021180439531  0.9362923384284658  0.11234328334588638  1.0000
  H   H14       1.0  0.9201583823364246  0.4362906525675144  0.3876572610665433  1.0000
  H   H15       1.0  0.9201573723594763  0.0637066109792244  0.8876565897702304  1.0000
  H   H16       1.0  0.07984196269995893  0.5637074122004722  0.6123437565509062  1.0000
  H   H17       1.0  0.3521692020660084  0.9721758264699577  0.0455209743264646  1.0000
  H   H18       1.0  0.6478320546989808  0.47217591787923396  0.4544800930821394  1.0000
  H   H19       1.0  0.6478311347140178  0.027824892207299005  0.9544794803842365  1.0000
  H   H20       1.0  0.35217105120658937  0.5278239161571889  0.5455220690344689  1.0000
  H   H21       1.0  0.48043701005202877  0.9137117799473345  0.12361405297919248  1.0000
  H   H22       1.0  0.5195630128972296  0.4137131946719633  0.37638653765090163  1.0000
  H   H23       1.0  0.5195619462934148  0.08628805409570361  0.8763858294819256  1.0000
  H   H24       1.0  0.48043871257152654  0.5862875240023442  0.6236150522146815  1.0000
  H   H25       1.0  0.4613714676249073  0.6926853202532398  0.20045333122791925  1.0000
  H   H26       1.0  0.5386290931244275  0.19269055939673055  0.2995464945301903  1.0000
  H   H27       1.0  0.5386288361507924  0.3073092059761606  0.7995448718695071  1.0000
  H   H28       1.0  0.46136987972595733  0.8073101592801069  0.7004545137393662  1.0000
  H   H29       1.0  0.48131631100100253  0.8026064029358154  0.3234825229143183  1.0000
  H   H30       1.0  0.5186825853918792  0.3026094965337336  0.17651598818748934  1.0000
  H   H31       1.0  0.5186784710274638  0.19739166184509568  0.6765133911790073  1.0000
  H   H32       1.0  0.48131641221535665  0.6973929914118387  0.8234867087943697  1.0000
  H   H33       1.0  0.0343985309891721  0.48519594889980777  0.18514365247420264  1.0000
  H   H34       1.0  0.9656040818104686  0.9851968268108634  0.3148585288265408  1.0000
  H   H35       1.0  0.965601838806286  0.5148021158648106  0.8148590538569918  1.0000
  H   H36       1.0  0.03439349409816831  0.014803891870052198  0.685140781383552  1.0000
  H   H37       1.0  0.3062097139771823  0.46460751350081614  0.2679162055681488  1.0000
  H   H38       1.0  0.6937970505017291  0.9646054541448166  0.23208491158428046  1.0000
  H   H39       1.0  0.693792036248425  0.5353949744422195  0.7320870730097296  1.0000
  H   H40       1.0  0.30620187282717387  0.035397918446896895  0.7679127192556192  1.0000
  H   H41       1.0  0.32843829218042936  0.5775735148287708  0.38967990605678426  1.0000
  H   H42       1.0  0.6715666820673649  0.0775714099737641  0.11032069862877589  1.0000
  H   H43       1.0  0.671560697172673  0.4224298577539758  0.6103222280197755  1.0000
  H   H44       1.0  0.32843361344421135  0.9224319626172388  0.8896769415568357  1.0000
  H   H45       1.0  0.07581180905227573  0.7075522576100114  0.4269398287613909  1.0000
  H   H46       1.0  0.9241914587859412  0.20755093181774242  0.07305999141553338  1.0000
  H   H47       1.0  0.9241857668485878  0.29245465352324373  0.5730594814436427  1.0000
  H   H48       1.0  0.07581435846844191  0.792452440765949  0.9269399377712941  1.0000
  C   C1        1.0  0.7337010975667083  0.6238949802914534  0.21030907060011117  1.0000
  C   C2        1.0  0.2663051326914924  0.12389522397846522  0.28969146778544536  1.0000
  C   C3        1.0  0.2663019918350287  0.37610308447511914  0.7896919657087763  1.0000
  C   C4        1.0  0.7336951875858163  0.8761028407928818  0.7103078611182594  1.0000
  C   C5        1.0  0.9067872406375487  0.6738589053377311  0.3272793112183904  1.0000
  C   C6        1.0  0.09321883955877303  0.17385801772017123  0.17271945686232465  1.0000
  C   C7        1.0  0.09321171570567799  0.3261426979774029  0.6727205712412782  1.0000
  C   C8        1.0  0.9067842250794486  0.8261435855939612  0.827279890729926  1.0000
  C   C9        1.0  0.895707849571295  0.611064929949791  0.2568923204459566  1.0000
  C   C10       1.0  0.10429428806182982  0.11106552109592371  0.24310764794928008  1.0000
  C   C11       1.0  0.1042897593538754  0.38893225018244243  0.7431092413853547  1.0000
  C   C12       1.0  0.8957073961429174  0.8889343129479387  0.7568911273941124  1.0000
  C   C13       1.0  0.5956415360184266  0.7484710794321854  0.3049161191814704  1.0000
  C   C14       1.0  0.40435887657575625  0.24847421403995185  0.19508305257460276  1.0000
  C   C15       1.0  0.4043560233874857  0.2515269853428279  0.6950820652216265  1.0000
  C   C16       1.0  0.5956442128226483  0.7515265046347679  0.8049179837321176  1.0000
  C   C17       1.0  0.7675651186875357  0.8286170323109091  0.41455970001234727  1.0000
  C   C18       1.0  0.232437862038303  0.3286163514493269  0.08544104827219458  1.0000
  C   C19       1.0  0.23243110154224667  0.1713854556405607  0.5854407266597477  1.0000
  C   C20       1.0  0.7675652108507264  0.6713870211357787  0.9145588622231955  1.0000
  C   C21       1.0  0.7224642521879828  0.5762380294508702  0.13133643182588628  1.0000
  C   C22       1.0  0.27753250881319497  0.0762406023030024  0.3686652447715771  1.0000
  C   C23       1.0  0.27752924019359426  0.4237556121392885  0.8686651019711532  1.0000
  C   C24       1.0  0.7224719280143576  0.9237556931941311  0.6313341121707268  1.0000
  C   C25       1.0  0.7550878622198385  0.7457488872769886  0.3487734958362267  1.0000
  C   C26       1.0  0.24491117677073504  0.24574793277327703  0.1512251081182683  1.0000
  C   C27       1.0  0.24490560539378955  0.2542518314049218  0.6512263492412842  1.0000
  C   C28       1.0  0.7550932848103429  0.7542527859007392  0.8487759375341708  1.0000
  C   C29       1.0  0.0661362051278047  0.6594193199933899  0.37406640864786306  1.0000
  C   C30       1.0  0.9338685556056631  0.15941777461839732  0.1259334994769432  1.0000
  C   C31       1.0  0.9338613872846581  0.3405831679573766  0.6259340273699506  1.0000
  C   C32       1.0  0.06613450903255819  0.8405838286957351  0.8740658481153074  1.0000
  C   C33       1.0  0.5853314110518966  0.6878073047240321  0.235808654753029  1.0000
  C   C34       1.0  0.4146650371318188  0.18781103931245008  0.2641905880304591  1.0000
  C   C35       1.0  0.41466342049804433  0.31218810614199555  0.7641906367699605  1.0000
  C   C36       1.0  0.5853352913962909  0.8121887947298773  0.7358093037763778  1.0000
  C   C37       1.0  0.04313922698228371  0.5352777413884481  0.2374185870148651  1.0000
  C   C38       1.0  0.9568603646048005  0.035278284443975814  0.2625820493554372  1.0000
  C   C39       1.0  0.9568597458703183  0.4647212080162931  0.762582421256134  1.0000
  C   C40       1.0  0.043138566980459814  0.9647224342384677  0.7374161443912113  1.0000
  C   C41       1.0  0.26009401809628224  0.7084048181626911  0.04980718132438259  1.0000
  C   C42       1.0  0.7399037588714208  0.20840483420575134  0.4501926000763205  1.0000
  C   C43       1.0  0.739904921742003  0.2915959005186295  0.9501915753268477  1.0000
  C   C44       1.0  0.260095205728156  0.7915941152001128  0.5498078452900969  1.0000
  C   C45       1.0  0.20727085917789626  0.5862890828676087  0.35294829766428387  1.0000
  C   C46       1.0  0.7927327127757026  0.0862875952756141  0.1470517205377888  1.0000
  C   C47       1.0  0.7927267414875844  0.413713405082035  0.6470527012581113  1.0000
  C   C48       1.0  0.2072703436083927  0.9137148926756854  0.8529470641491556  1.0000
  C   C49       1.0  0.19531751983694082  0.5233296774421063  0.2843423982837905  1.0000
  C   C50       1.0  0.804686234768269  0.023330559439536103  0.21565941144397263  1.0000
  C   C51       1.0  0.8046814860288621  0.4766683873221069  0.7156608616062667  1.0000
  C   C52       1.0  0.19531407725268932  0.9766701592410811  0.7843393545529763  1.0000
  C   C53       1.0  0.18494826945708812  0.8691289233256113  0.12458015535659679  1.0000
  C   C54       1.0  0.8150518570496956  0.3691291607700506  0.3754199451745065  1.0000
  C   C55       1.0  0.8150506786364387  0.13087002608249781  0.8754191642006575  1.0000
  C   C56       1.0  0.18494986016825268  0.6308697886332767  0.6245810817879374  1.0000
  C   C57       1.0  0.3670305834530224  0.8954539131125756  0.08346649085275709  1.0000
  C   C58       1.0  0.6329694852864877  0.39545417005405165  0.4165341295937138  1.0000
  C   C59       1.0  0.632968381145446  0.10454592092933981  0.9165339545129427  1.0000
  C   C60       1.0  0.36703085149576964  0.6045447793511016  0.5834663251184293  1.0000
  N   N1        1.0  0.39831515690086416  0.7867454793561562  0.04175814336293369  1.0000
  N   N2        1.0  0.6016851679630977  0.2867447174973208  0.4582415287980909  1.0000
  N   N3        1.0  0.6016851468659611  0.2132561239616351  0.9582400597287091  1.0000
  N   N4        1.0  0.39831380488950424  0.7132542319074205  0.5417594794729154  1.0000
  N   N5        1.0  0.1316930756562016  0.7540139744745956  0.09458244313534438  1.0000
  N   N6        1.0  0.8683045786777016  0.25401227014447875  0.40541670088158804  1.0000
  N   N7        1.0  0.8683058724362099  0.24598585956955787  0.905416876421192  1.0000
  N   N8        1.0  0.131695766358682  0.7459857946235078  0.5945843167358615  1.0000
  O   O1        1.0  0.8644278913509922  0.5883283579300524  0.09162119651919907  1.0000
  O   O2        1.0  0.13557432805631459  0.0883335694832255  0.40838049771524954  1.0000
  O   O3        1.0  0.13557795892768348  0.4116652836526172  0.9083809842938989  1.0000
  O   O4        1.0  0.8644246117864044  0.9116636106539033  0.5916182589388654  1.0000
  O   O5        1.0  0.5698211539179355  0.5325760529018596  0.10932229442858697  1.0000
  O   O6        1.0  0.4301839166671115  0.0325783852168584  0.3906772579258799  1.0000
  O   O7        1.0  0.43018465509340587  0.4674193579585193  0.8906770718601605  1.0000
  O   O8        1.0  0.5698177675409611  0.9674187949188565  0.6093215174196798  1.0000
  O   O9        1.0  0.627441446971993  0.8418272925885972  0.45493584793011627  1.0000
  O   O10       1.0  0.3725601201848647  0.34182928531091517  0.0450643065293406  1.0000
  O   O11       1.0  0.3725506402070451  0.15817254145909493  0.5450634248978189  1.0000
  O   O12       1.0  0.6274429527074974  0.658171433366043  0.9549356039682094  1.0000
  O   O13       1.0  0.25225472745098904  0.606571774041555  0.0188625013616033  1.0000
  O   O14       1.0  0.7477446770860253  0.10657165938722808  0.4811374556801766  1.0000
  O   O15       1.0  0.7477469485007334  0.39342806000343  0.9811357110772074  1.0000
  O   O16       1.0  0.2522542792605265  0.8934272900197586  0.5188624267816591  1.0000
  O   O17       1.0  0.9193828171004769  0.8834449141889988  0.42210863203402477  1.0000
  O   O18       1.0  0.08061998485860761  0.38344353098858625  0.0778892121932344  1.0000
  O   O19       1.0  0.08061750317239101  0.11655668912654704  0.5778906968667883  1.0000
  O   O20       1.0  0.9193789632282688  0.6165607262358109  0.9221101073596926  1.0000
