data_image0
_chemical_formula_structural       Ho2P2H6C2O12
_chemical_formula_sum              "Ho2 P2 H6 C2 O12"
_cell_length_a       6.459685257373292
_cell_length_b       6.867310340399524
_cell_length_c       8.146457520211094
_cell_angle_alpha    114.34402505934058
_cell_angle_beta     101.44645332869729
_cell_angle_gamma    90.1720912808711

_space_group_name_H-M_alt    "P 1"
_space_group_IT_number       1

loop_
  _space_group_symop_operation_xyz
  'x, y, z'

loop_
  _atom_site_type_symbol
  _atom_site_label
  _atom_site_symmetry_multiplicity
  _atom_site_fract_x
  _atom_site_fract_y
  _atom_site_fract_z
  _atom_site_occupancy
  Ho  Ho1       1.0  0.11453329102756982  0.21832307588480404  0.9356373115379243  1.0000
  Ho  Ho2       1.0  0.8854717501987964  0.7816745316114931  0.06436671062967032  1.0000
  P   P1        1.0  0.6684825297842707  0.2527029538086937  0.008844029235021375  1.0000
  P   P2        1.0  0.3315249156424259  0.7472944329101526  0.9911479199924075  1.0000
  H   H1        1.0  0.6602395276704132  0.33944945949066613  0.1968810428790491  1.0000
  H   H2        1.0  0.339757189786866  0.6605587833743556  0.8031046679913488  1.0000
  H   H3        1.0  0.12803041912266622  0.2877578574631983  0.30666575133984253  1.0000
  H   H4        1.0  0.8719522637752349  0.7122314869718595  0.6933389107117094  1.0000
  H   H5        1.0  0.13413569414719012  0.5171522643621743  0.30797116293400256  1.0000
  H   H6        1.0  0.8658741240628134  0.48283919514639717  0.6920399655524534  1.0000
  C   C1        1.0  0.9939346870615113  0.11124899909730598  0.4991008889920466  1.0000
  C   C2        1.0  0.0060488661431037025  0.8887469028281104  0.5009122388404778  1.0000
  O   O1        1.0  0.8028237815210846  0.05775081572040361  0.9696727993051155  1.0000
  O   O2        1.0  0.19719065577871225  0.942251603062907  0.030326614510272534  1.0000
  O   O3        1.0  0.4426485793308786  0.1986076088897875  0.8946533398143118  1.0000
  O   O4        1.0  0.55736100472717  0.8013832190186676  0.10532805039866833  1.0000
  O   O5        1.0  0.8040994163353619  0.41557233459024456  0.9772303636221623  1.0000
  O   O6        1.0  0.1959128923614912  0.5844267375274512  0.02276274526113304  1.0000
  O   O7        1.0  0.0142381635441922  0.2694192853001526  0.6545654518481213  1.0000
  O   O8        1.0  0.9857431961595752  0.7305810484818879  0.3454329294626462  1.0000
  O   O9        1.0  0.0349480905348543  0.8841138936973679  0.6573162450546521  1.0000
  O   O10       1.0  0.9650480476296156  0.11590303427178841  0.3427042837496614  1.0000
  O   O11       1.0  0.19415289760856785  0.37685645957461833  0.2578218674350623  1.0000
  O   O12       1.0  0.8058485587059182  0.6231570909966777  0.7421858758901365  1.0000
