data_image0
_chemical_formula_structural       Na2H10C10N4O8
_chemical_formula_sum              "Na2 H10 C10 N4 O8"
_cell_length_a       3.5681541928688505
_cell_length_b       10.220809536632588
_cell_length_c       10.818223188706058
_cell_angle_alpha    108.9584025841737
_cell_angle_beta     98.63924665373813
_cell_angle_gamma    96.20936253106093

_space_group_name_H-M_alt    "P 1"
_space_group_IT_number       1

loop_
  _space_group_symop_operation_xyz
  'x, y, z'

loop_
  _atom_site_type_symbol
  _atom_site_label
  _atom_site_symmetry_multiplicity
  _atom_site_fract_x
  _atom_site_fract_y
  _atom_site_fract_z
  _atom_site_occupancy
  Na  Na1       1.0  0.2610204030346707  0.6141440583385246  0.9251857775868826  1.0000
  Na  Na2       1.0  0.7389049372223865  0.3858523206039379  0.07479919031025159  1.0000
  H   H1        1.0  0.7114295975621518  0.8801601502977477  0.45575800127396343  1.0000
  H   H2        1.0  0.2885827211817258  0.1198478537878884  0.5442673291491715  1.0000
  H   H3        1.0  0.2576106513851498  0.5781333063895885  0.381433768446712  1.0000
  H   H4        1.0  0.7424339497869709  0.42185711499860185  0.6185572400464352  1.0000
  H   H5        1.0  0.5875481224533914  0.767206382170663  0.23397348493724482  1.0000
  H   H6        1.0  0.41243013993167227  0.23279433528259125  0.7660164325452499  1.0000
  H   H7        1.0  0.7934974458361949  0.8301507059813034  0.9147631383108176  1.0000
  H   H8        1.0  0.20647165225487638  0.16985518252548096  0.08523716236944517  1.0000
  H   H9        1.0  0.9769740499028784  0.86455912865938  0.06185074698519346  1.0000
  H   H10       1.0  0.02299645373403079  0.13544991663707148  0.9381487549866351  1.0000
  C   C1        1.0  0.40063450525906313  0.7156872382404984  0.660495451412217  1.0000
  C   C2        1.0  0.5994387990706826  0.28429162839492517  0.33951653708406576  1.0000
  C   C3        1.0  0.5678280928329541  0.8145060150293232  0.6111466185183332  1.0000
  C   C4        1.0  0.43225944504682445  0.18547922357409158  0.3888588228063057  1.0000
  C   C5        1.0  0.566786398047931  0.7914297978183952  0.4755475172582777  1.0000
  C   C6        1.0  0.43326870735187833  0.20857209147092695  0.5244669911521169  1.0000
  C   C7        1.0  0.4056078954992087  0.671196223731485  0.36971418556847613  1.0000
  C   C8        1.0  0.5944039704616912  0.3287972270913428  0.6302807265450028  1.0000
  C   C9        1.0  0.43421274858873454  0.6697856450940165  0.2396954433735843  1.0000
  C   C10       1.0  0.5657419471144678  0.3302066165456026  0.7602915830800469  1.0000
  N   N1        1.0  0.2614429452165935  0.6335217490951166  0.701674041723983  1.0000
  N   N2        1.0  0.738642564713423  0.36645834699505286  0.2983075171838934  1.0000
  N   N3        1.0  0.7481901962150488  0.9429988643706937  0.7080499798107525  1.0000
  N   N4        1.0  0.2518358952374058  0.05701446231734052  0.29196845471108895  1.0000
  O   O1        1.0  0.9105416577894232  0.0382869381185174  0.6755945616164851  1.0000
  O   O2        1.0  0.08944346813458999  0.9617168696969075  0.32441237615132223  1.0000
  O   O3        1.0  0.7412813136008934  0.9609299422761027  0.8303412602135507  1.0000
  O   O4        1.0  0.258689201546744  0.0390791073667955  0.1696573193095858  1.0000
  O   O5        1.0  0.30187783079586683  0.5673566702349929  0.13277567665918608  1.0000
  O   O6        1.0  0.6980144852863646  0.4326615764116184  0.8672245679810543  1.0000
  O   O7        1.0  0.8472713195907815  0.7843146022555771  0.9813165406128234  1.0000
  O   O8        1.0  0.15268849141138927  0.21568921979134362  0.01867063207217971  1.0000
