data_image0
_chemical_formula_structural       Zn4H40C53O16
_chemical_formula_sum              "Zn4 H40 C53 O16"
_cell_length_a       15.083180602223337
_cell_length_b       15.040816932823688
_cell_length_c       17.828656488016083
_cell_angle_alpha    80.72546003566305
_cell_angle_beta     81.79988025241414
_cell_angle_gamma    90.01083940087634

_space_group_name_H-M_alt    "P 1"
_space_group_IT_number       1

loop_
  _space_group_symop_operation_xyz
  'x, y, z'

loop_
  _atom_site_type_symbol
  _atom_site_label
  _atom_site_symmetry_multiplicity
  _atom_site_fract_x
  _atom_site_fract_y
  _atom_site_fract_z
  _atom_site_occupancy
  Zn  Zn1       1.0  0.5540885303260976  0.5583646082061549  0.5749604517383347  1.0000
  Zn  Zn2       1.0  0.5944875965735009  0.44670567201968947  0.4359989897096311  1.0000
  Zn  Zn3       1.0  0.43528365826252013  0.5870696114896604  0.43633605693591443  1.0000
  Zn  Zn4       1.0  0.41807193126634695  0.4055711383671153  0.5577090044139369  1.0000
  H   H1        1.0  0.2905170078233468  0.370356518339797  0.062443502748088506  1.0000
  H   H2        1.0  0.011209610640420902  0.32836021924714504  0.46020299168434775  1.0000
  H   H3        1.0  0.4505128344995697  0.5047261084698108  0.19941380837559558  1.0000
  H   H4        1.0  0.17502593259157354  0.34177290376934627  0.4650083511569534  1.0000
  H   H5        1.0  0.14381504800160627  0.6145227961146419  0.5082387837067586  1.0000
  H   H6        1.0  0.6923024371649404  0.6488831461199356  0.21036326196927746  1.0000
  H   H7        1.0  0.6877559381478734  0.6567731028884015  0.9419173988977079  1.0000
  H   H8        1.0  0.2598247159450082  0.33858385142086433  0.9372180202650072  1.0000
  H   H9        1.0  0.5263639981505719  0.5212010555959311  0.8039415246311848  1.0000
  H   H10       1.0  0.3802013522056811  0.4447857476493907  0.1388183003730177  1.0000
  H   H11       1.0  0.5960632321065943  0.5860717541727851  0.8645148980595395  1.0000
  H   H12       1.0  0.7240089809907103  0.6796768114332468  0.06735904154209751  1.0000
  H   H13       1.0  0.7047797969012352  0.9702037167477119  0.37958476535334273  1.0000
  H   H14       1.0  0.7196097213166651  0.08273075441813664  0.3283591943852144  1.0000
  H   H15       1.0  0.6901884714958725  0.9145187966670746  0.256650047056155  1.0000
  H   H16       1.0  0.7054866302983881  0.025845471006846307  0.20602751173030498  1.0000
  H   H17       1.0  0.860373096909285  0.033764092779051715  0.2456751534663653  1.0000
  H   H18       1.0  0.8508434262329415  0.9433972516726431  0.19424068940786304  1.0000
  H   H19       1.0  0.8448896430216875  0.9215391551741096  0.29566043563738015  1.0000
  H   H20       1.0  0.019370137243825494  0.6245698055572931  0.6521794334209048  1.0000
  H   H21       1.0  0.9204897614932647  0.6896321767760298  0.6500234592737257  1.0000
  H   H22       1.0  0.11332979420603097  0.7664743218039478  0.6112360738261556  1.0000
  H   H23       1.0  0.445212754105853  0.1290284709152303  0.5908734830690747  1.0000
  H   H24       1.0  0.015270920004475394  0.8307932023190007  0.6108589923172971  1.0000
  H   H25       1.0  0.9711805373692358  0.7734279168653658  0.7535579846202864  1.0000
  H   H26       1.0  0.0776160600212705  0.8291398690401836  0.7347166991313188  1.0000
  H   H27       1.0  0.07023415369674518  0.709666392016402  0.7535087463277179  1.0000
  H   H28       1.0  0.24964849038734366  0.46917671560076  0.7262181499298422  1.0000
  H   H29       1.0  0.17173141732011024  0.4299889813450548  0.8106116137388001  1.0000
  H   H30       1.0  0.20445101761271195  0.3458852818310946  0.663306509092358  1.0000
  H   H31       1.0  0.13366800968643133  0.29713624930859334  0.7479870139135443  1.0000
  H   H32       1.0  0.0370184442215447  0.4339203053776758  0.739405058240898  1.0000
  H   H33       1.0  0.04651928311170651  0.39046886943408793  0.6516358942957368  1.0000
  H   H34       1.0  0.5865562492314637  0.19208782742406785  0.36071244109923134  1.0000
  H   H35       1.0  0.1103559244577212  0.4870549698544552  0.6575213154745541  1.0000
  H   H36       1.0  0.41196897367983343  0.9686412587396662  0.650060213302531  1.0000
  H   H37       1.0  0.42133451742850525  0.8052847950038001  0.6400555511408896  1.0000
  H   H38       1.0  0.5369658233658894  0.8716428048490458  0.4021426761628391  1.0000
  H   H39       1.0  0.859282971619045  0.3943124002262409  0.4746121056869513  1.0000
  H   H40       1.0  0.8255982060237341  0.6536831607879634  0.5463686369650348  1.0000
  C   C1        1.0  0.5144975163648198  0.26652109813290553  0.4844962989902726  1.0000
  C   C2        1.0  0.5775369827443128  0.575395749010376  0.9266599219622904  1.0000
  C   C3        1.0  0.6291856942579414  0.6152152143174803  0.9697488891595468  1.0000
  C   C4        1.0  0.48301673504982284  0.7320650735488602  0.5140351177319359  1.0000
  C   C5        1.0  0.6088246761041631  0.6028682200677267  0.051294985267936986  1.0000
  C   C6        1.0  0.5307710121137178  0.5506651968262731  0.0880527371911981  1.0000
  C   C7        1.0  0.6650558036314178  0.6395101990494896  0.09644931348537969  1.0000
  C   C8        1.0  0.647307013577709  0.6235122144015294  0.17554704808505758  1.0000
  C   C9        1.0  0.5107788515863021  0.5410837324169154  0.16886209985809586  1.0000
  C   C10       1.0  0.5144213664143678  0.16933476569381162  0.4768831383216607  1.0000
  C   C11       1.0  0.4790781355482991  0.8297212875625776  0.5198759732754468  1.0000
  C   C12       1.0  0.33787345057398716  0.38971676728945687  0.8298139382030314  1.0000
  C   C13       1.0  0.4407614431711194  0.9469679303664479  0.5964170293620156  1.0000
  C   C14       1.0  0.44494636452740377  0.8568322473623837  0.5908992686813974  1.0000
  C   C15       1.0  0.5115893492526381  0.892940176883407  0.456586661894228  1.0000
  C   C16       1.0  0.7349386014300734  0.5132177624819222  0.5115263666686616  1.0000
  C   C17       1.0  0.5139114447473218  0.985403208820614  0.46255306285003434  1.0000
  C   C18       1.0  0.47559470673558474  0.013671018588723903  0.5330711899613334  1.0000
  C   C19       1.0  0.47530169489886015  0.10640773068409004  0.5381337924894822  1.0000
  C   C20       1.0  0.5551328298654424  0.1418140276289037  0.4079087451661749  1.0000
  C   C21       1.0  0.554345524526113  0.05196194211040251  0.40078227866587207  1.0000
  C   C22       1.0  0.8337308484243022  0.5229708647058973  0.5092775789897672  1.0000
  C   C23       1.0  0.46790269780601074  0.4825687358803848  0.8353821551020814  1.0000
  C   C24       1.0  0.16863583344866132  0.47985253262579886  0.4858315538529538  1.0000
  C   C25       1.0  0.040365882531119696  0.39026412888186024  0.4718853961441241  1.0000
  C   C26       1.0  0.1309340002284927  0.3977505303958751  0.4736600152943923  1.0000
  C   C27       1.0  0.11452931369062469  0.5516689548195474  0.4990234543615628  1.0000
  C   C28       1.0  0.26661973622481827  0.4870126634158184  0.4886322904859242  1.0000
  C   C29       1.0  0.0205952767307451  0.5429927909377386  0.5033817185949871  1.0000
  C   C30       1.0  0.9824980270803961  0.46188871375181156  0.4871592108504004  1.0000
  C   C31       1.0  0.88884051437833  0.45458120320807904  0.48868685227156317  1.0000
  C   C32       1.0  0.8702581101168503  0.6014536607105613  0.5289804275368867  1.0000
  C   C33       1.0  0.9616611830056384  0.6116348754034961  0.5254211661638024  1.0000
  C   C34       1.0  0.44783259628412964  0.47553063470418533  0.9157239537643348  1.0000
  C   C35       1.0  0.5480657854678126  0.555254722436409  0.2974089034034009  1.0000
  C   C36       1.0  0.44520252553258644  0.45330269676463086  0.7069325850719679  1.0000
  C   C37       1.0  0.41563204929706643  0.4414737581227399  0.7915725697674674  1.0000
  C   C38       1.0  0.568479698968403  0.5747956446204867  0.21189972350394726  1.0000
  C   C39       1.0  0.31859653601414806  0.3794439453875357  0.9089301097093739  1.0000
  C   C40       1.0  0.6889278636920152  0.015970517624126  0.3284158850216201  1.0000
  C   C41       1.0  0.7239673665430715  0.9797244249499216  0.2555741119665385  1.0000
  C   C42       1.0  0.8255409075169665  0.9690422406827682  0.24738113792567157  1.0000
  C   C43       1.0  0.9918130836528147  0.6879420879048725  0.6251709652337497  1.0000
  C   C44       1.0  0.043486569577027005  0.7688066980132577  0.6389676444268275  1.0000
  C   C45       1.0  0.3713952640453471  0.42125144919167223  0.9531481230229772  1.0000
  C   C46       1.0  0.04043369488576329  0.7703136196296543  0.7248682303307632  1.0000
  C   C47       1.0  0.2153231981652581  0.40860964186912  0.7616392291280576  1.0000
  C   C48       1.0  0.1605696450148884  0.36162435020257544  0.7140353925413052  1.0000
  C   C49       1.0  0.08432583239610379  0.42135918741287537  0.6894569168321497  1.0000
  C   C50       1.0  0.5009419625349948  0.5200454650647119  0.961163136323485  1.0000
  C   C51       1.0  0.47658894945430313  0.508549717788739  0.04211706933260471  1.0000
  C   C52       1.0  0.39954212422550484  0.4538378503900874  0.07681421642634229  1.0000
  C   C53       1.0  0.34903243401366507  0.41183003697565124  0.03441835873191931  1.0000
  O   O1        1.0  0.5010092010283742  0.5006612160311976  0.5007172950347893  1.0000
  O   O2        1.0  0.6112964157061426  0.5217709874788454  0.33291160984163076  1.0000
  O   O3        1.0  0.3958316036087269  0.4190285033461195  0.6659483277420009  1.0000
  O   O4        1.0  0.46922958483624905  0.5720458711819064  0.3279067296251768  1.0000
  O   O5        1.0  0.5188589284206557  0.4975566951079244  0.6811200548075504  1.0000
  O   O6        1.0  0.592743074507638  0.02397567877351041  0.3337496017644667  1.0000
  O   O7        1.0  0.9986953020826236  0.6881359232918671  0.5433110680576902  1.0000
  O   O8        1.0  0.2809832730178528  0.3481490920827285  0.7917228581659757  1.0000
  O   O9        1.0  0.68543071748676  0.5665712665920992  0.5473696785721103  1.0000
  O   O10       1.0  0.30398454081348814  0.41449421664633956  0.5148055027541503  1.0000
  O   O11       1.0  0.5627233294619813  0.3208531568731417  0.43161783369470197  1.0000
  O   O12       1.0  0.4678657245738407  0.7093662969427542  0.4508641198389043  1.0000
  O   O13       1.0  0.46646408712865656  0.2879139265957493  0.543658788895165  1.0000
  O   O14       1.0  0.5019037240542232  0.6793097353042941  0.5730237366609074  1.0000
  O   O15       1.0  0.7076679911418254  0.45207519641255794  0.4775689472259899  1.0000
  O   O16       1.0  0.3050549677564618  0.5643377754188138  0.4658611003945339  1.0000
