data_image0
_chemical_formula_structural       Zr6H68C98Cl4O32
_chemical_formula_sum              "Zr6 H68 C98 Cl4 O32"
_cell_length_a       19.08668326823036
_cell_length_b       19.076291027554895
_cell_length_c       19.080454847346
_cell_angle_alpha    59.790466409841386
_cell_angle_beta     59.96492760456047
_cell_angle_gamma    60.00203419953385

_space_group_name_H-M_alt    "P 1"
_space_group_IT_number       1

loop_
  _space_group_symop_operation_xyz
  'x, y, z'

loop_
  _atom_site_type_symbol
  _atom_site_label
  _atom_site_symmetry_multiplicity
  _atom_site_fract_x
  _atom_site_fract_y
  _atom_site_fract_z
  _atom_site_occupancy
  Zr  Zr1       1.0  0.9041487662736287  0.41059144795965347  0.5921985768377311  1.0000
  Zr  Zr2       1.0  0.09300507588142207  0.5915575947041559  0.41122171191629053  1.0000
  Zr  Zr3       1.0  0.08958525546370313  0.406126182719987  0.596696079931796  1.0000
  Zr  Zr4       1.0  0.9076170053053476  0.5960105814243094  0.4066932243343544  1.0000
  Zr  Zr5       1.0  0.906098654939548  0.5935421315396424  0.5941351483079698  1.0000
  Zr  Zr6       1.0  0.09090021056565693  0.40875133945024805  0.40943223020340014  1.0000
  H   H1        1.0  0.9226328564485443  0.4278359769856122  0.7210385909403881  1.0000
  H   H2        1.0  0.9284838014323572  0.7203694959950651  0.428365417586889  1.0000
  H   H3        1.0  0.21724075559556164  0.42515268124687816  0.4320108026061433  1.0000
  H   H4        1.0  0.9256318058654218  0.43134739474383105  0.42570611578479844  1.0000
  H   H5        1.0  0.4641141218492778  0.6017534203873892  0.0542340549473365  1.0000
  H   H6        1.0  0.558823068474048  0.37734941550856144  0.9735157469951474  1.0000
  H   H7        1.0  0.6482389645245378  0.6348591663138733  0.786525298629641  1.0000
  H   H8        1.0  0.5130797004280936  0.6438051564314262  0.9115937879353665  1.0000
  H   H9        1.0  0.294512262434097  0.41761409913785735  0.1635292470491548  1.0000
  H   H10       1.0  0.41764180716241844  0.41936375324208097  0.026913654442502398  1.0000
  H   H11       1.0  0.08964930623619723  0.9735007530314802  0.3771751770989765  1.0000
  H   H12       1.0  0.8794844567895909  0.05416067973551009  0.601497602449953  1.0000
  H   H13       1.0  0.12422040289335  0.16307560752210293  0.4181622391297779  1.0000
  H   H14       1.0  0.13587091324189515  0.02669678018041572  0.41946910739947907  1.0000
  H   H15       1.0  0.9300116594275071  0.7864601481237159  0.6350760351705487  1.0000
  H   H16       1.0  0.9312873876146883  0.9115668067221278  0.6438083485455551  1.0000
  H   H17       1.0  0.46642683631336007  0.06039177655987525  0.3787109635356032  1.0000
  H   H18       1.0  0.5540755786617311  0.9696932086656105  0.5967486976336075  1.0000
  H   H19       1.0  0.6581656371941524  0.7947469507852816  0.42021928436231076  1.0000
  H   H20       1.0  0.5207317686061474  0.9168237178302334  0.4229907503525043  1.0000
  H   H21       1.0  0.28492172666901905  0.14884956483562914  0.6361291737336429  1.0000
  H   H22       1.0  0.41036908591018323  0.014040603613366877  0.6438023506844957  1.0000
  H   H23       1.0  0.8800875975823033  0.5974091024568436  0.9694220917057094  1.0000
  H   H24       1.0  0.09537635584311493  0.3790262542255576  0.05988341237496534  1.0000
  H   H25       1.0  0.9303701041411544  0.6358160531377095  0.14931768233205372  1.0000
  H   H26       1.0  0.9321017913915601  0.6438681507286007  0.014328295540998546  1.0000
  H   H27       1.0  0.12681578163684293  0.41988695450591945  0.7951421661147863  1.0000
  H   H28       1.0  0.1397109941553652  0.42290897856698  0.916885736293615  1.0000
  H   H29       1.0  0.12196093970801775  0.8147572567378418  0.16997546791778717  1.0000
  H   H30       1.0  0.8977342160103635  0.8118495117741773  0.1728518197609787  1.0000
  H   H31       1.0  0.8932237241294348  0.16943888159068612  0.8153403777990247  1.0000
  H   H32       1.0  0.11770908883262621  0.17211009732614702  0.812222041892575  1.0000
  H   H33       1.0  0.4695407225318392  0.37831486021444505  0.5977491761036404  1.0000
  H   H34       1.0  0.5544293855973594  0.5972418864277672  0.3787603376379634  1.0000
  H   H35       1.0  0.653683055108978  0.43020777220357326  0.630091793940977  1.0000
  H   H36       1.0  0.5181918269409138  0.42929374591260216  0.6421868441779137  1.0000
  H   H37       1.0  0.28592822846185584  0.6295190194468816  0.43077323180530397  1.0000
  H   H38       1.0  0.4101755491126583  0.6417211278649546  0.42985933646217234  1.0000
  H   H39       1.0  0.38690649816309297  0.6514667707961124  0.16295978535964648  1.0000
  H   H40       1.0  0.331752360031267  0.5882146018252782  0.2643341176945383  1.0000
  H   H41       1.0  0.274453750094068  0.6742751172438375  0.19588502660158696  1.0000
  H   H42       1.0  0.6714270996823191  0.295572098570446  0.8980037066135935  1.0000
  H   H43       1.0  0.7679259861412506  0.3216675426007143  0.8337421653623593  1.0000
  H   H44       1.0  0.6961458033339768  0.35034070200908457  0.7847914956182079  1.0000
  H   H45       1.0  0.13395939614848382  0.8980940380697715  0.2954535934786476  1.0000
  H   H46       1.0  0.07619260090643118  0.8331058564747023  0.3219759506121918  1.0000
  H   H47       1.0  0.16837361890316793  0.7849731704577321  0.35023023277109633  1.0000
  H   H48       1.0  0.7979003525626851  0.16335366452734226  0.6505539089298151  1.0000
  H   H49       1.0  0.8159072103126663  0.26430840303002173  0.5886140344218873  1.0000
  H   H50       1.0  0.8546868967052889  0.19445687825503927  0.6751703513336055  1.0000
  H   H51       1.0  0.3885344405501669  0.17159920302635356  0.2987557845591695  1.0000
  H   H52       1.0  0.3266104714978513  0.26908576491023684  0.32299205754326726  1.0000
  H   H53       1.0  0.2758729018244921  0.19747811866303516  0.35504465127969803  1.0000
  H   H54       1.0  0.6676627368251855  0.8971202084234235  0.6399248346236917  1.0000
  H   H55       1.0  0.7663266328540889  0.8363120354911615  0.5802308955228098  1.0000
  H   H56       1.0  0.6959175774067535  0.7838553376330141  0.6704805208310914  1.0000
  H   H57       1.0  0.7959694327758415  0.6412301211249769  0.8965806650887983  1.0000
  H   H58       1.0  0.8169978938701806  0.5806819603403066  0.8370267080515105  1.0000
  H   H59       1.0  0.8504788219051137  0.6705086003695226  0.783280876507483  1.0000
  H   H60       1.0  0.14229050337968385  0.29891984832977403  0.17093784298413076  1.0000
  H   H61       1.0  0.0819674858807673  0.32268066480317253  0.2686935903998986  1.0000
  H   H62       1.0  0.17213012748154458  0.3551159815872039  0.1976371320704544  1.0000
  H   H63       1.0  0.3943764212917387  0.2946320736077581  0.6454370359066104  1.0000
  H   H64       1.0  0.3349923782301901  0.3162897112045968  0.5842949561163238  1.0000
  H   H65       1.0  0.28115382854814913  0.3483967393371898  0.6747105972719751  1.0000
  H   H66       1.0  0.6656671572632933  0.644840332724783  0.2951007954713203  1.0000
  H   H67       1.0  0.7645269763812339  0.5835651572931083  0.3167708949340662  1.0000
  H   H68       1.0  0.6959536923634745  0.6739853186343367  0.3488934913315305  1.0000
  C   C1        1.0  0.7574706191312899  0.503904842536947  0.7317971123533696  1.0000
  C   C2        1.0  0.006584179164690262  0.7313976421924195  0.5043245756195418  1.0000
  C   C3        1.0  0.23305789248407657  0.5045840718014744  0.26484270494901097  1.0000
  C   C4        1.0  0.9974177436892475  0.26421331474706744  0.5052797003476428  1.0000
  C   C5        1.0  0.00010630309908072343  0.2602575780203722  0.733578672136325  1.0000
  C   C6        1.0  0.7592951540694702  0.5109409188722437  0.49895813453701254  1.0000
  C   C7        1.0  0.005986394942247975  0.7329948184466558  0.2608434706558498  1.0000
  C   C8        1.0  0.23072518852529117  0.49841271131505477  0.5115769761507352  1.0000
  C   C9        1.0  0.9979424399072274  0.5037601655877849  0.7364209088254867  1.0000
  C   C10       1.0  0.2277569444629961  0.2589767895314736  0.5061019392628694  1.0000
  C   C11       1.0  0.007427092955374753  0.5055472299641651  0.25938723109509  1.0000
  C   C12       1.0  0.761999451759593  0.7359143667295311  0.5040564127869159  1.0000
  C   C13       1.0  0.3083083264129914  0.5099436072815848  0.1841768713909246  1.0000
  C   C14       1.0  0.6774110926480291  0.5030628810519531  0.8076937643089223  1.0000
  C   C15       1.0  0.355408900654581  0.5643257126973251  0.1529930045644007  1.0000
  C   C16       1.0  0.42562478802416603  0.5625125340217066  0.07705273686516273  1.0000
  C   C17       1.0  0.6515247205535389  0.42918738399909984  0.8593402874572434  1.0000
  C   C18       1.0  0.5770255595796812  0.43504688999082924  0.9311021153975076  1.0000
  C   C19       1.0  0.6270890800408253  0.5789507321617008  0.8282074456437412  1.0000
  C   C20       1.0  0.5522828442799864  0.583402818026812  0.8986140119449857  1.0000
  C   C21       1.0  0.33249618455990076  0.4580812364081196  0.1381338869496034  1.0000
  C   C22       1.0  0.40168689817706155  0.458647432831043  0.06237983015576991  1.0000
  C   C23       1.0  0.4502327188425286  0.5109466139606623  0.030709111937497337  1.0000
  C   C24       1.0  0.5265871130510575  0.5103223323022235  0.9524277687412024  1.0000
  C   C25       1.0  0.011403706079967518  0.8075153394075157  0.5032395277770404  1.0000
  C   C26       1.0  0.9973909256536828  0.18372182881640944  0.5103569370146702  1.0000
  C   C27       1.0  0.05938893201366816  0.8592191176876014  0.42923817750005355  1.0000
  C   C28       1.0  0.056275929575328364  0.9310509239859001  0.43496284503853383  1.0000
  C   C29       1.0  0.9269614154440192  0.15269797466003615  0.5644633484798758  1.0000
  C   C30       1.0  0.9344545553610573  0.07688855300438763  0.5624495762984909  1.0000
  C   C31       1.0  0.0711236684956376  0.13772869825780273  0.4584616589307871  1.0000
  C   C32       1.0  0.07705543363454134  0.06212606919829968  0.458790460433697  1.0000
  C   C33       1.0  0.9653397563707885  0.8281370935169362  0.5790772647905766  1.0000
  C   C34       1.0  0.9653552504413627  0.8985496643297848  0.583424397183485  1.0000
  C   C35       1.0  0.01029667255342996  0.9523342455173492  0.5102667744995344  1.0000
  C   C36       1.0  0.007810609972487729  0.030547857133939364  0.5109248849944237  1.0000
  C   C37       1.0  0.3032899617099006  0.17868392732157187  0.5049307830554425  1.0000
  C   C38       1.0  0.681616260271298  0.8114651614862609  0.5087067539845334  1.0000
  C   C39       1.0  0.3532718882625403  0.15287711964791126  0.43120371102308747  1.0000
  C   C40       1.0  0.4252871626902746  0.07848372411427822  0.4363615760022057  1.0000
  C   C41       1.0  0.6521448425972596  0.86030727792604  0.5606223262613312  1.0000
  C   C42       1.0  0.5756980898664922  0.9298701157863218  0.5594229653322952  1.0000
  C   C43       1.0  0.6338356709423112  0.8337559053068732  0.459205055718563  1.0000
  C   C44       1.0  0.557600143073117  0.9023827448221764  0.46030853659144805  1.0000
  C   C45       1.0  0.32540422566383137  0.12805396827581458  0.5801600095726941  1.0000
  C   C46       1.0  0.3960244073290582  0.05341242035012781  0.5839166885329732  1.0000
  C   C47       1.0  0.44843992637643737  0.02808251021919969  0.5108148189938646  1.0000
  C   C48       1.0  0.5272737992186977  0.9523044015476002  0.510643609918489  1.0000
  C   C49       1.0  0.9983342569684057  0.5086914607296151  0.8117049822867128  1.0000
  C   C50       1.0  0.01361104856991366  0.504708244762348  0.1788025211189961  1.0000
  C   C51       1.0  0.9272441565877471  0.5609535397996196  0.8603146989550083  1.0000
  C   C52       1.0  0.935484834978681  0.5598580095102931  0.9297319446172523  1.0000
  C   C53       1.0  0.06337407199504248  0.43117464686709883  0.15270069557508487  1.0000
  C   C54       1.0  0.06063746725977386  0.4365454605430442  0.07818221443059768  1.0000
  C   C55       1.0  0.9668026683063787  0.57998622883116  0.12829653254643594  1.0000
  C   C56       1.0  0.967113083149677  0.5839647381037524  0.053527248641650226  1.0000
  C   C57       1.0  0.07332242603248317  0.4591058666398664  0.8339870177043451  1.0000
  C   C58       1.0  0.07997727806364448  0.4603481629629299  0.9024397013156431  1.0000
  C   C59       1.0  0.01022060405342263  0.5109085440497054  0.9522151282107529  1.0000
  C   C60       1.0  0.013263731704093186  0.5110143884482666  0.027943177526900294  1.0000
  C   C61       1.0  0.07371832896345153  0.8432570722692033  0.14004221362254293  1.0000
  C   C62       1.0  0.0759343788932441  0.9149496767204113  0.06455589245766187  1.0000
  C   C63       1.0  0.14139018746674056  0.9537326851179202  0.023321455502987542  1.0000
  C   C64       1.0  0.9467254861290049  0.841560658478137  0.14150380237926902  1.0000
  C   C65       1.0  0.946478335623617  0.9131835268336344  0.06604664629476516  1.0000
  C   C66       1.0  0.8825314075839261  0.9502857289697032  0.026440716608739263  1.0000
  C   C67       1.0  0.9429519882228804  0.1394463334236987  0.8438010970698784  1.0000
  C   C68       1.0  0.944463078962876  0.06400098789743677  0.915542160970567  1.0000
  C   C69       1.0  0.8813764007389225  0.02285213621657808  0.954403236076729  1.0000
  C   C70       1.0  0.07030776137852261  0.14078545134898224  0.8419723063206846  1.0000
  C   C71       1.0  0.07434946372038087  0.06535895455014169  0.9136298715291745  1.0000
  C   C72       1.0  0.14076729778226846  0.02575290548941928  0.950753759425524  1.0000
  C   C73       1.0  0.009227796981889646  0.8076514710354629  0.17842183056958316  1.0000
  C   C74       1.0  0.011054087477198903  0.9517712923507841  0.026968735045699077  1.0000
  C   C75       1.0  0.004718859319218973  0.17776338155661608  0.8081499024113867  1.0000
  C   C76       1.0  0.010171667018191543  0.026369113597830538  0.9523143870869291  1.0000
  C   C77       1.0  0.30613328517550553  0.49890663603942886  0.5162240810858307  1.0000
  C   C78       1.0  0.6787420742392741  0.5156263623934195  0.49942709816790637  1.0000
  C   C79       1.0  0.35708867675538164  0.42672524653082167  0.5659257503870023  1.0000
  C   C80       1.0  0.4279117464457445  0.4346157791307234  0.5624802567745277  1.0000
  C   C81       1.0  0.6502922526602435  0.5653210104006943  0.42722006458809864  1.0000
  C   C82       1.0  0.5750054395044233  0.5619386130528099  0.43507283925528395  1.0000
  C   C83       1.0  0.630518214690483  0.4669726782649945  0.5755081207320883  1.0000
  C   C84       1.0  0.5554629872207218  0.46590648263835976  0.5817610600932355  1.0000
  C   C85       1.0  0.3269330140094128  0.5749733679531132  0.46752634501299895  1.0000
  C   C86       1.0  0.3967543410772764  0.5812744105402742  0.4664844385702196  1.0000
  C   C87       1.0  0.4494245326808017  0.5101234856796422  0.5136839080392334  1.0000
  C   C88       1.0  0.5267517950260583  0.5131515917034192  0.5105833002923673  1.0000
  C   C89       1.0  0.33635918947712196  0.6224800515507594  0.19642318313721313  1.0000
  C   C90       1.0  0.6993711921382086  0.34460211035544563  0.8434732036193252  1.0000
  C   C91       1.0  0.11192451876794975  0.8433551498094899  0.3446387419104083  1.0000
  C   C92       1.0  0.8443429056173315  0.19611158808639584  0.622572180083722  1.0000
  C   C93       1.0  0.3354614611574362  0.20043742523821348  0.3474146930694174  1.0000
  C   C94       1.0  0.6980428453653361  0.8438187433224654  0.6154342475561234  1.0000
  C   C95       1.0  0.8431077776211073  0.6160005660638601  0.8437047392276253  1.0000
  C   C96       1.0  0.11751114346225233  0.3473732734875553  0.2001356788659479  1.0000
  C   C97       1.0  0.34136264062196636  0.34190596309651505  0.6202723282148952  1.0000
  C   C98       1.0  0.6965789909945673  0.619606614515767  0.34239324845240293  1.0000
  Cl  Cl1       1.0  0.2197729542685992  0.0708251119810582  0.9023194974760287  1.0000
  Cl  Cl2       1.0  0.22086452979020535  0.9078230838126939  0.06710636755771292  1.0000
  Cl  Cl3       1.0  0.8040057999706393  0.06667907399049247  0.9085195174776004  1.0000
  Cl  Cl4       1.0  0.8068763904732776  0.9018851661874407  0.07152806530093145  1.0000
  O   O1        1.0  0.7905894789548147  0.4448467957449509  0.6996919001227154  1.0000
  O   O2        1.0  0.06475385272433004  0.6991707715538665  0.44536137007410287  1.0000
  O   O3        1.0  0.20155501054313174  0.5619346832738401  0.2986469213445843  1.0000
  O   O4        1.0  0.9378142143908904  0.2978448686387268  0.5627908893041463  1.0000
  O   O5        1.0  0.05804368141431142  0.2922446462982932  0.7052959593455057  1.0000
  O   O6        1.0  0.793349715992193  0.5685256181236296  0.43938323006589286  1.0000
  O   O7        1.0  0.9443811381520318  0.7046849460460224  0.29278581879705684  1.0000
  O   O8        1.0  0.19872318266736488  0.4387882746682976  0.5691433992954913  1.0000
  O   O9        1.0  0.9388558720863002  0.5621487936207855  0.7041455669837401  1.0000
  O   O10       1.0  0.19606901849025613  0.29365638315483267  0.4462639973719149  1.0000
  O   O11       1.0  0.06412131819843135  0.4455881795980047  0.29420624831936953  1.0000
  O   O12       1.0  0.7948070412973112  0.7035227678108953  0.562595892060571  1.0000
  O   O13       1.0  0.19983848084241648  0.28896640513323035  0.5654947246556574  1.0000
  O   O14       1.0  0.9458499183480031  0.5648262091416425  0.28949317159289467  1.0000
  O   O15       1.0  0.7933835066994777  0.7080239305288812  0.4422700758138162  1.0000
  O   O16       1.0  0.05618859343582026  0.4419087630744655  0.7085931137714709  1.0000
  O   O17       1.0  0.9386230468639384  0.29269696643351745  0.7052629533597923  1.0000
  O   O18       1.0  0.2030080787173035  0.557532286603667  0.44959663253529664  1.0000
  O   O19       1.0  0.06339807659829011  0.7046339347837572  0.29323663538132644  1.0000
  O   O20       1.0  0.7898674316091178  0.44892289326276114  0.5580622468377214  1.0000
  O   O21       1.0  0.05639709567014246  0.29517298127676384  0.4438084248260806  1.0000
  O   O22       1.0  0.7885750434140631  0.5625236724910465  0.7039936670131438  1.0000
  O   O23       1.0  0.9447281423334036  0.7035201436738419  0.5630230907888034  1.0000
  O   O24       1.0  0.20471595352498173  0.4430384420469408  0.2957855738660129  1.0000
  O   O25       1.0  0.9462317940136346  0.45157560050853357  0.4470335964872091  1.0000
  O   O26       1.0  0.15508031736434466  0.4464266688512808  0.45226242439090203  1.0000
  O   O27       1.0  0.9487859899423866  0.6580697348513098  0.44867348592492096  1.0000
  O   O28       1.0  0.9443408103767156  0.4481220442402074  0.6587272605681844  1.0000
  O   O29       1.0  0.03702446899780676  0.5375651896183483  0.5419319681371135  1.0000
  O   O30       1.0  0.8834192201921315  0.5412893160154438  0.538161761601188  1.0000
  O   O31       1.0  0.03827888774502953  0.5400972269252833  0.386177311081795  1.0000
  O   O32       1.0  0.03536702024046437  0.3856003004755947  0.5407708469701334  1.0000
