data_image0
_chemical_formula_structural       Zn4H36C44N12O24
_chemical_formula_sum              "Zn4 H36 C44 N12 O24"
_cell_length_a       9.850550968
_cell_length_b       9.881331152602812
_cell_length_c       15.803
_cell_angle_alpha    103.56973762802669
_cell_angle_beta     90.0
_cell_angle_gamma    119.89714468745778

_space_group_name_H-M_alt    "P 1"
_space_group_IT_number       1

loop_
  _space_group_symop_operation_xyz
  'x, y, z'

loop_
  _atom_site_type_symbol
  _atom_site_label
  _atom_site_symmetry_multiplicity
  _atom_site_fract_x
  _atom_site_fract_y
  _atom_site_fract_z
  _atom_site_occupancy
  Zn  Zn1       1.0  0.21021256977655872  0.27182117750479057  0.786052786057006  1.0000
  Zn  Zn2       1.0  0.9383973910315007  0.7281636809250998  0.713957268686876  1.0000
  Zn  Zn3       1.0  0.7897888116863855  0.7281806575467515  0.2139477362782571  1.0000
  Zn  Zn4       1.0  0.06160176263902882  0.27183572889477153  0.2860428978448226  1.0000
  H   H1        1.0  0.179619122939549  0.3064825884451281  0.6353048609938058  1.0000
  H   H2        1.0  0.8731295758289123  0.6935131835272514  0.8647048964924194  1.0000
  H   H3        1.0  0.8203820610742696  0.6935168213747502  0.36469530553789303  1.0000
  H   H4        1.0  0.12687018415200413  0.3064874389084551  0.13529544794106838  1.0000
  H   H5        1.0  0.2383746696822087  0.48825127642213323  0.688337862577562  1.0000
  H   H6        1.0  0.750121390627612  0.5117396450869194  0.8116743472577282  1.0000
  H   H7        1.0  0.7616254991599689  0.5117481333977452  0.311661671162895  1.0000
  H   H8        1.0  0.24987877821456553  0.48825976473295185  0.18832645206521187  1.0000
  H   H9        1.0  0.20373026062249983  0.0408493895307558  0.8498511056167359  1.0000
  H   H10       1.0  0.16288933258937283  0.9591342562833063  0.6501587712253709  1.0000
  H   H11       1.0  0.796270317080932  0.9591488076732873  0.15014825022193892  1.0000
  H   H12       1.0  0.8371118514244459  0.0408651535365721  0.34984202809756937  1.0000
  H   H13       1.0  0.07530357684701271  0.0659578129470262  0.8951553183370322  1.0000
  H   H14       1.0  0.009355533234788974  0.9340306833303629  0.6048546373209618  1.0000
  H   H15       1.0  0.9246965919951651  0.9340415968728522  0.10484358261218318  1.0000
  H   H16       1.0  0.9906462570894092  0.0659699391053437  0.39514570711251906  1.0000
  H   H17       1.0  0.7701283262594673  0.2866017518803758  0.7634101190936277  1.0000
  H   H18       1.0  0.48351070027424475  0.7133758308545239  0.736595071492104  1.0000
  H   H19       1.0  0.2298724488930972  0.7133988705553307  0.23658959254861864  1.0000
  H   H20       1.0  0.5164900748783126  0.2866247915811826  0.2634046401501422  1.0000
  H   H21       1.0  0.016059155804249794  0.5219425946969096  0.4067458505992221  1.0000
  H   H22       1.0  0.494139349836388  0.4780677286654509  0.09324642517990608  1.0000
  H   H23       1.0  0.9839406041766665  0.47805802773879696  0.5932551266255073  1.0000
  H   H24       1.0  0.5058598038341416  0.5219316811544275  0.9067543741430343  1.0000
  H   H25       1.0  0.18260965100651558  0.7777839207683215  0.5275997256471427  1.0000
  H   H26       1.0  0.4048466595482837  0.2222288278257025  0.9723922731443081  1.0000
  H   H27       1.0  0.8173911241460489  0.22221670166738514  0.4723999859950965  1.0000
  H   H28       1.0  0.5951524941222531  0.7777705819941687  0.027608526178632076  1.0000
  H   H29       1.0  0.5767324111753922  0.7043297167482052  0.4801454790746433  1.0000
  H   H30       1.0  0.8724388970906106  0.2957048589307903  0.01983010542042511  1.0000
  H   H31       1.0  0.4232683639771653  0.2956709056875013  0.5198529669851126  1.0000
  H   H32       1.0  0.1275602565799261  0.704294550889081  0.9801706939025151  1.0000
  H   H33       1.0  0.3930956670972919  0.45064684685765855  0.3623318027093632  1.0000
  H   H34       1.0  0.9424820090874493  0.5493816657421817  0.13764542344174663  1.0000
  H   H35       1.0  0.606902880262858  0.5493513503463845  0.6376675531293117  1.0000
  H   H36       1.0  0.0575177508934672  0.4506189566935248  0.8623549209917343  1.0000
  C   C1        1.0  0.5340886845045176  0.130929769222675  0.6891693563168816  1.0000
  C   C2        1.0  0.40315926956576936  0.8690647901338693  0.8108345281463728  1.0000
  C   C3        1.0  0.4659126969584264  0.8690720658288598  0.3108305332271398  1.0000
  C   C4        1.0  0.5968402929660215  0.1309334070701738  0.1891660932747854  1.0000
  C   C5        1.0  0.6920448314478165  0.17945986743298195  0.7106142917731333  1.0000
  C   C6        1.0  0.512581680287994  0.8205298414602424  0.7893863499180185  1.0000
  C   C7        1.0  0.3079565500151276  0.8205419676185599  0.2893855977708952  1.0000
  C   C8        1.0  0.4874190948645634  0.17947078097546415  0.2106133617242207  1.0000
  C   C9        1.0  0.7459150384036946  0.0835734831376982  0.6602499804176247  1.0000
  C   C10       1.0  0.6623463605038538  0.9164235014505095  0.8397409712331125  1.0000
  C   C11       1.0  0.2540857367488699  0.9164271392980086  0.33974973122461444  1.0000
  C   C12       1.0  0.3376544146487036  0.083577120985197  0.1602593732003683  1.0000
  C   C13       1.0  0.49939162072102766  0.9104271161615358  0.5828364414922476  1.0000
  C   C14       1.0  0.5889881367569103  0.0895880576641517  0.9171508507728348  1.0000
  C   C15       1.0  0.5006093518806553  0.0895759315058342  0.4171629931623144  1.0000
  C   C16       1.0  0.41101101691361924  0.9104113521557196  0.08284994855010548  1.0000
  C   C17       1.0  0.4641763480397857  0.2277777578726869  0.7381408578164539  1.0000
  C   C18       1.0  0.23639448943330174  0.7722168014838573  0.7618737840979222  1.0000
  C   C19       1.0  0.5358260485948066  0.7722240771788478  0.2618590317275746  1.0000
  C   C20       1.0  0.7636060882701301  0.2277813957201857  0.2381262045319943  1.0000
  C   C21       1.0  0.9169714355364889  0.1300457722811927  0.675341633896771  1.0000
  C   C22       1.0  0.7869195491734475  0.8699378735328696  0.824653688746757  1.0000
  C   C23       1.0  0.08302933961607552  0.8699548501545138  0.32465744495422655  1.0000
  C   C24       1.0  0.2130796044970822  0.1300615362870019  0.1753458449937  1.0000
  C   C25       1.0  0.14050645640456594  0.567148912911847  0.4266242481963545  1.0000
  C   C26       1.0  0.5733833771584927  0.4328698987613393  0.0733642105653232  1.0000
  C   C27       1.0  0.8594933035763506  0.4328517095238595  0.5733754634458847  1.0000
  C   C28       1.0  0.4266151702016573  0.5671282984427037  0.9266364108558278  1.0000
  C   C29       1.0  0.23368339082072964  0.7084671619668086  0.4930064823678393  1.0000
  C   C30       1.0  0.52524128967206  0.2915492244747142  0.006979722216541992  1.0000
  C   C31       1.0  0.7663169754705736  0.2915346730847332  0.5069927743849405  1.0000
  C   C32       1.0  0.4747574551372154  0.7084513979609923  0.9930212550081803  1.0000
  C   C33       1.0  0.39324886723727576  0.7595195011075548  0.5136090255157769  1.0000
  C   C34       1.0  0.633751779876036  0.24049809794979643  0.9863741930141856  1.0000
  C   C35       1.0  0.6067525142256757  0.2404823339439872  0.4863895984457685  1.0000
  C   C36       1.0  0.3662471763453682  0.7594988866384116  0.013626250505190306  1.0000
  C   C37       1.0  0.4527285329447965  0.6661783974435311  0.4663663423705984  1.0000
  C   C38       1.0  0.7865777937460123  0.3338428394613189  0.033614245908502496  1.0000
  C   C39       1.0  0.5472706207257332  0.3338210123763474  0.5336338241611003  1.0000
  C   C40       1.0  0.21342135992452435  0.6661565703585524  0.9663865534144378  1.0000
  C   C41       1.0  0.35192805991063386  0.526361366788521  0.40116492771389284  1.0000
  C   C42       1.0  0.825597543343598  0.4736671458113194  0.09881482960219048  1.0000
  C   C43       1.0  0.6480706848986416  0.4736392556471856  0.5988341511371047  1.0000
  C   C44       1.0  0.17440161032693882  0.5263322640085519  0.9011859697207498  1.0000
  N   N1        1.0  0.4366148936067873  0.9952107898995236  0.6262577032574725  1.0000
  N   N2        1.0  0.4414174643539184  0.0047946829995169  0.8737420872006679  1.0000
  N   N3        1.0  0.5633875030277977  0.0047910451520181  0.373742186286556  1.0000
  N   N4        1.0  0.5585820981778725  0.9952035142045262  0.1262579014292484  1.0000
  N   N5        1.0  0.6511581770308226  0.9506204805272134  0.5958179047874097  1.0000
  N   N6        1.0  0.7005564980507516  0.049393480682645916  0.9041647800371919  1.0000
  N   N7        1.0  0.3488432044321215  0.0493813545243285  0.40418135196537014  1.0000
  N   N8        1.0  0.2994432619301648  0.9506071417530606  0.09583556439628886  1.0000
  N   N9        1.0  0.19824943347094157  0.4776578645142564  0.38169290704523456  1.0000
  N   N10       1.0  0.7206214188240382  0.5223621597747652  0.11829383124450028  1.0000
  N   N11       1.0  0.8017493113383339  0.5223427579214501  0.6183068045970047  1.0000
  N   N12       1.0  0.2793783411568782  0.4776384626609413  0.8817071459802222  1.0000
  O   O1        1.0  0.31367866114786846  0.16020716586917425  0.719467907515437  1.0000
  O   O2        1.0  0.15347273156393734  0.8397934565665324  0.7805476239078644  1.0000
  O   O3        1.0  0.6863237354867169  0.8397946691823606  0.28053134923734996  1.0000
  O   O4        1.0  0.8465262246574741  0.16020352802168256  0.2194521868202699  1.0000
  O   O5        1.0  0.5518705899447341  0.3620228187799057  0.7927874221390496  1.0000
  O   O6        1.0  0.18983156204576093  0.6379668901133115  0.7072258753769487  1.0000
  O   O7        1.0  0.44812957889743654  0.6379765910399655  0.207212744392649  1.0000
  O   O8        1.0  0.8101700308293118  0.3620313070907315  0.2927734804617259  1.0000
  O   O9        1.0  0.9799437576298902  0.1919328338803723  0.7562725765432461  1.0000
  O   O10       1.0  0.7880122841600681  0.8080459614703557  0.7437264640318375  1.0000
  O   O11       1.0  0.020057017522667326  0.8080677885553342  0.24372713509899313  1.0000
  O   O12       1.0  0.21198788468210245  0.1919534483495156  0.256273702499854  1.0000
  O   O13       1.0  0.9836086410728131  0.10874617519306183  0.6099159600961386  1.0000
  O   O14       1.0  0.8748410274616633  0.8912289823101744  0.8900863435210482  1.0000
  O   O15       1.0  0.016392134079751566  0.8912544472426449  0.3900843843373423  1.0000
  O   O16       1.0  0.1251593388296399  0.1087728527413674  0.1099135460229803  1.0000
  O   O17       1.0  0.2665865996822134  0.402510848792744  0.6778009784419722  1.0000
  O   O18       1.0  0.8640722644679002  0.597482497947972  0.8222115871968896  1.0000
  O   O19       1.0  0.7334135691599571  0.5974885610271345  0.3221985552984847  1.0000
  O   O20       1.0  0.13592749551301608  0.4025181244877345  0.1777887572365913  1.0000
  O   O21       1.0  0.18032956198515393  0.12697421637886924  0.8768438024500611  1.0000
  O   O22       1.0  0.05336222984995235  0.8730130672826846  0.623167240888634  1.0000
  O   O23       1.0  0.8196700005466371  0.8730239808251739  0.12315555338861368  1.0000
  O   O24       1.0  0.946638136441351  0.1269887677688573  0.376835179820354  1.0000
