data_image0
_chemical_formula_structural       Ca2H24C24N4O16
_chemical_formula_sum              "Ca2 H24 C24 N4 O16"
_cell_length_a       7.843696093724879
_cell_length_b       8.878701936101207
_cell_length_c       9.89709980011936
_cell_angle_alpha    90.0000937007296
_cell_angle_beta     90.00054837143463
_cell_angle_gamma    95.13531946558966

_space_group_name_H-M_alt    "P 1"
_space_group_IT_number       1

loop_
  _space_group_symop_operation_xyz
  'x, y, z'

loop_
  _atom_site_type_symbol
  _atom_site_label
  _atom_site_symmetry_multiplicity
  _atom_site_fract_x
  _atom_site_fract_y
  _atom_site_fract_z
  _atom_site_occupancy
  Ca  Ca1       1.0  0.49999910628562816  0.9999993887402138  0.5000006311911492  1.0000
  Ca  Ca2       1.0  0.4999990774745059  0.5000005365804655  2.554252276000004e-07  1.0000
  H   H1        1.0  0.11929972886747454  0.8892821762090362  0.4840924154671599  1.0000
  H   H2        1.0  0.8807014916024726  0.6107157172042008  0.9840921000644446  1.0000
  H   H3        1.0  0.8807003833639725  0.11071691244507778  0.515909125994277  1.0000
  H   H4        1.0  0.11929850280441197  0.38928224062232886  0.0159084309987065  1.0000
  H   H5        1.0  0.1471086893947202  0.055777471178977585  0.42387932342298745  1.0000
  H   H6        1.0  0.8528912605574988  0.4442217014703616  0.9238782728975186  1.0000
  H   H7        1.0  0.8528914228305383  0.9442216174737225  0.5761212076414426  1.0000
  H   H8        1.0  0.1471088516615566  0.5557773871809245  0.07612124776990473  1.0000
  H   H9        1.0  0.013263746829394981  0.25864046562315207  0.6706421585895371  1.0000
  H   H10       1.0  0.9867408616110468  0.24135911185766892  0.17063979323752682  1.0000
  H   H11       1.0  0.9867377578277399  0.7413597509783968  0.32935837248103894  1.0000
  H   H12       1.0  0.013258093819075547  0.7586411104985158  0.8293607378233149  1.0000
  H   H13       1.0  0.22372115053290287  0.41837275259152307  0.30648791566883926  1.0000
  H   H14       1.0  0.7762754954088819  0.0816204402607497  0.8064847388884007  1.0000
  H   H15       1.0  0.7762776870664467  0.5816263389356705  0.6935105945967168  1.0000
  H   H16       1.0  0.2237257736053095  0.9183775146870515  0.1935147817826177  1.0000
  H   H17       1.0  0.1785559523875762  0.4646590296512088  0.8004254050091577  1.0000
  H   H18       1.0  0.8214467779995331  0.03534431216204581  0.30042349591103357  1.0000
  H   H19       1.0  0.82144706250741  0.5353434457225247  0.19957310527482974  1.0000
  H   H20       1.0  0.178551020641649  0.9646570438990452  0.6995780455432198  1.0000
  H   H21       1.0  0.393945261745003  0.6359976125548172  0.4235118960377307  1.0000
  H   H22       1.0  0.6060499991832625  0.8639989919966664  0.9235118729654064  1.0000
  H   H23       1.0  0.6060538114786953  0.36400374062188934  0.5764845934363623  1.0000
  H   H24       1.0  0.3939513876554983  0.13600009377871197  0.07648865810389081  1.0000
  C   C1        1.0  0.10025653232779057  0.34405864443709777  0.6220141663922618  1.0000
  C   C2        1.0  0.8997450480815488  0.1559419335308263  0.12201202166981774  1.0000
  C   C3        1.0  0.8997449723293371  0.6559415721644513  0.37798636467831415  1.0000
  C   C4        1.0  0.10025263273507079  0.8440582917026874  0.8779885093861498  1.0000
  C   C5        1.0  0.3020454364174369  0.565549417801499  0.6231730144017577  1.0000
  C   C6        1.0  0.6979542585569191  0.9344508522376099  0.12317175570861855  1.0000
  C   C7        1.0  0.6979549114321629  0.434451932500714  0.3768254958712163  1.0000
  C   C8        1.0  0.30204330444752253  0.06554824217114688  0.8768297857430768  1.0000
  C   C9        1.0  0.41205763451424093  0.6828205283216562  0.7020057052926348  1.0000
  C   C10       1.0  0.587941870880769  0.817181096049559  0.20200545512761894  1.0000
  C   C11       1.0  0.5879438701366907  0.317179688278479  0.29799381538093433  1.0000
  C   C12       1.0  0.4120583591628559  0.1828191234293115  0.79799507593809  1.0000
  C   C13       1.0  0.2201070091097534  0.43630774422960167  0.41536223389424987  1.0000
  C   C14       1.0  0.779891090451244  0.0636868841542579  0.9153600689049243  1.0000
  C   C15       1.0  0.7798918284896033  0.563691347297592  0.5846362763712991  1.0000
  C   C16       1.0  0.22011029638751714  0.9363122016211204  0.08464046216437283  1.0000
  C   C17       1.0  0.19183172580635946  0.45920871322571327  0.6913712821653919  1.0000
  C   C18       1.0  0.8081695487611287  0.040793192554026796  0.19136927957593747  1.0000
  C   C19       1.0  0.8081674652481112  0.5407937707799845  0.30862722810398685  1.0000
  C   C20       1.0  0.19182940667519688  0.959207029803572  0.8086322618819113  1.0000
  C   C21       1.0  0.311604909352674  0.5544972284580892  0.4821721407442397  1.0000
  C   C22       1.0  0.6883924637044246  0.9455006682100942  0.9821698349611482  1.0000
  C   C23       1.0  0.6883954384907297  0.44550412184270266  0.5178253591317272  1.0000
  C   C24       1.0  0.31160776633300463  0.0544995512673623  0.017829685707553708  1.0000
  N   N1        1.0  0.11815330747991479  0.33138488366822827  0.48582887553438076  1.0000
  N   N2        1.0  0.8818458922826834  0.16861220358119058  0.9858266327740853  1.0000
  N   N3        1.0  0.8818469225575071  0.6686153358092284  0.5141706451343142  1.0000
  N   N4        1.0  0.11815306314743877  0.8313880187749945  0.014173898286749404  1.0000
  O   O1        1.0  0.48064621708062555  0.7962046346070436  0.6386319293261807  1.0000
  O   O2        1.0  0.5193525107743967  0.7037968124019186  0.1386319995433993  1.0000
  O   O3        1.0  0.5193578368097177  0.20379557624127634  0.3613696121511297  1.0000
  O   O4        1.0  0.48064771926302535  0.2962034070755379  0.8613675211253027  1.0000
  O   O5        1.0  0.03520720812878859  0.2164472152874666  0.4206427117276449  1.0000
  O   O6        1.0  0.9647911918603355  0.28354968952808685  0.9206412709717217  1.0000
  O   O7        1.0  0.9647930219148364  0.783553004191404  0.5793578193380569  1.0000
  O   O8        1.0  0.03520892036492276  0.716449399124613  0.07935926009270843  1.0000
  O   O9        1.0  0.2030526168420366  0.9599152438056464  0.4339871996552347  1.0000
  O   O10       1.0  0.7969455574790274  0.5400836459618927  0.9339881616645445  1.0000
  O   O11       1.0  0.7969463385880858  0.0400849785505457  0.5660133314055997  1.0000
  O   O12       1.0  0.20305328013272117  0.4599154455681287  0.0660123693950183  1.0000
  O   O13       1.0  0.43040010100773435  0.6591259001901548  0.8272020301971993  1.0000
  O   O14       1.0  0.5696000192799104  0.8408794699207576  0.3272016745167222  1.0000
  O   O15       1.0  0.5695988544161847  0.3408743221646233  0.17279749046663545  1.0000
  O   O16       1.0  0.4303988183380342  0.1591196216106781  0.6727998669398403  1.0000
