data_image0
_chemical_formula_structural       Al4H20C32S8N8O20
_chemical_formula_sum              "Al4 H20 C32 S8 N8 O20"
_cell_length_a       6.72663032321952
_cell_length_b       14.41191508075393
_cell_length_c       19.881457323156656
_cell_angle_alpha    90.28775420471531
_cell_angle_beta     89.57278874180422
_cell_angle_gamma    93.22154016942302

_space_group_name_H-M_alt    "P 1"
_space_group_IT_number       1

loop_
  _space_group_symop_operation_xyz
  'x, y, z'

loop_
  _atom_site_type_symbol
  _atom_site_label
  _atom_site_symmetry_multiplicity
  _atom_site_fract_x
  _atom_site_fract_y
  _atom_site_fract_z
  _atom_site_occupancy
  Al  Al1       1.0  0.024583864363876304  0.9968395024834251  0.49997290517266185  1.0000
  Al  Al2       1.0  0.5250542618045203  0.004041452610692901  0.4992537519101887  1.0000
  Al  Al3       1.0  0.9750388242981388  0.4960459167079989  0.0005663538337756989  1.0000
  Al  Al4       1.0  0.47553616523202175  0.5031026524073499  0.9999387574767127  1.0000
  H   H1        1.0  0.7960010060070744  0.1246072594344199  0.5010711728746529  1.0000
  H   H2        1.0  0.27114438552665376  0.8767671593310808  0.506382633685817  1.0000
  H   H3        1.0  0.7043907360181263  0.3752878208522433  0.00012608793255710078  1.0000
  H   H4        1.0  0.2293313228444873  0.6234157958657394  0.9952417278669756  1.0000
  H   H5        1.0  0.8031833815515697  0.1496710442008933  0.7060719043008916  1.0000
  H   H6        1.0  0.9039133153951011  0.10077549933660633  0.6346067572067112  1.0000
  H   H7        1.0  0.6968240584318294  0.35095669022159376  0.7932579625563179  1.0000
  H   H8        1.0  0.5964037529144263  0.39962530843817495  0.8648291444995523  1.0000
  H   H9        1.0  0.31234379461265865  0.8508656129585007  0.2758088277258324  1.0000
  H   H10       1.0  0.4029600139579729  0.9033836957078237  0.348859038617185  1.0000
  H   H11       1.0  0.1879215213473415  0.6481437024027841  0.2246934035181667  1.0000
  H   H12       1.0  0.09714890008575591  0.5958311235621992  0.15161120003022427  1.0000
  H   H13       1.0  0.20948512235422362  0.8512807572348253  0.7206710775562327  1.0000
  H   H14       1.0  0.1231528028997317  0.9071251503483854  0.650548912790903  1.0000
  H   H15       1.0  0.29050090733726813  0.6500240731998022  0.7800267321174346  1.0000
  H   H16       1.0  0.3767231784430933  0.5941095411579203  0.8501344603083325  1.0000
  H   H17       1.0  0.8015126864514811  0.14590358031419737  0.2891138464974219  1.0000
  H   H18       1.0  0.9017393475105135  0.09062891124884229  0.3573533498952486  1.0000
  H   H19       1.0  0.6979057002219234  0.35287841421418165  0.2102666737981735  1.0000
  H   H20       1.0  0.5978326906980983  0.40846488756552907  0.1421052655995041  1.0000
  C   C1        1.0  0.2790800832035742  0.1034436402547527  0.4036230853138818  1.0000
  C   C2        1.0  0.29012917212511263  0.11192910416754391  0.5911139439266577  1.0000
  C   C3        1.0  0.7592149112163186  0.8967654530258502  0.5955188860035321  1.0000
  C   C4        1.0  0.7586346483047067  0.8903004672547258  0.4084454264411619  1.0000
  C   C5        1.0  0.22051852379640025  0.39552764796658135  0.09564609895780757  1.0000
  C   C6        1.0  0.21006456266525222  0.38886828646256083  0.9082126824200428  1.0000
  C   C7        1.0  0.7410006563423791  0.6042180056728625  0.9050114255748554  1.0000
  C   C8        1.0  0.7414528600811108  0.6090453311874316  0.09205429600520179  1.0000
  C   C9        1.0  0.1053629829206244  0.17486481618068692  0.691937540171395  1.0000
  C   C10       1.0  0.3946383886049745  0.3259939404496351  0.8073574516415148  1.0000
  C   C11       1.0  0.2774748398880504  0.16627930653760364  0.652110114056178  1.0000
  C   C12       1.0  0.22254521579937864  0.33456926794409725  0.8471848169608052  1.0000
  C   C13       1.0  0.3490140695295736  0.26746277254294887  0.7506727051724411  1.0000
  C   C14       1.0  0.1509809337533952  0.23345898073584695  0.7485977564092678  1.0000
  C   C15       1.0  0.6022779902880869  0.82718284763498  0.3001872072389844  1.0000
  C   C16       1.0  0.8979387530666402  0.6719753629843412  0.20039691143657729  1.0000
  C   C17       1.0  0.7571383586061414  0.8356700800463416  0.3474779891305104  1.0000
  C   C18       1.0  0.7431078359852777  0.663576598891524  0.15309161440204377  1.0000
  C   C19       1.0  0.8441697677096158  0.732041148297846  0.2540685858624697  1.0000
  C   C20       1.0  0.6560937154700852  0.767011748611843  0.2465977422531509  1.0000
  C   C21       1.0  0.9104053036006834  0.83002447366453  0.700214701786301  1.0000
  C   C22       1.0  0.5894239090710655  0.6714113530456203  0.8005903736942486  1.0000
  C   C23       1.0  0.7513907003890524  0.8409058473543852  0.6556768860138078  1.0000
  C   C24       1.0  0.748543368117673  0.6604942694313821  0.8450730573913674  1.0000
  C   C25       1.0  0.6512239061301841  0.7335653394395439  0.7477776369087294  1.0000
  C   C26       1.0  0.8485229721749049  0.7680030095467533  0.7530937375053384  1.0000
  C   C27       1.0  0.10330306326449801  0.16865908963308843  0.3032044317654723  1.0000
  C   C28       1.0  0.39626159767710334  0.329870267758409  0.1958820464583866  1.0000
  C   C29       1.0  0.27228944478626715  0.15942031580612345  0.34376717040616  1.0000
  C   C30       1.0  0.2272733491140571  0.3392903758076431  0.1553648708450268  1.0000
  C   C31       1.0  0.3480727323180588  0.2672735954110622  0.2497893407188627  1.0000
  C   C32       1.0  0.15153950005672806  0.23101970325964777  0.24913569191437548  1.0000
  S   S1        1.0  0.48694419929622507  0.22903726556334195  0.6838159527503933  1.0000
  S   S2        1.0  0.013082284142377902  0.2718883315857568  0.8154504161263318  1.0000
  S   S3        1.0  0.9621448520052381  0.7716814470473782  0.3262433409861885  1.0000
  S   S4        1.0  0.53805610153983  0.7274172390586104  0.17443628689516538  1.0000
  S   S5        1.0  0.5338811296720394  0.7759953548297533  0.6784950507471875  1.0000
  S   S6        1.0  0.9660349279348353  0.7254025467269687  0.8222780692469485  1.0000
  S   S7        1.0  0.48149439162986596  0.22672393833098442  0.3161434741669567  1.0000
  S   S8        1.0  0.0180624623027086  0.2718216791891237  0.18286458327921906  1.0000
  N   N1        1.0  0.9255596206543117  0.13082175543326005  0.6804843860625311  1.0000
  N   N2        1.0  0.5745458793821854  0.3699674794551981  0.8188284041363119  1.0000
  N   N3        1.0  0.431244853536576  0.8727037717664031  0.3038327168058287  1.0000
  N   N4        1.0  0.0689226909514389  0.6264050441482496  0.1966829840769435  1.0000
  N   N5        1.0  0.0927276388551661  0.8746863002058094  0.695097595102453  1.0000
  N   N6        1.0  0.40723333953763324  0.6266224621200964  0.8056198968820212  1.0000
  N   N7        1.0  0.9233288655658358  0.12312626246751533  0.3123540100858193  1.0000
  N   N8        1.0  0.5761734737660547  0.3755481015274712  0.18692956526359686  1.0000
  O   O1        1.0  0.10948220864261062  0.06704329207258301  0.42371697790655105  1.0000
  O   O2        1.0  0.4615010411098411  0.08847293028679101  0.5703255444615394  1.0000
  O   O3        1.0  0.5977482442569054  0.9114797688712104  0.564453880614316  1.0000
  O   O4        1.0  0.9213499705154717  0.9001468194322584  0.441777981806851  1.0000
  O   O5        1.0  0.9345217615256658  0.9285003551057617  0.5771477735999611  1.0000
  O   O6        1.0  0.5937337013028667  0.9258244694789186  0.42532199247190755  1.0000
  O   O7        1.0  0.4456769958097481  0.09298251995487314  0.43283471361277037  1.0000
  O   O8        1.0  0.12389162856591439  0.09052111219830292  0.5616437511701021  1.0000
  O   O9        1.0  0.7839536002018547  0.05746884874444191  0.49804649385080074  1.0000
  O   O10       1.0  0.2709162049079978  0.9435933934125916  0.5018284331024744  1.0000
  O   O11       1.0  0.0539151820274029  0.40640287434309397  0.0665518405491596  1.0000
  O   O12       1.0  0.37645105461731987  0.4103477072233873  0.9375478351270842  1.0000
  O   O13       1.0  0.5657663784535885  0.5725021532824146  0.9234095566751321  1.0000
  O   O14       1.0  0.9064226323346319  0.573757279352087  0.0749400324106517  1.0000
  O   O15       1.0  0.9025991578437027  0.5890956206673368  0.9358632051888874  1.0000
  O   O16       1.0  0.5784325023912872  0.599129250518267  0.0588973938805353  1.0000
  O   O17       1.0  0.3903287737050434  0.43173697518788867  0.0755604485849588  1.0000
  O   O18       1.0  0.0387653900805276  0.41220715677318515  0.9291309937224596  1.0000
  O   O19       1.0  0.7162126424032846  0.4425262573908384  0.0015565042519441001  1.0000
  O   O20       1.0  0.22923032181193997  0.5564198180266474  0.9984217878260964  1.0000
