data_image0
_chemical_formula_structural       Gd4H96C96N24O48
_chemical_formula_sum              "Gd4 H96 C96 N24 O48"
_cell_length_a       15.89973294950594
_cell_length_b       15.899714978982756
_cell_length_c       16.440369350021776
_cell_angle_alpha    90.00001293824825
_cell_angle_beta     89.99983277237556
_cell_angle_gamma    120.00007864887121

_space_group_name_H-M_alt    "P 1"
_space_group_IT_number       1

loop_
  _space_group_symop_operation_xyz
  'x, y, z'

loop_
  _atom_site_type_symbol
  _atom_site_label
  _atom_site_symmetry_multiplicity
  _atom_site_fract_x
  _atom_site_fract_y
  _atom_site_fract_z
  _atom_site_occupancy
  Gd  Gd1       1.0  0.333334032317353  0.6666676126064955  0.33309735029273213  1.0000
  Gd  Gd2       1.0  0.6666671821974222  0.33333417280686456  0.1669034985917861  1.0000
  Gd  Gd3       1.0  0.6666663102941967  0.3333323920854312  0.6669019977141346  1.0000
  Gd  Gd4       1.0  0.33333398394838537  0.666663750462554  0.8330958494136951  1.0000
  H   H1        1.0  0.7439158451127599  0.49281223546548597  0.9867219715355448  1.0000
  H   H2        1.0  0.507187932348856  0.2511035948874322  0.9867216704354291  1.0000
  H   H3        1.0  0.7488967041371097  0.256084666103632  0.9867207224622233  1.0000
  H   H4        1.0  0.49281037449141973  0.7439158207285175  0.5132786091935415  1.0000
  H   H5        1.0  0.2511045328549314  0.5071888939384407  0.5132770991206996  1.0000
  H   H6        1.0  0.25608316563268113  0.7488968656396294  0.5132783347115222  1.0000
  H   H7        1.0  0.2560819817262612  0.5071852534540042  0.013279201251116  1.0000
  H   H8        1.0  0.49280982326023787  0.748890191604673  0.0132788940920889  1.0000
  H   H9        1.0  0.25110238059112067  0.7439140807033694  0.0132780172874405  1.0000
  H   H10       1.0  0.5071913232994518  0.25608408666572297  0.4867213470702438  1.0000
  H   H11       1.0  0.7488948176940652  0.4928108449301972  0.4867228571463755  1.0000
  H   H12       1.0  0.7439164507406133  0.2511038652921939  0.4867210132964459  1.0000
  H   H13       1.0  0.09450314585947676  0.6853759726431007  0.0597400829544412  1.0000
  H   H14       1.0  0.3146243061152205  0.4091286819537103  0.059739743282833  1.0000
  H   H15       1.0  0.5908710084776772  0.9054965599928407  0.0597406244904803  1.0000
  H   H16       1.0  0.6853751031936569  0.09450413393018657  0.4402604437846378  1.0000
  H   H17       1.0  0.40912875779729047  0.3146254709515117  0.4402614646658591  1.0000
  H   H18       1.0  0.9054964590913172  0.5908718524727733  0.4402595792230244  1.0000
  H   H19       1.0  0.9054942205655933  0.3146232345794716  0.9402604815742066  1.0000
  H   H20       1.0  0.6853755048512652  0.5908693386133946  0.9402589964657295  1.0000
  H   H21       1.0  0.40912807625056047  0.09450218681416804  0.9402581152591836  1.0000
  H   H22       1.0  0.3146237869354848  0.90549732323894  0.5597419455186383  1.0000
  H   H23       1.0  0.5908717533401953  0.6853768809851812  0.5597384915998589  1.0000
  H   H24       1.0  0.09450414934217119  0.40912914428130864  0.5597403770424165  1.0000
  H   H25       1.0  0.09158134058863249  0.43026842639996926  0.1962534159142351  1.0000
  H   H26       1.0  0.5697326096335046  0.6613149389887667  0.19625276775493455  1.0000
  H   H27       1.0  0.33868894250364423  0.908419821824971  0.1962555526928327  1.0000
  H   H28       1.0  0.43026904623628315  0.09158217105031942  0.3037480544651032  1.0000
  H   H29       1.0  0.6613139499437182  0.569733091808608  0.3037441312665976  1.0000
  H   H30       1.0  0.9084187467034467  0.3386871719917791  0.3037467997819617  1.0000
  H   H31       1.0  0.9084186389002511  0.5697319414103533  0.8037477568697043  1.0000
  H   H32       1.0  0.4302683619261813  0.33868569464847553  0.8037435389569083  1.0000
  H   H33       1.0  0.6613136500490597  0.09158170657310175  0.803746228346391  1.0000
  H   H34       1.0  0.5697329173741675  0.9084187284050385  0.6962537265749376  1.0000
  H   H35       1.0  0.3386863926725426  0.4302669128853935  0.6962527837049065  1.0000
  H   H36       1.0  0.09158186172768272  0.6613138247612653  0.6962543730011603  1.0000
  H   H37       1.0  0.9894605996397984  0.3133799131181191  0.1793194297577827  1.0000
  H   H38       1.0  0.686620878748954  0.6760831319033046  0.179317462165443  1.0000
  H   H39       1.0  0.32391963288633724  0.010539804819686074  0.1793197256985906  1.0000
  H   H40       1.0  0.31337971745081444  0.989461929291849  0.3206816337589586  1.0000
  H   H41       1.0  0.6760817983224215  0.6866218418267492  0.3206792657311013  1.0000
  H   H42       1.0  0.010538669262373873  0.323918566758401  0.3206807717330946  1.0000
  H   H43       1.0  0.010539379847905542  0.6866204546916848  0.8206823512850008  1.0000
  H   H44       1.0  0.3133788349250608  0.3239162438479751  0.8206794528068854  1.0000
  H   H45       1.0  0.6760829596698984  0.989461723579943  0.8206802305641148  1.0000
  H   H46       1.0  0.6866208909826736  0.010539067462232739  0.6793183225064823  1.0000
  H   H47       1.0  0.3239178180567705  0.31337888910766043  0.6793170409826672  1.0000
  H   H48       1.0  0.9894619391687555  0.6760824299946433  0.6793204010500276  1.0000
  H   H49       1.0  0.8470176968843147  0.658781012518247  0.9301373491433722  1.0000
  H   H50       1.0  0.34121867748706347  0.18823617490553343  0.93013922689682  1.0000
  H   H51       1.0  0.8117641704480294  0.15298246144082828  0.9301379524501172  1.0000
  H   H52       1.0  0.6587806368767416  0.8470157293721953  0.569861057072032  1.0000
  H   H53       1.0  0.18823556953164194  0.3412193757921074  0.5698610566183788  1.0000
  H   H54       1.0  0.1529819979419713  0.8117646123689966  0.569861765277679  1.0000
  H   H55       1.0  0.15297950101599864  0.34121584746007727  0.0698619988675802  1.0000
  H   H56       1.0  0.6587811334794225  0.8117618456615785  0.06985951285174247  1.0000
  H   H57       1.0  0.18823392222000712  0.8470160195439219  0.0698601790420668  1.0000
  H   H58       1.0  0.3412206977926431  0.15298454114095253  0.4301401157099889  1.0000
  H   H59       1.0  0.8117637810197137  0.6587803630775609  0.4301376831310151  1.0000
  H   H60       1.0  0.847018247371217  0.1882367475045115  0.4301387992471533  1.0000
  H   H61       1.0  0.02252188587623738  0.7577284539587054  0.9680220975684009  1.0000
  H   H62       1.0  0.24227107186132465  0.2647922628937209  0.9680253845916198  1.0000
  H   H63       1.0  0.7352072625760401  0.9774786842466199  0.9680247675910962  1.0000
  H   H64       1.0  0.7577292031278517  0.022521948971345164  0.5319748186695675  1.0000
  H   H65       1.0  0.264793557390604  0.24227220069047917  0.5319767528016969  1.0000
  H   H66       1.0  0.9774770262198375  0.7352070735214297  0.5319758027520578  1.0000
  H   H67       1.0  0.9774753120264348  0.24226840602064917  0.0319760339248703  1.0000
  H   H68       1.0  0.7577287391051613  0.735205757673384  0.0319733551569357  1.0000
  H   H69       1.0  0.26479370897657617  0.02252194938751018  0.0319751886737976  1.0000
  H   H70       1.0  0.24227167112639547  0.9774800398443656  0.4680263541132845  1.0000
  H   H71       1.0  0.7352067852221251  0.757727804001966  0.4680219869463258  1.0000
  H   H72       1.0  0.022522227033150006  0.2647940205298198  0.4680241535153016  1.0000
  H   H73       1.0  0.0867919264627303  0.5591963108105062  0.1362456606480507  1.0000
  H   H74       1.0  0.440804355371462  0.5275969738370065  0.1362445506385086  1.0000
  H   H75       1.0  0.47240272578568476  0.9132080004287958  0.136245764284773  1.0000
  H   H76       1.0  0.5591948470524102  0.08679294558132963  0.3637556483805112  1.0000
  H   H77       1.0  0.5275981717024435  0.4408061003254317  0.36375512279993666  1.0000
  H   H78       1.0  0.9132090041057808  0.47240386466926754  0.36375519164649717  1.0000
  H   H79       1.0  0.9132066978444797  0.4408041542964726  0.8637561203966513  1.0000
  H   H80       1.0  0.5591938345937635  0.47240015196563684  0.8637529725945541  1.0000
  H   H81       1.0  0.5275957299991204  0.08679011743497254  0.8637535837245451  1.0000
  H   H82       1.0  0.44080476931498674  0.9132077853479076  0.6362467409216562  1.0000
  H   H83       1.0  0.4724008157274255  0.559194001663151  0.6362448334676926  1.0000
  H   H84       1.0  0.08679160432652813  0.5275971320842956  0.6362453728777808  1.0000
  H   H85       1.0  0.8912090450376764  0.3865243668661903  0.1472740671999162  1.0000
  H   H86       1.0  0.613476188919513  0.5046861570250625  0.1472732543952091  1.0000
  H   H87       1.0  0.4953173215514893  0.10879366565415423  0.14727398626668986  1.0000
  H   H88       1.0  0.3865239948394003  0.891208726933925  0.35272702895080943  1.0000
  H   H89       1.0  0.5046846714095706  0.6134760894699482  0.3527256161303498  1.0000
  H   H90       1.0  0.10879152702601405  0.49531472928749315  0.3527261606763119  1.0000
  H   H91       1.0  0.10879103174838892  0.6134746457620324  0.8527264973249018  1.0000
  H   H92       1.0  0.386523524748604  0.4953132187236235  0.8527267018713119  1.0000
  H   H93       1.0  0.5046866261864266  0.8912077654488113  0.8527253617352598  1.0000
  H   H94       1.0  0.613477339832336  0.10879154358025982  0.6472729273135299  1.0000
  H   H95       1.0  0.49531630014540434  0.3865245441652192  0.6472731236168626  1.0000
  H   H96       1.0  0.8912084524628697  0.5046856385228365  0.6472750121076273  1.0000
  C   C1        1.0  0.9610260199707736  0.5503007106591437  0.07548727822275227  1.0000
  C   C2        1.0  0.4496985964400295  0.41072465652910484  0.0754879829540371  1.0000
  C   C3        1.0  0.5892753091317432  0.038974505747084644  0.0754889628767543  1.0000
  C   C4        1.0  0.5503012993637881  0.9610253861258186  0.4245129060458765  1.0000
  C   C5        1.0  0.41072586774207315  0.4497002733844155  0.4245130473507004  1.0000
  C   C6        1.0  0.038974495542063725  0.589275589721069  0.42451236920587115  1.0000
  C   C7        1.0  0.038973427874225294  0.4496976730268756  0.9245126780440387  1.0000
  C   C8        1.0  0.5503003197587332  0.5892717430315741  0.9245119733132866  1.0000
  C   C9        1.0  0.41072413871443547  0.9610238779394532  0.9245103851311994  1.0000
  C   C10       1.0  0.4496994063621713  0.03897425544408855  0.5754888749957984  1.0000
  C   C11       1.0  0.5892750065133611  0.5503017154318144  0.5754875171733147  1.0000
  C   C12       1.0  0.9610254839479991  0.41072477808977215  0.5754881953192238  1.0000
  C   C13       1.0  0.858993141572931  0.4938603144471613  0.0562323739052673  1.0000
  C   C14       1.0  0.506137795505019  0.36513088004639366  0.0562334649857021  1.0000
  C   C15       1.0  0.6348684714956933  0.14100809866233277  0.0562326513295375  1.0000
  C   C16       1.0  0.49386112343395866  0.8589933348444844  0.44376801634485463  1.0000
  C   C17       1.0  0.3651331408497425  0.5061398039729567  0.44376755122084427  1.0000
  C   C18       1.0  0.14100692327411216  0.6348684243715752  0.443767272353483  1.0000
  C   C19       1.0  0.14100541150787646  0.5061364482339884  0.9437669741037664  1.0000
  C   C20       1.0  0.4938604917491388  0.6348648905705332  0.9437677078001272  1.0000
  C   C21       1.0  0.3651312421736036  0.8589912770868722  0.9437666966781465  1.0000
  C   C22       1.0  0.5061408401788512  0.14100756461189679  0.5562325481775119  1.0000
  C   C23       1.0  0.6348671044622662  0.49386155590003955  0.5562336215628247  1.0000
  C   C24       1.0  0.8589933220402558  0.36513293550245146  0.556232683912505  1.0000
  C   C25       1.0  0.8207909643418461  0.5357898466224993  0.0020244043316424  1.0000
  C   C26       1.0  0.46420937921213584  0.2849992785808054  0.0020260957452933  1.0000
  C   C27       1.0  0.7150003723110743  0.17921057218097056  0.0020245147756341  1.0000
  C   C28       1.0  0.5357895176579534  0.8207892962296484  0.49797537281627063  1.0000
  C   C29       1.0  0.285000122157129  0.46421133096188066  0.4979750791154274  1.0000
  C   C30       1.0  0.1792095142142359  0.7150012580095079  0.4979752550976855  1.0000
  C   C31       1.0  0.17920884662228073  0.4642081739435752  0.9979755519346014  1.0000
  C   C32       1.0  0.53578827909859  0.7149958630928809  0.9979756853001901  1.0000
  C   C33       1.0  0.2849989782379223  0.8207891666876678  0.9979754414914409  1.0000
  C   C34       1.0  0.4642118170137905  0.17921097428453678  0.502024583448069  1.0000
  C   C35       1.0  0.7149997600381112  0.5357903920320908  0.5020248771511148  1.0000
  C   C36       1.0  0.820790731100132  0.2850001018645187  0.5020247011683026  1.0000
  C   C37       1.0  0.018138556755211237  0.6448969725392857  0.0428707353990561  1.0000
  C   C38       1.0  0.3551036724728077  0.37324181435479886  0.042871448260172  1.0000
  C   C39       1.0  0.6267584107390147  0.9818616472287115  0.0428717397856175  1.0000
  C   C40       1.0  0.6448967857320936  0.018138686950308687  0.4571287266932202  1.0000
  C   C41       1.0  0.3732429197903712  0.3551051441228452  0.4571297537178296  1.0000
  C   C42       1.0  0.981861145407322  0.6267582121543498  0.4571289262827065  1.0000
  C   C43       1.0  0.9818595359092869  0.3551015084439083  0.9571292208696532  1.0000
  C   C44       1.0  0.6448968647319331  0.6267554799724165  0.9571272914872819  1.0000
  C   C45       1.0  0.3732403108689084  0.018137462697723136  0.9571276082234306  1.0000
  C   C46       1.0  0.3551028306364896  0.9818620439794471  0.5428730543501104  1.0000
  C   C47       1.0  0.6267582202881813  0.6448978367560515  0.5428708108059155  1.0000
  C   C48       1.0  0.018138834082741084  0.37324215565649144  0.5428716382423957  1.0000
  C   C49       1.0  0.0129085881881678  0.38569110879880236  0.2047028454061177  1.0000
  C   C50       1.0  0.6143089088039204  0.627219224888165  0.20470080836327748  1.0000
  C   C51       1.0  0.3727843545424178  0.9870925661328798  0.2047036202233414  1.0000
  C   C52       1.0  0.3856923890434131  0.012909986192525494  0.2952981769125103  1.0000
  C   C53       1.0  0.6272169891995174  0.6143096047106622  0.2952966852963357  1.0000
  C   C54       1.0  0.9870904296500312  0.3727823338740918  0.2952973691605081  1.0000
  C   C55       1.0  0.9870904965353445  0.6143076380061315  0.7952983273789016  1.0000
  C   C56       1.0  0.38569070757409213  0.3727815060457261  0.7952961066093279  1.0000
  C   C57       1.0  0.627218866954891  0.012909591208945427  0.7952969442973838  1.0000
  C   C58       1.0  0.6143095745693967  0.9870909132638629  0.7047023876098493  1.0000
  C   C59       1.0  0.3727810061736959  0.385690231457218  0.7047008379372954  1.0000
  C   C60       1.0  0.012909549838852187  0.6272180339362307  0.7047038036234312  1.0000
  C   C61       1.0  0.8787183143818992  0.6287557120159731  0.9717276077641583  1.0000
  C   C62       1.0  0.3712432286838093  0.2499604152293314  0.9717294977772325  1.0000
  C   C63       1.0  0.7500375020127236  0.12128215754380273  0.9717283424071397  1.0000
  C   C64       1.0  0.6287561504668557  0.8787171622257474  0.5282714045314734  1.0000
  C   C65       1.0  0.24995985547320018  0.3712440417387695  0.5282724912604237  1.0000
  C   C66       1.0  0.12128144820068332  0.7500383539339949  0.5282714967563321  1.0000
  C   C67       1.0  0.12127960975431049  0.37124042172142424  0.0282729567633737  1.0000
  C   C68       1.0  0.6287555902177643  0.7500373395134474  0.0282710667492125  1.0000
  C   C69       1.0  0.24996085647489952  0.8787173155020653  0.0282716138613068  1.0000
  C   C70       1.0  0.37124545002682646  0.12128410035058577  0.4717291599914404  1.0000
  C   C71       1.0  0.7500381398941157  0.6287557944265173  0.4717280732674141  1.0000
  C   C72       1.0  0.8787187971136773  0.24996300594003165  0.4717284595096558  1.0000
  C   C73       1.0  0.9779856096012977  0.6846622579325369  0.9923176440722657  1.0000
  C   C74       1.0  0.3153367205684389  0.29332209131920445  0.9923197511688284  1.0000
  C   C75       1.0  0.7066775872326687  0.022014148787959948  0.9923191710053486  1.0000
  C   C76       1.0  0.6846637364318156  0.9779848881734452  0.5076805582699606  1.0000
  C   C77       1.0  0.2933222077635165  0.3153367478934824  0.5076822541734173  1.0000
  C   C78       1.0  0.02201334798361632  0.7066775139871594  0.5076808535442652  1.0000
  C   C79       1.0  0.022011951419315785  0.31533423892635426  0.0076810956792954  1.0000
  C   C80       1.0  0.6846644455773684  0.706675831950214  0.007679596836652501  1.0000
  C   C81       1.0  0.29332285267488334  0.9779845007213479  0.0076801770012409  1.0000
  C   C82       1.0  0.31533723511844153  0.022015745459647462  0.4923206145126144  1.0000
  C   C83       1.0  0.7066771427831141  0.6846629909741181  0.49231891861133903  1.0000
  C   C84       1.0  0.9779862683884984  0.2933232169441525  0.49231910272253987  1.0000
  C   C85       1.0  0.00875066588296379  0.5138844079729663  0.125087257185875  1.0000
  C   C86       1.0  0.4861154755769589  0.49486716200075154  0.1250871914093494  1.0000
  C   C87       1.0  0.5051355441116883  0.991250904180184  0.12508721819727237  1.0000
  C   C88       1.0  0.5138842777497317  0.008751473114266122  0.3749129956561035  1.0000
  C   C89       1.0  0.4948677832683401  0.4861166534123242  0.37491246567680037  1.0000
  C   C90       1.0  0.9912490021939885  0.5051331345562812  0.3749129854938786  1.0000
  C   C91       1.0  0.9912480557226074  0.4861147019524309  0.8749133073408544  1.0000
  C   C92       1.0  0.5138833433281533  0.5051305927435835  0.8749115483405774  1.0000
  C   C93       1.0  0.4948655247392892  0.00874837427237193  0.8749115215496558  1.0000
  C   C94       1.0  0.4861157017391519  0.9912488946960565  0.6250881771278358  1.0000
  C   C95       1.0  0.5051324620472002  0.5138847064622214  0.6250868823303505  1.0000
  C   C96       1.0  0.008750977294901848  0.4948672332540411  0.6250881872900605  1.0000
  N   N1        1.0  0.964941756910939  0.42760252076013927  0.15876032778544405  1.0000
  N   N2        1.0  0.572397381744075  0.5373409598670023  0.1587590674324062  1.0000
  N   N3        1.0  0.46266010804961877  0.035058890059325144  0.1587616007454002  1.0000
  N   N4        1.0  0.4276024402526486  0.9649425430728084  0.3412406191351636  1.0000
  N   N5        1.0  0.5373396919510539  0.572398219884988  0.3412385975246933  1.0000
  N   N6        1.0  0.0350586595131616  0.4626607961863414  0.34124050925886  1.0000
  N   N7        1.0  0.03505795675481938  0.5723968549875165  0.8412408449987581  1.0000
  N   N8        1.0  0.4276017029853349  0.46265778694051807  0.8412390640584206  1.0000
  N   N9        1.0  0.5373405976775202  0.9649407515111079  0.8412395720374376  1.0000
  N   N10       1.0  0.5723985312987878  0.035058090560802585  0.6587599453885673  1.0000
  N   N11       1.0  0.4626592954835331  0.42760188210566946  0.6587589257075733  1.0000
  N   N12       1.0  0.9649415857988473  0.5373405636866548  0.6587606635248164  1.0000
  N   N13       1.0  0.2793837771429039  0.48884765281573545  0.23917311817796613  1.0000
  N   N14       1.0  0.5111525035672456  0.7905366995368933  0.23917221621360338  1.0000
  N   N15       1.0  0.20946457290444426  0.7206154832689434  0.2391720250940281  1.0000
  N   N16       1.0  0.48884781667079835  0.27938433726465917  0.2608280319579777  1.0000
  N   N17       1.0  0.7905358571495639  0.5111539118706503  0.2608288488005073  1.0000
  N   N18       1.0  0.7206156082801839  0.20946448989007385  0.26082769815527485  1.0000
  N   N19       1.0  0.7206144128164238  0.5111494729843212  0.7608274463493031  1.0000
  N   N20       1.0  0.48884783904312445  0.2094633051545215  0.7608277400521004  1.0000
  N   N21       1.0  0.7905357697071054  0.2793845214229832  0.7608273229128386  1.0000
  N   N22       1.0  0.5111548731814467  0.7206158359523583  0.7391719243044435  1.0000
  N   N23       1.0  0.20946458275681576  0.48884473763814645  0.7391711074649123  1.0000
  N   N24       1.0  0.27938546056843444  0.7905347885614444  0.7391722581093347  1.0000
  O   O1        1.0  0.23015860282256276  0.48814473849447637  0.30130682796418984  1.0000
  O   O2        1.0  0.5118570762978151  0.7420146586606576  0.30130524229528527  1.0000
  O   O3        1.0  0.2579862395878365  0.7698438849560674  0.30130499441166586  1.0000
  O   O4        1.0  0.48814467651649096  0.2301596257316944  0.1986949953269104  1.0000
  O   O5        1.0  0.7420147894869727  0.5118579693064689  0.19869466835231006  1.0000
  O   O6        1.0  0.7698437825414358  0.2579867290393523  0.19869521004245877  1.0000
  O   O7        1.0  0.7698411108431952  0.5118546372531793  0.6986943448200121  1.0000
  O   O8        1.0  0.4881437267300441  0.2579836277292245  0.698693497451913  1.0000
  O   O9        1.0  0.7420147319635999  0.2301567486775437  0.6986955701120648  1.0000
  O   O10       1.0  0.5118560292106479  0.7698400158387313  0.8013061774559276  1.0000
  O   O11       1.0  0.25798935284884544  0.4881407514338603  0.8013016383548645  1.0000
  O   O12       1.0  0.23015764942395828  0.7420121862911769  0.8013059627392848  1.0000
  O   O13       1.0  0.804516960977267  0.40730105111111914  0.0874683574925896  1.0000
  O   O14       1.0  0.5926987544033082  0.39721599842877703  0.08746926283830447  1.0000
  O   O15       1.0  0.6027844063149387  0.19548378486857834  0.0874686186140181  1.0000
  O   O16       1.0  0.4072996893825617  0.8045170559842915  0.412532824335635  1.0000
  O   O17       1.0  0.39721611329377277  0.5926994325664552  0.4125309908974941  1.0000
  O   O18       1.0  0.19548358240105296  0.6027846227450198  0.4125318842221404  1.0000
  O   O19       1.0  0.19548258416609346  0.5926959773933264  0.9125303822562358  1.0000
  O   O20       1.0  0.40730079073770037  0.6027810300746309  0.9125306934282094  1.0000
  O   O21       1.0  0.3972144125878143  0.8045139698747262  0.9125313376535898  1.0000
  O   O22       1.0  0.5927010163457566  0.19548258558665313  0.5874677401883588  1.0000
  O   O23       1.0  0.6027835030771627  0.407301298364338  0.5874695736281551  1.0000
  O   O24       1.0  0.8045170260324424  0.3972163740090619  0.5874680720433004  1.0000
  O   O25       1.0  0.2543156011855671  0.415827280415371  0.19694720861314605  1.0000
  O   O26       1.0  0.5841704863475529  0.8384870878573806  0.1969431403327064  1.0000
  O   O27       1.0  0.1615116011117264  0.7456814383906972  0.196943117033797  1.0000
  O   O28       1.0  0.4158281438689001  0.2543153345226372  0.303055893792596  1.0000
  O   O29       1.0  0.838487368319903  0.5841731086465954  0.3030565509290071  1.0000
  O   O30       1.0  0.7456810085781527  0.16151167226710328  0.30305602770573603  1.0000
  O   O31       1.0  0.7456816940048584  0.5841682243777482  0.8030551806917285  1.0000
  O   O32       1.0  0.41582777484524763  0.1615137403716105  0.80305620767718  1.0000
  O   O33       1.0  0.8384883783806955  0.2543189294211741  0.803056230973624  1.0000
  O   O34       1.0  0.5841780538078111  0.7456876202854444  0.6969471037593917  1.0000
  O   O35       1.0  0.1615117164047888  0.41582563815885015  0.6969440135971751  1.0000
  O   O36       1.0  0.25431897091073113  0.8384886955432196  0.6969451450782032  1.0000
  O   O37       1.0  0.3563943617467656  0.570486601525914  0.22327982333368368  1.0000
  O   O38       1.0  0.42951469139756426  0.7859114077136127  0.2232833932011573  1.0000
  O   O39       1.0  0.21409269034543138  0.6436048431419578  0.2232830728348461  1.0000
  O   O40       1.0  0.5704862929290044  0.356395295192847  0.2767205123333198  1.0000
  O   O41       1.0  0.7859078533880464  0.4295147752452094  0.2767202169757681  1.0000
  O   O42       1.0  0.6436046802538443  0.21409299113329883  0.2767173527556963  1.0000
  O   O43       1.0  0.6436033678056815  0.429512242580337  0.776716483382536  1.0000
  O   O44       1.0  0.5704855539108991  0.21408995215782775  0.7767196043590372  1.0000
  O   O45       1.0  0.7859066602035656  0.35639489572668037  0.7767168834322291  1.0000
  O   O46       1.0  0.42951864687264424  0.6436064017339334  0.7232776191495773  1.0000
  O   O47       1.0  0.21408961032949486  0.5704830767931951  0.723282172329121  1.0000
  O   O48       1.0  0.35639629129995115  0.7859076425013566  0.7232819952503533  1.0000
