data_image0
_chemical_formula_structural       Cu3H18C8S2N12O6
_chemical_formula_sum              "Cu3 H18 C8 S2 N12 O6"
_cell_length_a       8.355961891807365
_cell_length_b       8.551523494721192
_cell_length_c       9.429258170607334
_cell_angle_alpha    90.3607099446987
_cell_angle_beta     112.24577636298282
_cell_angle_gamma    115.86390625907202

_space_group_name_H-M_alt    "P 1"
_space_group_IT_number       1

loop_
  _space_group_symop_operation_xyz
  'x, y, z'

loop_
  _atom_site_type_symbol
  _atom_site_label
  _atom_site_symmetry_multiplicity
  _atom_site_fract_x
  _atom_site_fract_y
  _atom_site_fract_z
  _atom_site_occupancy
  Cu  Cu1       1.0  0.18201325393212645  0.18704155598641137  0.06181933049560232  1.0000
  Cu  Cu2       1.0  0.8181382808126898  0.8131688381942226  0.9384439854087746  1.0000
  Cu  Cu3       1.0  0.5000586085949336  0.5001909009440765  0.9997961001079788  1.0000
  H   H1        1.0  0.9115744126916924  0.19507860795795295  0.20998464557573024  1.0000
  H   H2        1.0  0.08776591331818646  0.8037760341388847  0.7894851706349189  1.0000
  H   H3        1.0  0.8253794612511526  0.19809602635306328  0.3570821991127033  1.0000
  H   H4        1.0  0.17434817470538616  0.801704835352261  0.6424721779493437  1.0000
  H   H5        1.0  0.6687467770033422  0.1724142200607801  0.15239256570799856  1.0000
  H   H6        1.0  0.3306698371699283  0.8266013805308815  0.8470532925552305  1.0000
  H   H7        1.0  0.38699457953835986  0.9136909559771309  0.1587906599204985  1.0000
  H   H8        1.0  0.6125490746026616  0.08573733528373138  0.8414125737637976  1.0000
  H   H9        1.0  0.5173791418144801  0.9177329223106125  0.36328990538898864  1.0000
  H   H10       1.0  0.48243245619812575  0.08253758076445189  0.6371029638101504  1.0000
  H   H11       1.0  0.38579826998751077  0.7135115826534244  0.22022271665236556  1.0000
  H   H12       1.0  0.6139295076857039  0.2862879636360063  0.7807464838863822  1.0000
  H   H13       1.0  0.2980166615618387  0.42206085399047305  0.45756671834921303  1.0000
  H   H14       1.0  0.7031853891974009  0.5794160619720756  0.5419611549376526  1.0000
  H   H15       1.0  0.3308099006562982  0.6425621363363373  0.4582992645736965  1.0000
  H   H16       1.0  0.6700194259494837  0.3587971301255449  0.5418199996943188  1.0000
  H   H17       1.0  0.14218883357623466  0.48044444034743344  0.5043302691352238  1.0000
  H   H18       1.0  0.8584574431804768  0.5202184768059865  0.4951009922265684  1.0000
  C   C1        1.0  0.7819255786176386  0.1438153839736812  0.23490521690328597  1.0000
  C   C2        1.0  0.2175413538325514  0.8553788712257243  0.7647295993437454  1.0000
  C   C3        1.0  0.4707000585800998  0.8584633794595787  0.24184575492225244  1.0000
  C   C4        1.0  0.5289637077296875  0.1412918871629074  0.7586665479295861  1.0000
  C   C5        1.0  0.2924550143072792  0.5300921261340646  0.5160412286846281  1.0000
  C   C6        1.0  0.7083705599054113  0.47095867491810145  0.48373447443009354  1.0000
  C   C7        1.0  0.4328186469660693  0.5805202201516763  0.6865152822779806  1.0000
  C   C8        1.0  0.5676457477787836  0.4200322498966642  0.31329137324373596  1.0000
  S   S1        1.0  0.6870644783218437  0.9080449414347951  0.21373222634976935  1.0000
  S   S2        1.0  0.31243554705783083  0.09124954960088161  0.7866462461461126  1.0000
  N   N1        1.0  0.9296956821653384  0.04798782990514639  0.8720682651663767  1.0000
  N   N2        1.0  0.06986191084597936  0.9525483519221395  0.12856101787763652  1.0000
  N   N3        1.0  0.8785144924785727  0.0692193831583126  0.7379958273623758  1.0000
  N   N4        1.0  0.12152135964360151  0.9308879061536074  0.2624618495533753  1.0000
  N   N5        1.0  0.8245345359600976  0.0878207496710814  0.609725960544104  1.0000
  N   N6        1.0  0.17580618293979455  0.911920342539844  0.39061914320001995  1.0000
  N   N7        1.0  0.24428232504537556  0.42722890264264624  0.014569306225006096  1.0000
  N   N8        1.0  0.7558705805664019  0.5727647194145575  0.9850929054080596  1.0000
  N   N9        1.0  0.11724834583309726  0.45173434393830547  0.9160423455336544  1.0000
  N   N10       1.0  0.8826774503060834  0.5480492108457111  0.08369396873752068  1.0000
  N   N11       1.0  0.9977389658909886  0.4801247419399316  0.8270672949697657  1.0000
  N   N12       1.0  0.0019118528455379542  0.5193719958401459  0.172674390253249  1.0000
  O   O1        1.0  0.6032113937786219  0.7130472228177139  0.7269743063210116  1.0000
  O   O2        1.0  0.39729562742328983  0.2876032634551606  0.273193196887796  1.0000
  O   O3        1.0  0.3685948391761187  0.485389873275217  0.7755468688981823  1.0000
  O   O4        1.0  0.6316417440460071  0.5147426309669214  0.22397074530324096  1.0000
  O   O5        1.0  0.6098938317620152  0.8355650530012964  0.03815731623299704  1.0000
  O   O6        1.0  0.3893293909396578  0.163077644118431  0.9622969018940071  1.0000
