data_image0
_chemical_formula_structural       ZnSiH8C24N12O16F6
_chemical_formula_sum              "Zn1 Si1 H8 C24 N12 O16 F6"
_cell_length_a       7.432623419626748
_cell_length_b       14.05556073269949
_cell_length_c       14.02798159924368
_cell_angle_alpha    90.00264365623798
_cell_angle_beta     90.0123840595984
_cell_angle_gamma    89.97836023569299

_space_group_name_H-M_alt    "P 1"
_space_group_IT_number       1

loop_
  _space_group_symop_operation_xyz
  'x, y, z'

loop_
  _atom_site_type_symbol
  _atom_site_label
  _atom_site_symmetry_multiplicity
  _atom_site_fract_x
  _atom_site_fract_y
  _atom_site_fract_z
  _atom_site_occupancy
  Zn  Zn1       1.0  0.5000151460905541  0.49991780148550924  0.4999697937401849  1.0000
  Si  Si1       1.0  2.204686787619997e-05  0.5000492026716474  0.49998084063621223  1.0000
  H   H1        1.0  0.2594699072834317  0.6628337751681316  0.5779045905674637  1.0000
  H   H2        1.0  0.7401058228220165  0.6628166983587466  0.42196194060063164  1.0000
  H   H3        1.0  0.2597045811627581  0.33704735267149744  0.42209989878085014  1.0000
  H   H4        1.0  0.7408246287885518  0.33701179087535144  0.5777666119690181  1.0000
  H   H5        1.0  0.2624697163463239  0.41998703971468404  0.6621286657034562  1.0000
  H   H6        1.0  0.7377983525352007  0.5798951388612184  0.6621320083751459  1.0000
  H   H7        1.0  0.26225457291967297  0.5800294181576364  0.33783266277315255  1.0000
  H   H8        1.0  0.7374787261722204  0.41983574265482576  0.33783074668580343  1.0000
  C   C1        1.0  0.36895406876503495  0.7029114699872283  0.5447174696990658  1.0000
  C   C2        1.0  0.3679281820290612  0.8015864763511761  0.5480216607496687  1.0000
  C   C3        1.0  0.49986848917657056  0.8567566662162138  0.5000878054390938  1.0000
  C   C4        1.0  0.6317631311911283  0.801581916723265  0.4520501733196484  1.0000
  C   C5        1.0  0.6306537984456851  0.7029065625793509  0.4552115076128303  1.0000
  C   C6        1.0  0.49980223915414274  0.9563734769145501  0.5001314477482809  1.0000
  C   C7        1.0  0.5001608502015316  0.04347352443652142  0.5001652794418376  1.0000
  C   C8        1.0  0.500106692960351  0.14309033209615052  0.5001297948857228  1.0000
  C   C9        1.0  0.36811459514927236  0.19826999422873118  0.4521279450652074  1.0000
  C   C10       1.0  0.36924807649031516  0.29695047176634415  0.4552882630445936  1.0000
  C   C11       1.0  0.6312100090822667  0.29693685112344087  0.5446562328153493  1.0000
  C   C12       1.0  0.6321874586101046  0.1982612911446112  0.5479944771342958  1.0000
  C   C13       1.0  0.3706967411291585  0.45408813627307165  0.702418049242475  1.0000
  C   C14       1.0  0.3694678531806587  0.4512325935274789  0.8013024167451874  1.0000
  C   C15       1.0  0.5000643016391989  0.5000533572650455  0.8564180880571969  1.0000
  C   C16       1.0  0.6306600053339009  0.5488217800231966  0.8012990819208738  1.0000
  C   C17       1.0  0.6295606984229138  0.5458343180444842  0.7024208607873065  1.0000
  C   C18       1.0  0.5001127661971907  0.5000883829459185  0.9564310549341074  1.0000
  C   C19       1.0  0.5000088877954454  0.5001157486988391  0.0435277935774394  1.0000
  C   C20       1.0  0.5000062503507933  0.5000831906108374  0.14354075594248883  1.0000
  C   C21       1.0  0.369463382204394  0.5489593921510689  0.19865132687870365  1.0000
  C   C22       1.0  0.3705042798117971  0.5459286013730492  0.29753510856197357  1.0000
  C   C23       1.0  0.6292624858733261  0.45398734826689957  0.2975372368706601  1.0000
  C   C24       1.0  0.630488016849398  0.45113340726436507  0.19865630164394335  1.0000
  N   N1        1.0  0.49980165805288823  0.6542823531297942  0.4999391284391877  1.0000
  N   N2        1.0  0.5002474523890044  0.3455696102327509  0.49994200590921173  1.0000
  N   N3        1.0  0.5001633177072264  0.4999156391839892  0.6538693492132596  1.0000
  N   N4        1.0  0.4998346895808368  0.49991142973435404  0.34608092911948773  1.0000
  N   N5        1.0  0.7780153108258006  0.8469664697832403  0.3967787281636178  1.0000
  N   N6        1.0  0.2217716211157779  0.8470463886959295  0.603333703561866  1.0000
  N   N7        1.0  0.7784538264067745  0.15281245179932773  0.603255726059743  1.0000
  N   N8        1.0  0.22166248440570507  0.15289501262650876  0.3969558344452153  1.0000
  N   N9        1.0  0.7752011192862012  0.6052265277581275  0.8467186864235856  1.0000
  N   N10       1.0  0.2247715006566366  0.3949587279570821  0.8467162593255895  1.0000
  N   N11       1.0  0.7750736329321839  0.3947187862061058  0.1532548207150981  1.0000
  N   N12       1.0  0.22505982572203453  0.605492851711013  0.15322507092709262  1.0000
  O   O1        1.0  0.8027766576989206  0.9330604395459051  0.4091602634220522  1.0000
  O   O2        1.0  0.864546681511456  0.7950275979150518  0.342367712710562  1.0000
  O   O3        1.0  0.19886118237443637  0.9334427105186694  0.5920112922674079  1.0000
  O   O4        1.0  0.133515777171155  0.7949361982636065  0.6567363700991038  1.0000
  O   O5        1.0  0.8007314870847394  0.06632390252476483  0.5923254317746683  1.0000
  O   O6        1.0  0.8674509485255725  0.205023199778033  0.6562504504467483  1.0000
  O   O7        1.0  0.19728821818278414  0.06674322904038381  0.4091081420995764  1.0000
  O   O8        1.0  0.13455617948095266  0.204899032002274  0.34284585968584486  1.0000
  O   O9        1.0  0.814254197003123  0.585649347370726  0.9300432400583036  1.0000
  O   O10       1.0  0.8458465724085186  0.6675758047134083  0.7970278189926745  1.0000
  O   O11       1.0  0.18522859751465148  0.41487987077515964  0.929880356397824  1.0000
  O   O12       1.0  0.1544625984312802  0.33237021435952846  0.7971505228508492  1.0000
  O   O13       1.0  0.8146185837152939  0.41455699652821215  0.070077384605483  1.0000
  O   O14       1.0  0.8452937289064053  0.33210205675173654  0.20284546258666586  1.0000
  O   O15       1.0  0.18632459838969598  0.5861316717803152  0.06981052892672322  1.0000
  O   O16       1.0  0.15418185941776838  0.6677433982248717  0.2029965038425914  1.0000
  F   F1        1.0  0.2328580325476679  0.49948365777457593  0.5004255555349602  1.0000
  F   F2        1.0  0.7671869848883829  0.5005653825234833  0.4995204534726201  1.0000
  F   F3        1.0  0.0013332330771546998  0.5857135503285849  0.4143255246064541  1.0000
  F   F4        1.0  0.9990400466443673  0.4144258139958552  0.5856789600416051  1.0000
  F   F5        1.0  0.999958910266443  0.5854847173556977  0.5858683067862459  1.0000
  F   F6        1.0  0.999812536892854  0.4146081875982477  0.41408554066702413  1.0000
