data_image0
_chemical_formula_structural       Cd4H24C24N32O8
_chemical_formula_sum              "Cd4 H24 C24 N32 O8"
_cell_length_a       7.796748947004255
_cell_length_b       7.684145605917352
_cell_length_c       18.170809164507066
_cell_angle_alpha    98.13385301913951
_cell_angle_beta     89.999950883755
_cell_angle_gamma    89.99989419121185

_space_group_name_H-M_alt    "P 1"
_space_group_IT_number       1

loop_
  _space_group_symop_operation_xyz
  'x, y, z'

loop_
  _atom_site_type_symbol
  _atom_site_label
  _atom_site_symmetry_multiplicity
  _atom_site_fract_x
  _atom_site_fract_y
  _atom_site_fract_z
  _atom_site_occupancy
  Cd  Cd1       1.0  0.823032390414184  0.9804625630031653  0.7584325228142885  1.0000
  Cd  Cd2       1.0  0.3230351821510097  0.019526798357596013  0.7415662692561538  1.0000
  Cd  Cd3       1.0  0.17696581319552956  0.019538524483394305  0.24156694604182857  1.0000
  Cd  Cd4       1.0  0.6769668692253815  0.9804664206546649  0.2584316043646736  1.0000
  H   H1        1.0  0.20444584712436858  0.4131943278662362  0.5229432618495692  1.0000
  H   H2        1.0  0.7044459470887148  0.5868070382266524  0.9770596307746755  1.0000
  H   H3        1.0  0.7955523564850963  0.586805416613089  0.4770577736401193  1.0000
  H   H4        1.0  0.2955535391071464  0.41319271573006944  0.022940854962911296  1.0000
  H   H5        1.0  0.21562331828755532  0.5524254441064259  0.6578072771881692  1.0000
  H   H6        1.0  0.7156265127452527  0.4475746330832067  0.8421927785456729  1.0000
  H   H7        1.0  0.7843723201472201  0.44757826304660153  0.3421929066639534  1.0000
  H   H8        1.0  0.2843729734484625  0.5524277594947763  0.15780732268370903  1.0000
  H   H9        1.0  0.9842564925804919  0.47795323057592043  0.74500536937834  1.0000
  H   H10       1.0  0.4842582970228475  0.5220449625922187  0.7549972200951343  1.0000
  H   H11       1.0  0.015737863270039995  0.5220478284784491  0.25499574873408887  1.0000
  H   H12       1.0  0.5157386239980823  0.4779574110309639  0.24500398063845802  1.0000
  H   H13       1.0  0.7438862767265846  0.14274998119650928  0.5775220805180508  1.0000
  H   H14       1.0  0.24388326566424468  0.8572460594447762  0.9224799124294872  1.0000
  H   H15       1.0  0.25611577464210455  0.8572471151791704  0.4224798892306864  1.0000
  H   H16       1.0  0.7561175031150922  0.14275499012472181  0.07752175543315327  1.0000
  H   H17       1.0  0.053316873168007796  0.7434760402895649  0.8130886042239422  1.0000
  H   H18       1.0  0.5533181707043509  0.2565217421408761  0.6869102667571382  1.0000
  H   H19       1.0  0.9466826130259917  0.2565250187598239  0.18691251388722205  1.0000
  H   H20       1.0  0.44668131548453965  0.7434859182009891  0.3130896152076302  1.0000
  H   H21       1.0  0.8945610356869691  0.7485290316534192  0.868860700798592  1.0000
  H   H22       1.0  0.39455975142555383  0.25147197445200226  0.631141548374522  1.0000
  H   H23       1.0  0.105439733090499  0.2514733230087388  0.13114159943763323  1.0000
  H   H24       1.0  0.6054410173492073  0.7485356858886121  0.36885833358992665  1.0000
  C   C1        1.0  0.9554565763879451  0.19195745358543093  0.46204239243569123  1.0000
  C   C2        1.0  0.4554556919577379  0.8080390439539471  0.03795662448786169  1.0000
  C   C3        1.0  0.0445429098116534  0.8080396901859644  0.5379568285547263  1.0000
  C   C4        1.0  0.5445463594095726  0.19196204352888205  0.9620428443673102  1.0000
  C   C5        1.0  0.9714412929436307  0.2709606991468548  0.5395089353467312  1.0000
  C   C6        1.0  0.47144230072086657  0.7290349656134938  0.9604890971850961  1.0000
  C   C7        1.0  0.028559475843444197  0.7290337965233817  0.46049121990336767  1.0000
  C   C8        1.0  0.52855975065151  0.270962197112688  0.03950902430110399  1.0000
  C   C9        1.0  0.10786070653491459  0.3848254027587785  0.5630202550343382  1.0000
  C   C10       1.0  0.607865960752072  0.615172235753441  0.9369807880705919  1.0000
  C   C11       1.0  0.8921349319020064  0.6151756657729875  0.4369803133259892  1.0000
  C   C12       1.0  0.39213865578964396  0.3848262225842732  0.0630185155403566  1.0000
  C   C13       1.0  0.11398490847580689  0.4615345170278006  0.6370729972218924  1.0000
  C   C14       1.0  0.613990453828613  0.5384657387250585  0.8629282081081937  1.0000
  C   C15       1.0  0.8860107299624573  0.5384652369326589  0.3629274885166395  1.0000
  C   C16       1.0  0.3860115975389817  0.46153401522916243  0.13707227762876065  1.0000
  C   C17       1.0  0.9900898036337294  0.42177774323997147  0.6867431852173809  1.0000
  C   C18       1.0  0.4900939521782916  0.5782204385895043  0.8132594013805344  1.0000
  C   C19       1.0  0.009901987044265998  0.5782246398668395  0.31325746576568747  1.0000
  C   C20       1.0  0.5099068166015711  0.42178062045863385  0.1867417167303245  1.0000
  C   C21       1.0  0.849539187066533  0.23392861226411554  0.591034070041708  1.0000
  C   C22       1.0  0.34953637674784227  0.7660659463957133  0.908965589205003  1.0000
  C   C23       1.0  0.15046029913119696  0.7660698365999394  0.40896578332229433  1.0000
  C   C24       1.0  0.6504618268605356  0.23393645566216045  0.09103396227290968  1.0000
  N   N1        1.0  0.0183212933618648  0.1097145495240426  0.34949908368700716  1.0000
  N   N2        1.0  0.5183188846067068  0.8902867412539238  0.15050039654768446  1.0000
  N   N3        1.0  0.9816794754198667  0.890285204431429  0.6505014020502597  1.0000
  N   N4        1.0  0.48168060159049725  0.10971169813149122  0.8495000065681138  1.0000
  N   N5        1.0  0.0863174499510038  0.18403493435193502  0.41310302763194773  1.0000
  N   N6        1.0  0.586315307386016  0.8159675388542098  0.08689650171205439  1.0000
  N   N7        1.0  0.9136820362462004  0.815963505033473  0.5868973754838436  1.0000
  N   N8        1.0  0.4136828962210188  0.18403617777497772  0.9131031323876466  1.0000
  N   N9        1.0  0.8091456902967307  0.12370015225723562  0.429948839716637  1.0000
  N   N10       1.0  0.30914333013802764  0.8762979347149626  0.070050881691273  1.0000
  N   N11       1.0  0.19085379589994028  0.8762982776495324  0.5700521131509431  1.0000
  N   N12       1.0  0.6908587212327717  0.1236991995752845  0.9299488890503083  1.0000
  N   N13       1.0  0.8528152905077562  0.07357672044786771  0.35948442918544987  1.0000
  N   N14       1.0  0.35281141446952796  0.926422596230161  0.14051535332173865  1.0000
  N   N15       1.0  0.14718547827315825  0.9264243575575577  0.6405155894218166  1.0000
  N   N16       1.0  0.647188071729822  0.0735732045339859  0.8594854343022573  1.0000
  N   N17       1.0  0.8623956872750325  0.30727500744336583  0.6631985526383628  1.0000
  N   N18       1.0  0.3624008534922466  0.692720802880281  0.8368033818989173  1.0000
  N   N19       1.0  0.13760123375043778  0.6927234319445431  0.33680185047806077  1.0000
  N   N20       1.0  0.6376011978721436  0.3072815707379206  0.16319781883341014  1.0000
  N   N21       1.0  0.5733130893285006  0.8662535895985428  0.6991569011599024  1.0000
  N   N22       1.0  0.0733104166813874  0.13373626654750134  0.8008414642361142  1.0000
  N   N23       1.0  0.426688962043876  0.1337435731276386  0.3008412203263048  1.0000
  N   N24       1.0  0.9266903521040671  0.8662608772226363  0.19915775675399056  1.0000
  N   N25       1.0  0.5640773604169382  0.7296312803962196  0.656847543303698  1.0000
  N   N26       1.0  0.06407434395566008  0.2703546594634788  0.8431500290271287  1.0000
  N   N27       1.0  0.4359246909591689  0.2703632721446355  0.3431493134353403  1.0000
  N   N28       1.0  0.9359277074202053  0.7296385500701349  0.15684839434548786  1.0000
  N   N29       1.0  0.5534987572023056  0.5978618757449399  0.616856365654854  1.0000
  N   N30       1.0  0.05349541071548461  0.4021319436653244  0.8831433568759264  1.0000
  N   N31       1.0  0.4465032941682026  0.4021365920739087  0.3831423882049306  1.0000
  N   N32       1.0  0.9465053580731748  0.5978625804408466  0.11685514911879837  1.0000
  O   O1        1.0  0.7503143497671941  0.2634316549446538  0.7127958953381108  1.0000
  O   O2        1.0  0.2503143985221  0.736557790866229  0.787206231083374  1.0000
  O   O3        1.0  0.24968385384547523  0.7365654698706904  0.2872044251562044  1.0000
  O   O4        1.0  0.749685087676724  0.26343800041927773  0.21279510629241113  1.0000
  O   O5        1.0  0.9237899383497207  0.7459320044994231  0.8166846755241293  1.0000
  O   O6        1.0  0.42379111253332974  0.2540702688504766  0.6833170921126948  1.0000
  O   O7        1.0  0.07621083042158719  0.2540769324979237  0.18331748806927098  1.0000
  O   O8        1.0  0.5762083736729479  0.745920302064363  0.31668171576875886  1.0000
