data_image0
_chemical_formula_structural       Ho4H60C44O24
_chemical_formula_sum              "Ho4 H60 C44 O24"
_cell_length_a       8.145653570065287
_cell_length_b       10.687430169088437
_cell_length_c       14.759410683183395
_cell_angle_alpha    90.00040393373641
_cell_angle_beta     90.00040106833079
_cell_angle_gamma    90.0002302930316

_space_group_name_H-M_alt    "P 1"
_space_group_IT_number       1

loop_
  _space_group_symop_operation_xyz
  'x, y, z'

loop_
  _atom_site_type_symbol
  _atom_site_label
  _atom_site_symmetry_multiplicity
  _atom_site_fract_x
  _atom_site_fract_y
  _atom_site_fract_z
  _atom_site_occupancy
  Ho  Ho1       1.0  0.4213584849562935  0.19978635742616285  0.49813435057083677  1.0000
  Ho  Ho2       1.0  0.07863571570956651  0.8002141851611029  0.9981375731647688  1.0000
  Ho  Ho3       1.0  0.5786380754633101  0.6997902526369585  0.0018708563958043  1.0000
  Ho  Ho4       1.0  0.9213628543165415  0.30021632660610453  0.5018599695807069  1.0000
  H   H1        1.0  0.2730970762239764  0.8267292058268012  0.6962296182692853  1.0000
  H   H2        1.0  0.22689818002496054  0.17327026745629578  0.1962241591039202  1.0000
  H   H3        1.0  0.7269090011937537  0.32672714951682746  0.8037728025169386  1.0000
  H   H4        1.0  0.773108060059947  0.6732702065948074  0.3037768473625064  1.0000
  H   H5        1.0  0.5920241100023703  0.7017690450457933  0.7317435244142416  1.0000
  H   H6        1.0  0.9079699337460312  0.29822293098681735  0.23173329989475627  1.0000
  H   H7        1.0  0.4079813006099471  0.2017694200168947  0.7682521609284692  1.0000
  H   H8        1.0  0.0920283795616754  0.7982373046531777  0.2682669891313765  1.0000
  H   H9        1.0  0.5358846720740829  0.8035956249472492  0.6427929705289728  1.0000
  H   H10       1.0  0.9641180570835529  0.19639922741622226  0.1427831193916305  1.0000
  H   H11       1.0  0.46411882657005077  0.3035970362606334  0.8572018793435275  1.0000
  H   H12       1.0  0.0358919893747753  0.6964077477654769  0.35721665005829817  1.0000
  H   H13       1.0  0.55262136388599  0.6173886171197508  0.5531873239044103  1.0000
  H   H14       1.0  0.9473789934809034  0.382605362471672  0.0531797137776309  1.0000
  H   H15       1.0  0.4473848241679336  0.11739646463662011  0.9468106410195531  1.0000
  H   H16       1.0  0.052618542424959  0.8826166775955003  0.4468210058240345  1.0000
  H   H17       1.0  0.5232710856741889  0.520075648718084  0.6477226366151996  1.0000
  H   H18       1.0  0.9767255681935437  0.47991831598091755  0.1477142806053777  1.0000
  H   H19       1.0  0.47672721724197237  0.0200770502218219  0.8522782193798264  1.0000
  H   H20       1.0  0.0232663487124256  0.9799267501124973  0.35228693554458346  1.0000
  H   H21       1.0  0.3121515674354072  0.6743519097253239  0.4590836571396721  1.0000
  H   H22       1.0  0.1878531833854709  0.3256482524758296  0.9590787794032352  1.0000
  H   H23       1.0  0.6878534507408461  0.1743481105814482  0.0409139671651246  1.0000
  H   H24       1.0  0.8121467500130279  0.8256494922499087  0.5409209257284431  1.0000
  H   H25       1.0  0.2797965070276902  0.7903932616261854  0.5430154265134562  1.0000
  H   H26       1.0  0.22021152463916144  0.20960939771590145  0.0430074169521006  1.0000
  H   H27       1.0  0.7202142871050369  0.29038987035307423  0.956988163931797  1.0000
  H   H28       1.0  0.7797924540292342  0.7096080424111973  0.4569910648019047  1.0000
  H   H29       1.0  0.11509223360864242  0.6905980411582675  0.5087106407087347  1.0000
  H   H30       1.0  0.3849104494575927  0.30940428405806847  0.008706482520963699  1.0000
  H   H31       1.0  0.8849118897721979  0.1905945469288284  0.9912904078890961  1.0000
  H   H32       1.0  0.6150879234701138  0.8094027642606819  0.4912938635206956  1.0000
  H   H33       1.0  0.1877583448174605  0.5374880334908809  0.8220569111951478  1.0000
  H   H34       1.0  0.312223786335622  0.4625042442863218  0.32205867565908614  1.0000
  H   H35       1.0  0.8122290021167657  0.03747846013421  0.6779399683994284  1.0000
  H   H36       1.0  0.6877692652951168  0.9625045708133656  0.1779451617475303  1.0000
  H   H37       1.0  0.3590344242996224  0.48267781033278107  0.7605133148211607  1.0000
  H   H38       1.0  0.1409469209996033  0.5173119966289192  0.2605133466596641  1.0000
  H   H39       1.0  0.6409540704973153  0.9826795302649458  0.7394858365091537  1.0000
  H   H40       1.0  0.8590462104492786  0.0173115855849559  0.2394909291632032  1.0000
  H   H41       1.0  0.15708590501220238  0.4367205559768479  0.7282405188660234  1.0000
  H   H42       1.0  0.34289257297037784  0.5632764220997759  0.22824765796458021  1.0000
  H   H43       1.0  0.8428949786538595  0.9367175875233255  0.7717577203942199  1.0000
  H   H44       1.0  0.6571020313907995  0.0632738426346862  0.2717582074695102  1.0000
  H   H45       1.0  0.9923555285839003  0.6931531022846968  0.7555141897659894  1.0000
  H   H46       1.0  0.5076412741062413  0.3068493978206135  0.2555187338717531  1.0000
  H   H47       1.0  0.0076522913274104  0.19314267702341684  0.7444821291223747  1.0000
  H   H48       1.0  0.4923558575545356  0.8068451024879693  0.2444849867925569  1.0000
  H   H49       1.0  0.9579436658503583  0.5920646778994225  0.6609911216621355  1.0000
  H   H50       1.0  0.5420482469826028  0.40794345128576026  0.16099834625414644  1.0000
  H   H51       1.0  0.0420513381668073  0.09204966339547839  0.8390046813581122  1.0000
  H   H52       1.0  0.4579494240983736  0.9079352940566283  0.3390065677957068  1.0000
  H   H53       1.0  0.016311743191408795  0.750742101643773  0.6440540843246652  1.0000
  H   H54       1.0  0.4836938957366641  0.2492634132369602  0.1440554185679659  1.0000
  H   H55       1.0  0.9837012946112151  0.2507301027488253  0.8559445610350663  1.0000
  H   H56       1.0  0.516306611582145  0.7492565333606931  0.3559466531800624  1.0000
  H   H57       1.0  0.0602225350804488  0.013120331220811503  0.6080711752123875  1.0000
  H   H58       1.0  0.43977036793412344  0.9869007396867246  0.10807068462263202  1.0000
  H   H59       1.0  0.939764681882835  0.5131141481201879  0.891932355385883  1.0000
  H   H60       1.0  0.5602264967351047  0.4868906163386554  0.3919244693147946  1.0000
  C   C1        1.0  0.2954635824661551  0.5984615276394649  0.5957033849143087  1.0000
  C   C2        1.0  0.20453652843579562  0.40153790218649715  0.0956990047309318  1.0000
  C   C3        1.0  0.7045375939842059  0.09846318977415082  0.9042944834035254  1.0000
  C   C4        1.0  0.7954598808225981  0.9015398238242938  0.40430248898698556  1.0000
  C   C5        1.0  0.2151453603627402  0.6287797265189282  0.6904733521767596  1.0000
  C   C6        1.0  0.28484736711428144  0.371221562066161  0.190471158081948  1.0000
  C   C7        1.0  0.7848535225376025  0.1287760303137517  0.8095226382285645  1.0000
  C   C8        1.0  0.7151476527247739  0.8712195104416268  0.3095308584594321  1.0000
  C   C9        1.0  0.32827613452965204  0.7402399639109161  0.7226282539603446  1.0000
  C   C10       1.0  0.1717206864338863  0.25975602378657203  0.2226223468531572  1.0000
  C   C11       1.0  0.6717331643305896  0.24024029045767037  0.7773716929012409  1.0000
  C   C12       1.0  0.8282786492448081  0.7597586798668418  0.2773791009245912  1.0000
  C   C13       1.0  0.49882074377564567  0.7190160145596707  0.6796783026809052  1.0000
  C   C14       1.0  0.0011804393471095  0.2809814261435264  0.1796691393240835  1.0000
  C   C15       1.0  0.5011847588641132  0.21901624313386484  0.8203174706690746  1.0000
  C   C16       1.0  0.9988214648752205  0.7809868882218606  0.3203297066389723  1.0000
  C   C17       1.0  0.480601728960302  0.6067173963532753  0.615403734737093  1.0000
  C   C18       1.0  0.019398633461854303  0.3932794183062001  0.1153958918573394  1.0000
  C   C19       1.0  0.5194007191878215  0.10672111316577568  0.8845928206486349  1.0000
  C   C20       1.0  0.980598959378625  0.8932845155896701  0.38460420466208944  1.0000
  C   C21       1.0  0.24351259304128092  0.4726611388231703  0.5566959868020973  1.0000
  C   C22       1.0  0.2564808815876418  0.5273407181181965  0.0566978681648109  1.0000
  C   C23       1.0  0.756491807734413  0.9726642580396712  0.9433017583818  1.0000
  C   C24       1.0  0.7435110756963468  0.0273410068247557  0.4433017160951493  1.0000
  C   C25       1.0  0.24709033626644583  0.6948257048251918  0.5226376125600041  1.0000
  C   C26       1.0  0.25291252462712066  0.3051767560407157  0.0226329262863274  1.0000
  C   C27       1.0  0.7529162649604614  0.1948235466979469  0.9773614250173424  1.0000
  C   C28       1.0  0.7470858257418627  0.8051764358684038  0.4773667206523839  1.0000
  C   C29       1.0  0.231759227366652  0.5148069166600349  0.7535813040186453  1.0000
  C   C30       1.0  0.2682257123812235  0.485186565507135  0.2535823378501902  1.0000
  C   C31       1.0  0.7682316815238507  0.014805362511459898  0.7464174924679979  1.0000
  C   C32       1.0  0.7317662326091892  0.9851867565081703  0.24641822762767873  1.0000
  C   C33       1.0  0.0346737383982827  0.6682510404051883  0.6872134913830266  1.0000
  C   C34       1.0  0.46532508574367165  0.3317567662099279  0.187215853626391  1.0000
  C   C35       1.0  0.9653302656804854  0.16823762983308652  0.8127820228868714  1.0000
  C   C36       1.0  0.53467217881024  0.8317504572280752  0.31278731659598685  1.0000
  C   C37       1.0  0.3273585363749376  0.7525006556236491  0.8244812661166989  1.0000
  C   C38       1.0  0.1726309916022899  0.2474916457606682  0.3244793651465656  1.0000
  C   C39       1.0  0.672649600280856  0.25251589939877306  0.6755160332089929  1.0000
  C   C40       1.0  0.8273817827599574  0.7474923713127737  0.1755213425358093  1.0000
  C   C41       1.0  0.16356717373221843  0.0663043175021301  0.5786313093485234  1.0000
  C   C42       1.0  0.3364069386259203  0.9337136595835386  0.0786294732325388  1.0000
  C   C43       1.0  0.8364276929388199  0.5662990440124531  0.9213772353896132  1.0000
  C   C44       1.0  0.663584731698748  0.4337060072921871  0.4213721846376188  1.0000
  O   O1        1.0  0.35393795643681614  0.4010321418829433  0.5242414680820886  1.0000
  O   O2        1.0  0.146066152653475  0.5989740773661795  0.024246001385428404  1.0000
  O   O3        1.0  0.6460672898377666  0.9010361786414549  0.9757640420047978  1.0000
  O   O4        1.0  0.8539212762715921  0.09898063047931059  0.4757525933433158  1.0000
  O   O5        1.0  0.0909415679837196  0.4478448228588476  0.5533188021647959  1.0000
  O   O6        1.0  0.4090629123997758  0.5521654223256575  0.0533234282614927  1.0000
  O   O7        1.0  0.9090565620738574  0.9478390800245506  0.9466733960816852  1.0000
  O   O8        1.0  0.590923039106592  0.052154053863645786  0.4466817029027723  1.0000
  O   O9        1.0  0.2005919120070772  0.8005842352613823  0.8619528313969553  1.0000
  O   O10       1.0  0.29941773678798717  0.19940936679166302  0.3619464288112155  1.0000
  O   O11       1.0  0.7994213918385994  0.3005966908143876  0.6380501335619968  1.0000
  O   O12       1.0  0.7005996915584943  0.6993999867882792  0.1380506458319672  1.0000
  O   O13       1.0  0.4489082037592027  0.7119309713203563  0.8699330750485856  1.0000
  O   O14       1.0  0.0511052298665362  0.28805896575085643  0.3699261719794222  1.0000
  O   O15       1.0  0.5511083099551612  0.21195195416343893  0.6300606296205942  1.0000
  O   O16       1.0  0.9489053056756943  0.7880586808672017  0.1300774528374333  1.0000
  O   O17       1.0  0.29885012610867523  0.0138849238612551  0.5633090076745902  1.0000
  O   O18       1.0  0.20115079881072262  0.9861207401791033  0.0633028547415648  1.0000
  O   O19       1.0  0.7011432332773141  0.5138821971514175  0.9367087550561877  1.0000
  O   O20       1.0  0.7988460617244045  0.48611458230067217  0.4366950053611163  1.0000
  O   O21       1.0  0.14246900366424597  0.1834717476035621  0.5607365443774341  1.0000
  O   O22       1.0  0.35753066083698576  0.816544183881724  0.0607382565883938  1.0000
  O   O23       1.0  0.8575277157861408  0.6834695192721509  0.9392617577102201  1.0000
  O   O24       1.0  0.6424763436764209  0.31653289918984473  0.4392580606752716  1.0000
