data_image0
_chemical_formula_structural       Cd2H28C34S2N8O8
_chemical_formula_sum              "Cd2 H28 C34 S2 N8 O8"
_cell_length_a       8.985547364294884
_cell_length_b       9.609186233260479
_cell_length_c       11.351204950199566
_cell_angle_alpha    85.43666821224838
_cell_angle_beta     80.65791554909053
_cell_angle_gamma    68.91014317322585

_space_group_name_H-M_alt    "P 1"
_space_group_IT_number       1

loop_
  _space_group_symop_operation_xyz
  'x, y, z'

loop_
  _atom_site_type_symbol
  _atom_site_label
  _atom_site_symmetry_multiplicity
  _atom_site_fract_x
  _atom_site_fract_y
  _atom_site_fract_z
  _atom_site_occupancy
  Cd  Cd1       1.0  0.10632707386513117  0.11169650602448662  0.8909006432537152  1.0000
  Cd  Cd2       1.0  0.8936711627871716  0.888301241221946  0.10910104742595902  1.0000
  H   H1        1.0  0.8948820895506132  0.4002655167724782  0.049303147114265734  1.0000
  H   H2        1.0  0.10511096503080344  0.5997399900641441  0.9507014353918635  1.0000
  H   H3        1.0  0.9123231274723409  0.5429807584097119  0.21747333517271267  1.0000
  H   H4        1.0  0.08767344050906438  0.45702140906093547  0.7825300996598371  1.0000
  H   H5        1.0  0.3779211218442383  0.19972572717450987  0.24774586642601548  1.0000
  H   H6        1.0  0.622077693039124  0.8002765721761449  0.7522511142751963  1.0000
  H   H7        1.0  0.3405823814996225  0.0739661489855123  0.07932944510844207  1.0000
  H   H8        1.0  0.65941208164967  0.9260417414639834  0.9206677914568073  1.0000
  H   H9        1.0  0.4034099559810116  0.6314748301832296  0.6189745858013962  1.0000
  H   H10       1.0  0.5965936308031132  0.36852074179696354  0.38102302591203596  1.0000
  H   H11       1.0  0.3628701632903527  0.8255377905733498  0.768707201625183  1.0000
  H   H12       1.0  0.6371363106280015  0.1744712019090429  0.2312858412605364  1.0000
  H   H13       1.0  0.8938663900780027  0.05271539878614109  0.7073191833016919  1.0000
  H   H14       1.0  0.10613381135831872  0.9472801314518694  0.2926814950363337  1.0000
  H   H15       1.0  0.9112731554868887  0.8692936326087802  0.5577186818586739  1.0000
  H   H16       1.0  0.08872859456539568  0.13070077527166998  0.4422818611474212  1.0000
  H   H17       1.0  0.4831002143658623  0.3058473846931733  0.6586020955660601  1.0000
  H   H18       1.0  0.5169015316877933  0.6941470648080353  0.34139668355405195  1.0000
  H   H19       1.0  0.6284564075827178  0.1586146594099276  0.730287930077317  1.0000
  H   H20       1.0  0.3715452244139498  0.8413830255267951  0.269715103692711  1.0000
  H   H21       1.0  0.5690146121395541  0.4302870088737692  0.7950061778286395  1.0000
  H   H22       1.0  0.4309901090917805  0.5697085145893511  0.2049930575055612  1.0000
  H   H23       1.0  0.37755089342036996  0.4297929674976331  0.8627173695521219  1.0000
  H   H24       1.0  0.6224493460253909  0.5702115489828757  0.137279320752114  1.0000
  H   H25       1.0  0.5404405621519571  0.3638161225671793  0.019971369011663898  1.0000
  H   H26       1.0  0.459559389177933  0.6361861074560267  0.9800281172533046  1.0000
  H   H27       1.0  0.5376825004675397  0.1900601376025932  0.9825285330630107  1.0000
  H   H28       1.0  0.46230941566803807  0.8099454593718605  0.017472661936366773  1.0000
  C   C1        1.0  0.9995495548944999  0.36027983953062664  0.096563175276124  1.0000
  C   C2        1.0  0.0004470090882763233  0.6397223695607719  0.90343849567045  1.0000
  C   C3        1.0  0.010519924529383228  0.43918774760132345  0.1902008779398727  1.0000
  C   C4        1.0  0.9894746786679888  0.5608166368777461  0.8098035692343256  1.0000
  C   C5        1.0  0.1497290219806472  0.38409361995111624  0.24559470563445268  1.0000
  C   C6        1.0  0.8502692186702774  0.6159040856745577  0.7544087489311976  1.0000
  C   C7        1.0  0.2693915401143768  0.24927566721681418  0.20600615490958055  1.0000
  C   C8        1.0  0.7306049038134645  0.7507298397412399  0.793997124857931  1.0000
  C   C9        1.0  0.24821721819739642  0.17787584036751986  0.11190621030885947  1.0000
  C   C10       1.0  0.7517817207395295  0.8221231194957284  0.8880909254573836  1.0000
  C   C11       1.0  0.17393887487405382  0.4616142964842779  0.3422814805286193  1.0000
  C   C12       1.0  0.8260623389552318  0.5383845039136901  0.6577215483081317  1.0000
  C   C13       1.0  0.1795356638652805  0.6193131055818667  0.4921831232221832  1.0000
  C   C14       1.0  0.8204699397075074  0.38068908995975903  0.5078156617167477  1.0000
  C   C15       1.0  0.1598959179877184  0.7336359173018112  0.5766970403383381  1.0000
  C   C16       1.0  0.8401107740255824  0.2663573267217529  0.4233038284831847  1.0000
  C   C17       1.0  0.2884508925656205  0.7223708719990255  0.6372133203211802  1.0000
  C   C18       1.0  0.7115473500846218  0.27762681281626567  0.36279101618746507  1.0000
  C   C19       1.0  0.2666823677832681  0.8298286542447144  0.7194762156212916  1.0000
  C   C20       1.0  0.7333196703848871  0.17016804009303138  0.2805215314240711  1.0000
  C   C21       1.0  0.004668089708175769  0.9576343216320566  0.6850555324295441  1.0000
  C   C22       1.0  0.9953336543461687  0.042360148679527795  0.3149423647475729  1.0000
  C   C23       1.0  0.01547722552644595  0.8552794397398106  0.6012969067210816  1.0000
  C   C24       1.0  0.9845239823048927  0.1447194230892919  0.3987034762866981  1.0000
  C   C25       1.0  0.38172499873036264  0.17539580797275528  0.7858591728714825  1.0000
  C   C26       1.0  0.6182767613184909  0.8245984958558027  0.21414577984955221  1.0000
  C   C27       1.0  0.5084517532854845  0.2463695185833429  0.7439468217684037  1.0000
  C   C28       1.0  0.49154832609659155  0.753629330331698  0.25605458344757887  1.0000
  C   C29       1.0  0.5037215326761099  0.3575560280560097  0.8367327077460088  1.0000
  C   C30       1.0  0.49627812254063747  0.6424439987514035  0.16326604670773284  1.0000
  C   C31       1.0  0.5784166166678729  0.2822101196207143  0.9480412339050304  1.0000
  C   C32       1.0  0.4215799453155852  0.7177921102810602  0.051959555098548486  1.0000
  C   C33       1.0  0.7617275393624255  0.22552766049841472  0.9270914636265032  1.0000
  C   C34       1.0  0.23826913867733157  0.7744713131574629  0.07290595267014768  1.0000
  S   S1        1.0  0.04673838791759978  0.6353515562473149  0.3932005410006099  1.0000
  S   S2        1.0  0.953267343707374  0.3646472581861459  0.6068001628893285  1.0000
  N   N1        1.0  0.11623703082100424  0.2330655805005577  0.05695025173929478  1.0000
  N   N2        1.0  0.8837555995950837  0.7669411042284437  0.9430516800045934  1.0000
  N   N3        1.0  0.30147294333306  0.403801107608139  0.3991342244724834  1.0000
  N   N4        1.0  0.6985339127425548  0.5961977623601413  0.6008636933232835  1.0000
  N   N5        1.0  0.30530922013285533  0.49254956640609737  0.48321346256819436  1.0000
  N   N6        1.0  0.6947021537384471  0.5074493175976684  0.5167821302807596  1.0000
  N   N7        1.0  0.12727347111264445  0.9455352746876645  0.7436670219876332  1.0000
  N   N8        1.0  0.8727284430019537  0.05446475913749541  0.2563305699926983  1.0000
  O   O1        1.0  0.2380808101341501  0.24904060396528388  0.7635316959080852  1.0000
  O   O2        1.0  0.7619189831313659  0.7509559376820791  0.2364733872116104  1.0000
  O   O3        1.0  0.4165479566372099  0.05334948507791642  0.8454804390438538  1.0000
  O   O4        1.0  0.58345242685526  0.9466514838114078  0.1545252257553216  1.0000
  O   O5        1.0  0.8339776238912862  0.3037904517132617  0.8645221223176661  1.0000
  O   O6        1.0  0.16602137904616399  0.6962172238575731  0.13548249067365958  1.0000
  O   O7        1.0  0.8410702239391912  0.1001058368974483  0.9740391386305232  1.0000
  O   O8        1.0  0.15893048772903723  0.8998855713579489  0.02594758861797433  1.0000
