data_image0
_chemical_formula_structural       Hg4H48C40N20Cl4O20
_chemical_formula_sum              "Hg4 H48 C40 N20 Cl4 O20"
_cell_length_a       8.510501646003478
_cell_length_b       13.11318274696389
_cell_length_c       13.917019774213614
_cell_angle_alpha    109.37222356943974
_cell_angle_beta     90.00004726785144
_cell_angle_gamma    90.00007084238689

_space_group_name_H-M_alt    "P 1"
_space_group_IT_number       1

loop_
  _space_group_symop_operation_xyz
  'x, y, z'

loop_
  _atom_site_type_symbol
  _atom_site_label
  _atom_site_symmetry_multiplicity
  _atom_site_fract_x
  _atom_site_fract_y
  _atom_site_fract_z
  _atom_site_occupancy
  Hg  Hg1       1.0  0.7320143634499631  0.7145085460280285  0.6432617872984424  1.0000
  Hg  Hg2       1.0  0.23201584555289403  0.7854930281114317  0.8567381777237698  1.0000
  Hg  Hg3       1.0  0.2679858881247554  0.28549351426386244  0.3567400309240655  1.0000
  Hg  Hg4       1.0  0.7679855810368823  0.21450740513674296  0.1432602624053771  1.0000
  H   H1        1.0  0.25932366962362613  0.13476293697999614  0.6015352766020783  1.0000
  H   H2        1.0  0.7593239907748954  0.3652381806219224  0.8984658890174445  1.0000
  H   H3        1.0  0.7406789319864372  0.8652383072067026  0.39846413322581503  1.0000
  H   H4        1.0  0.24068096086918442  0.6347590269668899  0.10153370776097861  1.0000
  H   H5        1.0  0.0968737048058372  0.048830935230377286  0.6019241586874885  1.0000
  H   H6        1.0  0.5968718387712358  0.45116920232820956  0.8980787759669084  1.0000
  H   H7        1.0  0.9031277217881668  0.9511727340163599  0.39807600218860967  1.0000
  H   H8        1.0  0.4031295878125008  0.5488247718444085  0.10191981941174084  1.0000
  H   H9        1.0  0.15494307642152455  0.0667072487831888  0.485739875053156  1.0000
  H   H10       1.0  0.6549465376365903  0.4332935535058553  0.014262479835203125  1.0000
  H   H11       1.0  0.8450583501715414  0.9332956121099868  0.5142600354733773  1.0000
  H   H12       1.0  0.3450572389872377  0.5667020399594946  0.985737335592269  1.0000
  H   H13       1.0  0.4791277209547289  0.6901553453511582  0.29392183674504935  1.0000
  H   H14       1.0  0.9791253291862391  0.8098462939772517  0.20607745951787135  1.0000
  H   H15       1.0  0.5208701805780578  0.30984267575593794  0.7060794490773007  1.0000
  H   H16       1.0  0.020870222308232704  0.1901541340990676  0.7939195419113929  1.0000
  H   H17       1.0  0.27400705583520585  0.7216434827092681  0.2916632215543729  1.0000
  H   H18       1.0  0.7740046072256279  0.7783579300437535  0.20833589962587945  1.0000
  H   H19       1.0  0.7259920207187988  0.2783561576899061  0.7083392843162954  1.0000
  H   H20       1.0  0.22599329430470763  0.2216408813267421  0.7916606011052565  1.0000
  H   H21       1.0  0.3390924809245491  0.6300048559149046  0.3546279300017119  1.0000
  H   H22       1.0  0.8390901222413305  0.8699974474220297  0.14537437447715004  1.0000
  H   H23       1.0  0.6609065956342021  0.3699972198821939  0.6453782043124007  1.0000
  H   H24       1.0  0.16090660426968378  0.13000055817855843  0.8546225952526001  1.0000
  H   H25       1.0  0.6922368682284485  0.9741815613338571  0.8996579412482008  1.0000
  H   H26       1.0  0.19223398832155422  0.5258199662808494  0.6003412704710129  1.0000
  H   H27       1.0  0.3077645583627416  0.02581968285219459  0.1003414685791952  1.0000
  H   H28       1.0  0.807768613287152  0.4741788605980942  0.3996595463542292  1.0000
  H   H29       1.0  0.8401143995666587  0.0243610629800131  0.8396102064513828  1.0000
  H   H30       1.0  0.3401089301865952  0.4756401412754698  0.6603903087766625  1.0000
  H   H31       1.0  0.1598870270259525  0.9756409921439086  0.16039017307426223  1.0000
  H   H32       1.0  0.6598901463650222  0.5243586830172191  0.3396097886983896  1.0000
  H   H33       1.0  0.8159662057067153  0.8820064871402098  0.8076733142820984  1.0000
  H   H34       1.0  0.3159647992094534  0.6179943662083004  0.6923250333498174  1.0000
  H   H35       1.0  0.18403287084719724  0.1179955628137961  0.19232562654517696  1.0000
  H   H36       1.0  0.6840366273789584  0.3820036497321197  0.3076748137766714  1.0000
  H   H37       1.0  0.6941725131428953  0.17566974564577714  0.859143819486036  1.0000
  H   H38       1.0  0.1941749550786867  0.32432889302111784  0.6408615749161015  1.0000
  H   H39       1.0  0.3058300884643544  0.8243290734802429  0.1408548392931621  1.0000
  H   H40       1.0  0.8058276465277245  0.6756667081965089  0.3591403985569173  1.0000
  H   H41       1.0  0.533896415802566  0.13591449825641885  0.9173131425564736  1.0000
  H   H42       1.0  0.033898855439076704  0.3640831446794265  0.5826889872962085  1.0000
  H   H43       1.0  0.4661061858089114  0.8640875568681493  0.08268723696967578  1.0000
  H   H44       1.0  0.9661013961314424  0.6359148764289628  0.41731229852714335  1.0000
  H   H45       1.0  0.49922751473437194  0.22065675277328003  0.8426825080254048  1.0000
  H   H46       1.0  0.9992296997770325  0.27934545885439377  0.6573248675060982  1.0000
  H   H47       1.0  0.5007750868785267  0.7793461132891648  0.1573188411989931  1.0000
  H   H48       1.0  0.0007693767770078001  0.7206533783598417  0.34267882671237265  1.0000
  C   C1        1.0  0.1975293281206021  0.061113667051550594  0.5577837662522569  1.0000
  C   C2        1.0  0.6975286728491952  0.43888738487638784  0.9422180659704011  1.0000
  C   C3        1.0  0.8024732734903921  0.9388883854887169  0.44221589392520144  1.0000
  C   C4        1.0  0.3024739287567044  0.56110901694187  0.057781999806138545  1.0000
  C   C5        1.0  0.4207779333407089  0.9688566226422705  0.6066783376998329  1.0000
  C   C6        1.0  0.9207729123579682  0.5311443542317277  0.8933222574396142  1.0000
  C   C7        1.0  0.579225843287283  0.031143813191512493  0.3933208217789995  1.0000
  C   C8        1.0  0.0792261641941039  0.4688552758302151  0.10667737103632652  1.0000
  C   C9        1.0  0.28385397170446686  0.8835038067053135  0.4468788334151911  1.0000
  C   C10       1.0  0.7838486575285728  0.6165000393993623  0.05312032786878262  1.0000
  C   C11       1.0  0.716147454886759  0.11649663429579249  0.5531217647600002  1.0000
  C   C12       1.0  0.21615041902210658  0.38349797653976475  0.9468795192567043  1.0000
  C   C13       1.0  0.36805087797737457  0.7029788069827061  0.33627165762075606  1.0000
  C   C14       1.0  0.8680484051284837  0.7970210929435596  0.16372704313233305  1.0000
  C   C15       1.0  0.6319481985761541  0.29702083083216013  0.6637301289012356  1.0000
  C   C16       1.0  0.1319471463669615  0.20297934030138262  0.8362713969943059  1.0000
  C   C17       1.0  0.4973231144397374  0.7844237949275269  0.49816477883079824  1.0000
  C   C18       1.0  0.9973155699338537  0.7155827016964054  0.0018324383147642618  1.0000
  C   C19       1.0  0.5026759621179836  0.21557988207084114  0.5018375400903494  1.0000
  C   C20       1.0  0.0026729314483873  0.28441773154463595  0.998166001808862  1.0000
  C   C21       1.0  0.5147934452220397  0.8771975613910142  0.5909046675447557  1.0000
  C   C22       1.0  0.014785287968585704  0.6228037702175867  0.9090943927137259  1.0000
  C   C23       1.0  0.48520915638899004  0.12280368796430711  0.4090961809805052  1.0000
  C   C24       1.0  0.9852090885079505  0.3771974662116476  0.09090285906460589  1.0000
  C   C25       1.0  0.6403808199660759  0.9606204395390493  0.7461767205675969  1.0000
  C   C26       1.0  0.14037582128714376  0.5393818365637841  0.7538219778893875  1.0000
  C   C27       1.0  0.3596206066260521  0.03938161300056459  0.2538229396093641  1.0000
  C   C28       1.0  0.8596244302814356  0.4606161742073737  0.24617643053923643  1.0000
  C   C29       1.0  0.7534200371975999  0.9589471107486176  0.8265433425741548  1.0000
  C   C30       1.0  0.2534172841407881  0.5410544818644992  0.6734552020198947  1.0000
  C   C31       1.0  0.24658021437566194  0.041054941790342483  0.1734563176023087  1.0000
  C   C32       1.0  0.7465853174664971  0.4589435340765747  0.3265446451070986  1.0000
  C   C33       1.0  0.547404248741536  0.055212875039572396  0.7571125260075675  1.0000
  C   C34       1.0  0.04740588126858821  0.44478800589352824  0.7428877393780482  1.0000
  C   C35       1.0  0.45259365279257235  0.9447883665602176  0.2428861644696383  1.0000
  C   C36       1.0  0.9525955453221829  0.5552116293383308  0.25711332779626167  1.0000
  C   C37       1.0  0.5695088575542115  0.1530036477932981  0.8481353661547075  1.0000
  C   C38       1.0  0.0695101823015136  0.3469964595399659  0.6518675451435386  1.0000
  C   C39       1.0  0.4304925690388545  0.8469992130998775  0.15186454437182556  1.0000
  C   C40       1.0  0.9304912442869409  0.6530007532155153  0.3481334903307527  1.0000
  N   N1        1.0  0.3066201042270009  0.9697470038723494  0.5365047113296413  1.0000
  N   N2        1.0  0.8066175255386483  0.5302538469047846  0.9634957863703734  1.0000
  N   N3        1.0  0.6933824973849596  0.030255053836533798  0.4634963875451917  1.0000
  N   N4        1.0  0.19338272603135212  0.469744974804243  0.03650359175649948  1.0000
  N   N5        1.0  0.3847409963587225  0.7947008529938983  0.4306941676373199  1.0000
  N   N6        1.0  0.8847358726803166  0.7053022936123623  0.06930411006154456  1.0000
  N   N7        1.0  0.6152604302353453  0.20530120988295406  0.5693083699343761  1.0000
  N   N8        1.0  0.11525850379673841  0.29469814221623375  0.9306950494132737  1.0000
  N   N9        1.0  0.620968195607702  0.8747987664447548  0.6624031910336896  1.0000
  N   N10       1.0  0.12095994719388871  0.6252051049203188  0.8375959915512183  1.0000
  N   N11       1.0  0.3790344060051965  0.1252040996176902  0.3375981581907083  1.0000
  N   N12       1.0  0.8790367793194492  0.3747953231566541  0.1624010098785504  1.0000
  N   N13       1.0  0.43931774484575936  0.057636195797996885  0.6888450054883181  1.0000
  N   N14       1.0  0.9393216207941039  0.44236431744157295  0.8111575021161315  1.0000
  N   N15       1.0  0.5606813317077055  0.9423650483867547  0.31115440433806907  1.0000
  N   N16       1.0  0.0606809808155688  0.5576345146059866  0.18884475340647813  1.0000
  N   N17       1.0  0.0901227786669736  0.7898921240981023  0.6434895741165576  1.0000
  N   N18       1.0  0.5901250987553937  0.7101060676477078  0.8565114264409104  1.0000
  N   N19       1.0  0.9098786479232859  0.21010831173438754  0.35650958536127325  1.0000
  N   N20       1.0  0.4098728027763912  0.28989275147571186  0.14348723233626967  1.0000
  Cl  Cl1       1.0  0.806381104264105  0.5318415427579523  0.5990073510633138  1.0000
  Cl  Cl2       1.0  0.3063829928982288  0.9681593077576522  0.9009931464346083  1.0000
  Cl  Cl3       1.0  0.19362149734550374  0.46815889565949925  0.4009925277636981  1.0000
  Cl  Cl4       1.0  0.6936231337698543  0.0318427473688701  0.0990072330930474  1.0000
  O   O1        1.0  0.1843239587070045  0.8861443042139285  0.38354674021908863  1.0000
  O   O2        1.0  0.6843163742613001  0.61385861842691  0.11645064706222288  1.0000
  O   O3        1.0  0.815678642903606  0.11385533618719278  0.6164557656530862  1.0000
  O   O4        1.0  0.31568622734456403  0.386138586576287  0.8835482303665216  1.0000
  O   O5        1.0  0.5795050160070262  0.701352757433618  0.47720716944299113  1.0000
  O   O6        1.0  0.0794955008585205  0.7986500442550124  0.022788689670946414  1.0000
  O   O7        1.0  0.4204846603933348  0.29864204834485264  0.5227981504183603  1.0000
  O   O8        1.0  0.9204883004462516  0.2013519850160819  0.9772044963603506  1.0000
  O   O9        1.0  0.0119664286652892  0.770658851932282  0.7155033471502037  1.0000
  O   O10       1.0  0.5119710389425903  0.7293384425457816  0.784496616998915  1.0000
  O   O11       1.0  0.9880338229075251  0.22934239483743116  0.2844967820253714  1.0000
  O   O12       1.0  0.4880245125538212  0.2706619958677763  0.2155032618250843  1.0000
  O   O13       1.0  0.23768400303497125  0.7917491460327214  0.6483774642041241  1.0000
  O   O14       1.0  0.7376874880679765  0.7082492087091906  0.8516236623060962  1.0000
  O   O15       1.0  0.7623162485345462  0.20824967309199136  0.351621194574065  1.0000
  O   O16       1.0  0.2623080634250456  0.2917512116142049  0.14837118107712402  1.0000
  O   O17       1.0  0.0166593907465256  0.8056823171807892  0.5712479760805919  1.0000
  O   O18       1.0  0.5166617775358376  0.6943190216633609  0.9287525244724506  1.0000
  O   O19       1.0  0.9833420358423128  0.19431730771383118  0.428750213698983  1.0000
  O   O20       1.0  0.4833408240742543  0.3056814193383914  0.07124807370324503  1.0000
