data_image0
_chemical_formula_structural       Tb4H60C90S6O48
_chemical_formula_sum              "Tb4 H60 C90 S6 O48"
_cell_length_a       9.267423963156219
_cell_length_b       15.588102747661809
_cell_length_c       21.85183571475466
_cell_angle_alpha    103.03920330497138
_cell_angle_beta     101.67880143061916
_cell_angle_gamma    104.50637959115066

_space_group_name_H-M_alt    "P 1"
_space_group_IT_number       1

loop_
  _space_group_symop_operation_xyz
  'x, y, z'

loop_
  _atom_site_type_symbol
  _atom_site_label
  _atom_site_symmetry_multiplicity
  _atom_site_fract_x
  _atom_site_fract_y
  _atom_site_fract_z
  _atom_site_occupancy
  Tb  Tb1       1.0  0.5091258673668906  0.8630899376891892  0.8151231386739042  1.0000
  Tb  Tb2       1.0  0.035698848941116544  0.906714693536053  0.8526831029854236  1.0000
  Tb  Tb3       1.0  0.4908735882323825  0.13690768929107833  0.18487535391501808  1.0000
  Tb  Tb4       1.0  0.9642995046052152  0.09328504457771203  0.14731791053651477  1.0000
  H   H1        1.0  0.8785896860884962  0.8363148210500174  0.6754795103053723  1.0000
  H   H2        1.0  0.7342344538624774  0.8407397241790452  0.5683604111044431  1.0000
  H   H3        1.0  0.3061518515803527  0.903176244078111  0.6213946549663092  1.0000
  H   H4        1.0  0.6506310426152453  0.7862955694896528  0.4528246406760984  1.0000
  H   H5        1.0  0.6684695614722501  0.9054825749855697  0.4893469945068887  1.0000
  H   H6        1.0  0.6773577457566233  0.867215777452742  0.40671762043960763  1.0000
  H   H7        1.0  0.9743969017913372  0.8437326726562521  0.3648594056055074  1.0000
  H   H8        1.0  0.9587774199681505  0.909856611373748  0.2698545236264849  1.0000
  H   H9        1.0  0.45529877598366403  0.015452451784476304  0.3211384983348822  1.0000
  H   H10       1.0  0.4733910715533866  0.9517161842421659  0.4174268890341891  1.0000
  H   H11       1.0  0.978444872389673  0.6676388221360415  0.9139640231261622  1.0000
  H   H12       1.0  0.9021389727661739  0.5097271800459425  0.9289976360417  1.0000
  H   H13       1.0  0.2669709072858168  0.44804442770917063  0.8493394179075365  1.0000
  H   H14       1.0  0.3451813722235215  0.6080421321078334  0.8369802985321897  1.0000
  H   H15       1.0  0.05385537589805267  0.23235565383272672  0.011179347211452792  1.0000
  H   H16       1.0  0.4784940483618882  0.16304830529922756  0.028667423288915486  1.0000
  H   H17       1.0  0.5831467042979953  0.2850336769093502  0.9797647024333429  1.0000
  H   H18       1.0  0.6676873222447313  0.44044180323540894  0.982699731833371  1.0000
  H   H19       1.0  0.5939209842205458  0.3583077277825242  0.9025607212549076  1.0000
  H   H20       1.0  0.5951212497288055  0.4758029864553992  0.913078352800504  1.0000
  H   H21       1.0  0.5609294568248798  0.5634520706383485  0.7941790370462413  1.0000
  H   H22       1.0  0.006191861768932941  0.5515150345963138  0.7011646299421627  1.0000
  H   H23       1.0  0.9349306002620565  0.6956807283308494  0.7243328934433106  1.0000
  H   H24       1.0  0.9556010268290437  0.3892279663603448  0.6498255316368144  1.0000
  H   H25       1.0  0.0953725847031422  0.43947713699002855  0.7291365926690146  1.0000
  H   H26       1.0  0.9946133902520414  0.31794284850298754  0.7007397214434262  1.0000
  H   H27       1.0  0.2300607859657262  0.2738023941323889  0.7922667133705373  1.0000
  H   H28       1.0  0.19259533040927576  0.15084046585529623  0.8485919559551361  1.0000
  H   H29       1.0  0.6059996998119387  0.09598528645657473  0.8134466186098237  1.0000
  H   H30       1.0  0.6443989680918348  0.21867796991561053  0.7559419308149273  1.0000
  H   H31       1.0  0.12140395439748636  0.16368004867636196  0.3245194374453533  1.0000
  H   H32       1.0  0.2657667117089204  0.15926340412528364  0.4316367872174069  1.0000
  H   H33       1.0  0.6938491489583924  0.09682216842919196  0.37860958152216273  1.0000
  H   H34       1.0  0.3493771535286996  0.21370621223685057  0.5471743177367827  1.0000
  H   H35       1.0  0.3315389764677192  0.09451988431838035  0.5106511821244126  1.0000
  H   H36       1.0  0.3226559237045876  0.13278808395020292  0.5932816645930501  1.0000
  H   H37       1.0  0.025615037240051194  0.1562677782209505  0.6351424100550318  1.0000
  H   H38       1.0  0.041223229640685595  0.0901368891363106  0.730144805935268  1.0000
  H   H39       1.0  0.5447053231610042  0.9845541949951839  0.678862695040209  1.0000
  H   H40       1.0  0.5266195834957871  0.04829463531557822  0.5825759610292778  1.0000
  H   H41       1.0  0.02155634323098354  0.3323643589914271  0.08603639118234699  1.0000
  H   H42       1.0  0.0978592816736281  0.4902745658583641  0.07099956014771179  1.0000
  H   H43       1.0  0.7330230954538736  0.5519490287963222  0.15065751170079977  1.0000
  H   H44       1.0  0.654813293650534  0.3919547703508926  0.16301630387380328  1.0000
  H   H45       1.0  0.9461364012860899  0.76764200230128  0.9888212459829191  1.0000
  H   H46       1.0  0.5214998644051575  0.8369513934166124  0.9713313776951864  1.0000
  H   H47       1.0  0.4168497573469309  0.7149688174273907  0.020236118825579266  1.0000
  H   H48       1.0  0.33230765265186335  0.559562079380406  0.017301635580146486  1.0000
  H   H49       1.0  0.40607173552892567  0.6416982108403319  0.09743985739716975  1.0000
  H   H50       1.0  0.4048667517943941  0.5242023031075435  0.08692492993530719  1.0000
  H   H51       1.0  0.4390761352260171  0.43655108197157944  0.20581945496011395  1.0000
  H   H52       1.0  0.9938130119324313  0.4484888385647211  0.29883574313482336  1.0000
  H   H53       1.0  0.0650669286783199  0.3043217305783942  0.27566572439006615  1.0000
  H   H54       1.0  0.04440504803178405  0.6107717878766509  0.35017613783967505  1.0000
  H   H55       1.0  0.9046312840678328  0.5605226126403271  0.2708648893918877  1.0000
  H   H56       1.0  0.005384949986499419  0.6820589879552728  0.29926298786598676  1.0000
  H   H57       1.0  0.769932503590347  0.7261875635967459  0.20772732745346897  1.0000
  H   H58       1.0  0.8074004937248845  0.849152272402421  0.15140318629035926  1.0000
  H   H59       1.0  0.3940049864150979  0.9040117348321319  0.18655679971297448  1.0000
  H   H60       1.0  0.3556090129701983  0.7813190431907344  0.2440608497779094  1.0000
  C   C1        1.0  0.1880086222273861  0.8645764980458426  0.7191994155784726  1.0000
  C   C2        1.0  0.10151309800459536  0.8689354012536584  0.6557761516039305  1.0000
  C   C3        1.0  0.9406778437638865  0.8525443818288782  0.6401100919567922  1.0000
  C   C4        1.0  0.8594190709779139  0.8553184147076538  0.5799832253509507  1.0000
  C   C5        1.0  0.9389301667842601  0.8770155514535676  0.5343345099672304  1.0000
  C   C6        1.0  0.10165525503605721  0.8964652603415078  0.5517191883517611  1.0000
  C   C7        1.0  0.1814598394216205  0.8906766917038811  0.6104443429654012  1.0000
  C   C8        1.0  0.7066905621677082  0.8584778596846193  0.45549363816984106  1.0000
  C   C9        1.0  0.22494542764052022  0.8929847258392771  0.3947201641166416  1.0000
  C   C10       1.0  0.07870847480802462  0.8804446316021528  0.3542913507814447  1.0000
  C   C11       1.0  0.07042428133487276  0.917224735834978  0.30179495968011577  1.0000
  C   C12       1.0  0.20628178907422515  0.9650104853536237  0.2896779208097086  1.0000
  C   C13       1.0  0.35135558971580844  0.9771756941032878  0.3310735091229303  1.0000
  C   C14       1.0  0.36174570456485355  0.941558112734896  0.38421226078222753  1.0000
  C   C15       1.0  0.19873091205055723  0.005745484923124901  0.23352663619163389  1.0000
  C   C16       1.0  0.2105464275634716  0.7425107761304447  0.8666492628829656  1.0000
  C   C17       1.0  0.1672807892720342  0.6474147490471296  0.8755491021088702  1.0000
  C   C18       1.0  0.0424264635086899  0.6197738601452942  0.9011245334877811  1.0000
  C   C19       1.0  0.9986222302002049  0.5315979395278206  0.9088926182081636  1.0000
  C   C20       1.0  0.08039436598810572  0.47092293185166073  0.889976679821501  1.0000
  C   C21       1.0  0.20562613683365785  0.496807950452194  0.8641287106323431  1.0000
  C   C22       1.0  0.24896875735861823  0.5856715085404436  0.8573152565605398  1.0000
  C   C23       1.0  0.2305418568209632  0.3149598902184465  0.9795066377812772  1.0000
  C   C24       1.0  0.1698776387927268  0.24420683921974984  0.004524090401517383  1.0000
  C   C25       1.0  0.2603466360310875  0.18992305233913243  0.023639188980219186  1.0000
  C   C26       1.0  0.40915773060191896  0.20593864050192692  0.0144989450172517  1.0000
  C   C27       1.0  0.4682512727025098  0.27475183618661  0.9872907710429502  1.0000
  C   C28       1.0  0.3799396390691853  0.33104532172981044  0.9696350825872172  1.0000
  C   C29       1.0  0.2059325101841409  0.12365200076692423  0.059536134671496696  1.0000
  C   C30       1.0  0.5810339187504284  0.41895549392053516  0.935199928134672  1.0000
  C   C31       1.0  0.7045057441635408  0.7270377755080094  0.7768163584753011  1.0000
  C   C32       1.0  0.7431942862635452  0.6396298342987947  0.7605298236662249  1.0000
  C   C33       1.0  0.6591736920055736  0.5616000818344633  0.7743281464520848  1.0000
  C   C34       1.0  0.7037307540756927  0.48248550850193084  0.7640738997650516  1.0000
  C   C35       1.0  0.8286950993003045  0.476087206531922  0.737324554239258  1.0000
  C   C36       1.0  0.9095426766798198  0.5539189943227285  0.7219434060446942  1.0000
  C   C37       1.0  0.868647016021356  0.6348405406867529  0.7346139067270485  1.0000
  C   C38       1.0  0.9851892477223387  0.3863474943960413  0.700437720413575  1.0000
  C   C39       1.0  0.4380639055227889  0.25160799377595583  0.7709151188229555  1.0000
  C   C40       1.0  0.31103689224091374  0.23420628563298615  0.796484687672006  1.0000
  C   C41       1.0  0.2910046098301819  0.16595783014204812  0.8283601908578858  1.0000
  C   C42       1.0  0.3975588352842365  0.11649526638284868  0.8342878561443499  1.0000
  C   C43       1.0  0.5246930688635275  0.13527671840740402  0.8082566284624519  1.0000
  C   C44       1.0  0.5458626130174197  0.20297243647913632  0.7760863266846414  1.0000
  C   C45       1.0  0.3723070130465018  0.040575199800152  0.8662791143816904  1.0000
  C   C46       1.0  0.8119886701813995  0.1354211696047614  0.2808016461548632  1.0000
  C   C47       1.0  0.8984813037302785  0.1310587931985836  0.3442236716361649  1.0000
  C   C48       1.0  0.05931468652726579  0.14745047804801462  0.3598883026594706  1.0000
  C   C49       1.0  0.1405814396010143  0.14468338862642588  0.4200173742407216  1.0000
  C   C50       1.0  0.0610722080884898  0.12298557890969872  0.4656670588216016  1.0000
  C   C51       1.0  0.89834496280411  0.10353380480144382  0.44828279436733703  1.0000
  C   C52       1.0  0.8185389335775852  0.10932169355830013  0.389558327827487  1.0000
  C   C53       1.0  0.2933157839821945  0.1415246101050229  0.5445052698992114  1.0000
  C   C54       1.0  0.7750642081784633  0.10702195509546902  0.6052828760774176  1.0000
  C   C55       1.0  0.9213019979327227  0.11955511675579093  0.6457097746728806  1.0000
  C   C56       1.0  0.929582121022193  0.08277568088714563  0.6982050091614623  1.0000
  C   C57       1.0  0.7937242571870229  0.0349892386987207  0.7103219109601113  1.0000
  C   C58       1.0  0.6486536552498877  0.02283236986768601  0.6689297115068484  1.0000
  C   C59       1.0  0.6382649780919039  0.05845062357068542  0.6157898123470957  1.0000
  C   C60       1.0  0.8012711476417564  0.994250771173704  0.7664723228038213  1.0000
  C   C61       1.0  0.7894600319927464  0.2574897009609743  0.1333543813719444  1.0000
  C   C62       1.0  0.8327227091033366  0.35258429282112763  0.12445132402694269  1.0000
  C   C63       1.0  0.9575744236237395  0.380226545060232  0.09887496681483295  1.0000
  C   C64       1.0  0.001372778461878021  0.46840175394517314  0.09110581705706268  1.0000
  C   C65       1.0  0.9195921734183726  0.5290753224277369  0.11001852821232917  1.0000
  C   C66       1.0  0.7943677892411857  0.5031896499191505  0.13586839456428376  1.0000
  C   C67       1.0  0.7510303278450438  0.4143254106777265  0.14268218010328582  1.0000
  C   C68       1.0  0.7694494947524079  0.6850412246577948  0.0204944533562923  1.0000
  C   C69       1.0  0.8301163097237988  0.7557928972268968  0.9954770077159196  1.0000
  C   C70       1.0  0.7396513266619495  0.8100780688108603  0.9763620049774389  1.0000
  C   C71       1.0  0.5908435269261147  0.7940624724656973  0.9855016112104521  1.0000
  C   C72       1.0  0.5317408115201799  0.7252485732308502  0.012709357877326998  1.0000
  C   C73       1.0  0.6200499044175204  0.6689544130497256  0.0303661001257112  1.0000
  C   C74       1.0  0.7940694942930053  0.8763484218342444  0.940464378192246  1.0000
  C   C75       1.0  0.4189581102570942  0.5810490820012578  0.06480175465388528  1.0000
  C   C76       1.0  0.2954871003160591  0.2729598451984998  0.2231820312935326  1.0000
  C   C77       1.0  0.2568046865257969  0.3603711910544051  0.2394654914525631  1.0000
  C   C78       1.0  0.34082461149149873  0.43839960345616213  0.2256696510831873  1.0000
  C   C79       1.0  0.2962718563366593  0.5175182996831681  0.23592261048301566  1.0000
  C   C80       1.0  0.17130868466392715  0.5239145659813078  0.26267402934245604  1.0000
  C   C81       1.0  0.09045778384984259  0.4460827561882113  0.2780539775603046  1.0000
  C   C82       1.0  0.13135268325940788  0.36516188509832403  0.2653826013885805  1.0000
  C   C83       1.0  0.014812750596902931  0.6136550340957784  0.2995649476643152  1.0000
  C   C84       1.0  0.5619399980056629  0.7483896801483996  0.22908604573046884  1.0000
  C   C85       1.0  0.6889637144685564  0.7657871696001025  0.20351188532975328  1.0000
  C   C86       1.0  0.7089897694630166  0.8340342282348915  0.17163563946139954  1.0000
  C   C87       1.0  0.6024351398478701  0.8835002733748213  0.16570985039813016  1.0000
  C   C88       1.0  0.4753060663894005  0.8647202536338984  0.191744024188047  1.0000
  C   C89       1.0  0.4541442087925205  0.7970266273914037  0.22391529942787966  1.0000
  C   C90       1.0  0.6276928824633289  0.9594189835302062  0.13371979911736528  1.0000
  S   S1        1.0  0.23617388594357894  0.8470598530462753  0.46189390802070557  1.0000
  S   S2        1.0  0.021800034091143113  0.3585906848585554  0.8995758611338757  1.0000
  S   S3        1.0  0.46246712624821373  0.33877436636304037  0.7311353587911853  1.0000
  S   S4        1.0  0.7638335437855588  0.1529468232818303  0.5381089447577594  1.0000
  S   S5        1.0  0.9781909603944146  0.6414076239110929  0.10042247829112938  1.0000
  S   S6        1.0  0.5375345916480754  0.6612212121563417  0.26886438198584267  1.0000
  O   O1        1.0  0.12252471130490515  0.8672968667591335  0.7653413390498968  1.0000
  O   O2        1.0  0.32525765353548763  0.8587352209786379  0.7258240470056022  1.0000
  O   O3        1.0  0.8727465840963974  0.8807399253701154  0.474578039255583  1.0000
  O   O4        1.0  0.18234978937474028  0.9249463438815798  0.5084316450388826  1.0000
  O   O5        1.0  0.1203012362765961  0.7583636788734297  0.4453050792261877  1.0000
  O   O6        1.0  0.3955648182668483  0.8589363042025867  0.49278726874527473  1.0000
  O   O7        1.0  0.06674192641717981  0.9973639082556788  0.1974072918482505  1.0000
  O   O8        1.0  0.327492359957887  0.04719565960950692  0.2256747741123917  1.0000
  O   O9        1.0  0.12667289132926376  0.793170045060741  0.8806570593074524  1.0000
  O   O10       1.0  0.3286047574326005  0.7670556788543339  0.8459940500571577  1.0000
  O   O11       1.0  0.8726775820048829  0.3415741337032827  0.9125389482965358  1.0000
  O   O12       1.0  0.04963736905795458  0.2915353519415548  0.8499064275457897  1.0000
  O   O13       1.0  0.14972389895481797  0.37788744636414157  0.9697833362238485  1.0000
  O   O14       1.0  0.4641627158433011  0.9925076029221815  0.8666752106823026  1.0000
  O   O15       1.0  0.2568232503891679  0.025964594919130907  0.890312392199384  1.0000
  O   O16       1.0  0.06470109167778298  0.10156100757604493  0.06121943658509818  1.0000
  O   O17       1.0  0.30655380193876175  0.09456313623385171  0.0905939506438145  1.0000
  O   O18       1.0  0.3454009106165472  0.38406396629625317  0.7358163684381225  1.0000
  O   O19       1.0  0.6277164752910166  0.40721637936974275  0.7831640104656186  1.0000
  O   O20       1.0  0.5685664395953651  0.7258965653812838  0.7808577819942853  1.0000
  O   O21       1.0  0.42707265474397366  0.40027139515697757  0.9434882206186826  1.0000
  O   O22       1.0  0.8125344785396679  0.8029731490271677  0.7878382029663342  1.0000
  O   O23       1.0  0.8620733169576057  0.395708281039454  0.7298580167204065  1.0000
  O   O24       1.0  0.4894791003054877  0.3063851887458712  0.6686859862886861  1.0000
  O   O25       1.0  0.8774699698609396  0.13270216422873204  0.23465879685024046  1.0000
  O   O26       1.0  0.6747461600203195  0.14126869515605733  0.2741789889235875  1.0000
  O   O27       1.0  0.12726489456673556  0.11926605995532923  0.5254245918556322  1.0000
  O   O28       1.0  0.8176532772319476  0.07505826261956372  0.4915714342542685  1.0000
  O   O29       1.0  0.8797043496164038  0.24164157962715652  0.5546955679943082  1.0000
  O   O30       1.0  0.6044371309951232  0.14106828490292145  0.5072147979867552  1.0000
  O   O31       1.0  0.9332590302302037  0.0026323455378402996  0.8025915734394076  1.0000
  O   O32       1.0  0.6725063415423805  0.9528026501910463  0.7743233024138263  1.0000
  O   O33       1.0  0.8733386506909258  0.2068338947433476  0.11934709200295401  1.0000
  O   O34       1.0  0.6714024899881184  0.23293992627397136  0.15400707811216557  1.0000
  O   O35       1.0  0.12731598896613863  0.6584248874351035  0.0874606344691387  1.0000
  O   O36       1.0  0.9503584080029202  0.7084636738034719  0.15009334263547197  1.0000
  O   O37       1.0  0.850266055842873  0.622108814580834  0.0302164296925511  1.0000
  O   O38       1.0  0.5358440569093688  0.007493521562032901  0.13332581408436536  1.0000
  O   O39       1.0  0.7431774125274659  0.9740268072464392  0.10968524157489414  1.0000
  O   O40       1.0  0.9352983925210695  0.8984366495888738  0.9387808937104863  1.0000
  O   O41       1.0  0.6934456536605111  0.9054344907464158  0.9094045419451077  1.0000
  O   O42       1.0  0.6545985807321912  0.6159336984148214  0.2641844212841278  1.0000
  O   O43       1.0  0.37228330164658974  0.592784015986304  0.21683493670253276  1.0000
  O   O44       1.0  0.43142911523369776  0.2740976841974146  0.2191453509402663  1.0000
  O   O45       1.0  0.5729198070242205  0.5997297295687505  0.05651342365334946  1.0000
  O   O46       1.0  0.18745572093150997  0.19703002415943166  0.21216219311758513  1.0000
  O   O47       1.0  0.1379286180045868  0.6042962929737217  0.2701431311582922  1.0000
  O   O48       1.0  0.5105174656118693  0.6936110784728559  0.33131388244780874  1.0000
