data_image0
_chemical_formula_structural       Hg4H24C12N8Cl8
_chemical_formula_sum              "Hg4 H24 C12 N8 Cl8"
_cell_length_a       6.624485740259601
_cell_length_b       6.624709322989373
_cell_length_c       16.02627457042069
_cell_angle_alpha    97.69195656668263
_cell_angle_beta     97.69102680939251
_cell_angle_gamma    110.67554877371944

_space_group_name_H-M_alt    "P 1"
_space_group_IT_number       1

loop_
  _space_group_symop_operation_xyz
  'x, y, z'

loop_
  _atom_site_type_symbol
  _atom_site_label
  _atom_site_symmetry_multiplicity
  _atom_site_fract_x
  _atom_site_fract_y
  _atom_site_fract_z
  _atom_site_occupancy
  Hg  Hg1       1.0  0.7086995201871531  0.4582279850593308  0.9168910338438605  1.0000
  Hg  Hg2       1.0  0.04177305296371259  0.7913051476486999  0.5831056794624485  1.0000
  Hg  Hg3       1.0  0.29131461782212403  0.5417787138415379  0.08310963039292567  1.0000
  Hg  Hg4       1.0  0.958231676431943  0.20870485397799854  0.4168952800603661  1.0000
  H   H1        1.0  0.0141402823406196  0.1477512482879177  0.7910493502022289  1.0000
  H   H2        1.0  0.8574294737138075  0.22260369624081727  0.7090406524810857  1.0000
  H   H3        1.0  0.35216470190779603  0.48585071621594983  0.7089428207031784  1.0000
  H   H4        1.0  0.2773325295206419  0.6425930315585121  0.7909568179419393  1.0000
  H   H5        1.0  0.7226598058682969  0.35741217174687995  0.20905257581951273  1.0000
  H   H6        1.0  0.6478195691219854  0.514149447411981  0.29105837970360676  1.0000
  H   H7        1.0  0.14256839688574977  0.7773881918034177  0.29095771456901787  1.0000
  H   H8        1.0  0.9858623110377709  0.8522290589023457  0.20894427966490528  1.0000
  H   H9        1.0  0.34935320636011374  0.0242151233199621  0.7908802745822638  1.0000
  H   H10       1.0  0.7337285971593135  0.5578776098506282  0.7090957829245423  1.0000
  H   H11       1.0  0.4758168385574565  0.1506441483591701  0.7091108321356926  1.0000
  H   H12       1.0  0.9420808194583615  0.7662286250987973  0.7908978970427538  1.0000
  H   H13       1.0  0.057917359752849486  0.23377632744199417  0.20909432614757856  1.0000
  H   H14       1.0  0.524194891623644  0.8493560501669962  0.29089496838602696  1.0000
  H   H15       1.0  0.26626885978330256  0.4421092713979391  0.2908973003792354  1.0000
  H   H16       1.0  0.6506613910483524  0.9758047910451069  0.20912486984547474  1.0000
  H   H17       1.0  0.5584141487324389  0.924622074725143  0.9002295102172081  1.0000
  H   H18       1.0  0.5247933061085135  0.6577082995620456  0.5997458213471984  1.0000
  H   H19       1.0  0.5753683024233355  0.9415549875302531  0.5997676890669508  1.0000
  H   H20       1.0  0.8422814778924278  0.9751664222560096  0.9002554195677488  1.0000
  H   H21       1.0  0.1577310012384885  0.024823815433528292  0.09974364509263008  1.0000
  H   H22       1.0  0.4246184119140395  0.058451711994187895  0.4002308748315427  1.0000
  H   H23       1.0  0.4751947851051313  0.34230182331850756  0.4002623608199513  1.0000
  H   H24       1.0  0.44159111996277306  0.0753731635196075  0.09977380341362617  1.0000
  C   C1        1.0  0.8518768639891193  0.10129644155191639  0.7500354502714754  1.0000
  C   C2        1.0  0.3986951101192844  0.648125571855175  0.7499696442499155  1.0000
  C   C3        1.0  0.6013172242363254  0.3518762539847771  0.2500350284366134  1.0000
  C   C4        1.0  0.14812860409351472  0.8986954260914147  0.24996207672200643  1.0000
  C   C5        1.0  0.4706361812008596  0.0293248586548529  0.7499821130470392  1.0000
  C   C6        1.0  0.7798232501252899  0.720085623434798  0.7500125578273324  1.0000
  C   C7        1.0  0.2201604050741679  0.2798965754663172  0.24999700202283037  1.0000
  C   C8        1.0  0.5293496852969712  0.9706554809847746  0.2500124900228328  1.0000
  C   C9        1.0  0.6799388263425428  0.929413934665021  0.8594252126312223  1.0000
  C   C10       1.0  0.5705958682763851  0.8200483770420134  0.6405622553014536  1.0000
  C   C11       1.0  0.32006497531320127  0.07059768592301198  0.14057391214590348  1.0000
  C   C12       1.0  0.42939189944351613  0.17993693334347682  0.35943521370443676  1.0000
  N   N1        1.0  0.6887885479599378  0.09599397946115569  0.8055514883614375  1.0000
  N   N2        1.0  0.7909479697781452  0.8827328717476137  0.6944899018049638  1.0000
  N   N3        1.0  0.4039747932443872  0.8111966412119072  0.6944284400174252  1.0000
  N   N4        1.0  0.6172822456122518  0.7090528038417148  0.8055072427946254  1.0000
  N   N5        1.0  0.3827214939545058  0.2909587545831727  0.19448750737337406  1.0000
  N   N6        1.0  0.5960245457876141  0.1887870287553355  0.3055701876102218  1.0000
  N   N7        1.0  0.20905324525934085  0.11726390659043769  0.30550578865005207  1.0000
  N   N8        1.0  0.3112130998671816  0.9040159876997435  0.19444680745205997  1.0000
  Cl  Cl1       1.0  0.338450759722818  0.2435634092964989  0.928949414743563  1.0000
  Cl  Cl2       1.0  0.8145274162696412  0.4089877690673092  0.5709617147796209  1.0000
  Cl  Cl3       1.0  0.2564296059954003  0.1615486344068628  0.5710488388478436  1.0000
  Cl  Cl4       1.0  0.09100768582035813  0.6854856163410048  0.9290413239310593  1.0000
  Cl  Cl5       1.0  0.9089964940129107  0.3145309755208956  0.07096058481574367  1.0000
  Cl  Cl6       1.0  0.743574807311731  0.8384564581091212  0.4289537113144134  1.0000
  Cl  Cl7       1.0  0.1854717350307595  0.5910156089143898  0.429035467877206  1.0000
  Cl  Cl8       1.0  0.6615536372375816  0.7564498297248788  0.07104795725420128  1.0000
