data_image0
_chemical_formula_structural       Zn2H12C14N2O14
_chemical_formula_sum              "Zn2 H12 C14 N2 O14"
_cell_length_a       10.233957445835355
_cell_length_b       11.409767389274945
_cell_length_c       11.410258966856034
_cell_angle_alpha    78.9697165575362
_cell_angle_beta     81.85315204547045
_cell_angle_gamma    81.84049779341629

_space_group_name_H-M_alt    "P 1"
_space_group_IT_number       1

loop_
  _space_group_symop_operation_xyz
  'x, y, z'

loop_
  _atom_site_type_symbol
  _atom_site_label
  _atom_site_symmetry_multiplicity
  _atom_site_fract_x
  _atom_site_fract_y
  _atom_site_fract_z
  _atom_site_occupancy
  Zn  Zn1       1.0  0.6306414278696054  0.5106054285556424  0.5105610649717036  1.0000
  Zn  Zn2       1.0  0.3587753672637746  0.5150368275917357  0.5149741454885728  1.0000
  H   H1        1.0  0.6640953396849981  0.10990813211822108  0.5165529616976201  1.0000
  H   H2        1.0  0.05661922440452122  0.5882537062119936  0.5881350477613623  1.0000
  H   H3        1.0  0.9320442392793287  0.43653159222532156  0.43637603114551377  1.0000
  H   H4        1.0  0.7191889663626017  0.6425192272580417  0.6431085412325928  1.0000
  H   H5        1.0  0.27143693279035125  0.38283483482800307  0.38337960461459625  1.0000
  H   H6        1.0  0.28753232793742006  0.03714501731944608  0.5946355467062644  1.0000
  H   H7        1.0  0.6549205740021834  0.9524778916524279  0.6284431629511574  1.0000
  H   H8        1.0  0.6549152755429832  0.6284505270048442  0.9525241913735198  1.0000
  H   H9        1.0  0.33330077412216513  0.9221670596528211  0.4792528362416774  1.0000
  H   H10       1.0  0.2875068098880292  0.594626307617183  0.0370663664733257  1.0000
  H   H11       1.0  0.3333920227275584  0.4792181862231144  0.9221045495634214  1.0000
  H   H12       1.0  0.6640939061975147  0.5165972415938002  0.1098850490194323  1.0000
  C   C1        1.0  0.44882256095478823  0.5060811406471399  0.7461575097429717  1.0000
  C   C2        1.0  0.9329141794486875  0.4982162790182513  0.49815515476954886  1.0000
  C   C3        1.0  0.05623682693381947  0.5264613711345304  0.5263984041061747  1.0000
  C   C4        1.0  0.42456333191706386  0.8753632322832275  0.5129529403255971  1.0000
  C   C5        1.0  0.5606957648048052  0.14699315064127916  0.5352355351639274  1.0000
  C   C6        1.0  0.560701493133884  0.5353225447991504  0.14696762993362708  1.0000
  C   C7        1.0  0.4246327389590549  0.5129414955458811  0.8753252118866823  1.0000
  C   C8        1.0  0.5388498464489048  0.530017147838123  0.27826719431471497  1.0000
  C   C9        1.0  0.5045103196136653  0.9403523646383647  0.5535236993390811  1.0000
  C   C10       1.0  0.4661984822691779  0.07063901484203679  0.5537702773199129  1.0000
  C   C11       1.0  0.466201737241299  0.553835452756516  0.07059898020649766  1.0000
  C   C12       1.0  0.5045368766213728  0.5535416074395414  0.940333677567871  1.0000
  C   C13       1.0  0.5388170759565654  0.2783097830862075  0.5299095826155309  1.0000
  C   C14       1.0  0.44875373498403803  0.7461836554837402  0.5060799717923103  1.0000
  N   N1        1.0  0.17295858471632647  0.48296196714039735  0.4829984382226228  1.0000
  N   N2        1.0  0.8165306288631273  0.5421335765937199  0.5422189389027422  1.0000
  O   O1        1.0  0.5672367175471039  0.5064523692942868  0.6936556218381256  1.0000
  O   O2        1.0  0.6432778386522531  0.5293978300069354  0.3286644435306201  1.0000
  O   O3        1.0  0.6431811379551533  0.3286848947204461  0.5295331946705559  1.0000
  O   O4        1.0  0.3456155112844712  0.6971876696811065  0.4991658097294333  1.0000
  O   O5        1.0  0.34577717616285514  0.49887221260953396  0.6971826610402515  1.0000
  O   O6        1.0  0.8148753239958213  0.6198841155577595  0.6201368129887825  1.0000
  O   O7        1.0  0.17557923827283167  0.4048640178293752  0.4049754426401789  1.0000
  O   O8        1.0  0.42120706275364483  0.5249570224768616  0.33207129742891794  1.0000
  O   O9        1.0  0.334204944068084  0.10854651951613897  0.5693920832642546  1.0000
  O   O10       1.0  0.6229598567197885  0.8918365010067927  0.5930817839397377  1.0000
  O   O11       1.0  0.6229896987839184  0.5930814979068157  0.891868185270219  1.0000
  O   O12       1.0  0.3342067294617551  0.5694743308167459  0.10846581157414896  1.0000
  O   O13       1.0  0.42119506490284675  0.3321576422210554  0.5245957472660763  1.0000
  O   O14       1.0  0.567202775643338  0.6937225312137942  0.5061643845683577  1.0000
