data_image0
_chemical_formula_structural       Cd4H48C56N8O16
_chemical_formula_sum              "Cd4 H48 C56 N8 O16"
_cell_length_a       9.837359678
_cell_length_b       9.78382452440999
_cell_length_c       15.874
_cell_angle_alpha    90.0
_cell_angle_beta     90.0
_cell_angle_gamma    106.20560003868255

_space_group_name_H-M_alt    "P 1"
_space_group_IT_number       1

loop_
  _space_group_symop_operation_xyz
  'x, y, z'

loop_
  _atom_site_type_symbol
  _atom_site_label
  _atom_site_symmetry_multiplicity
  _atom_site_fract_x
  _atom_site_fract_y
  _atom_site_fract_z
  _atom_site_occupancy
  Cd  Cd1       1.0  0.4155615885323202  0.5844453823404976  0.4082543782285484  1.0000
  Cd  Cd2       1.0  0.08444058301449082  0.9155559887497587  0.9082543782285482  1.0000
  Cd  Cd3       1.0  0.915560350702073  0.0844442157190102  0.09174562177145157  1.0000
  Cd  Cd4       1.0  0.5844390497463863  0.4155537577411579  0.5917462517323955  1.0000
  H   H1        1.0  0.5398226019439889  0.8688347165784123  0.5220492629456996  1.0000
  H   H2        1.0  0.9601791766779756  0.6311687832860642  0.022048003023812192  1.0000
  H   H3        1.0  0.6317192773678572  0.9611287872299529  0.9776722943177487  1.0000
  H   H4        1.0  0.8682823360355983  0.5388704550860837  0.4776729242786927  1.0000
  H   H5        1.0  0.4601796437433593  0.1311665522774632  0.4779507370543001  1.0000
  H   H6        1.0  0.0398210359435254  0.3688324855698113  0.9779507370542999  1.0000
  H   H7        1.0  0.3682836894145609  0.0388714172388092  0.022327075721307193  1.0000
  H   H8        1.0  0.1317162691772609  0.4611286849955718  0.5223283356431878  1.0000
  H   H9        1.0  0.7408504863977612  0.0883505164108627  0.5265673428247482  1.0000
  H   H10       1.0  0.7591514077729187  0.4116527789848519  0.026567342824748194  1.0000
  H   H11       1.0  0.41244548254951513  0.7598244463722281  0.9735000629960948  1.0000
  H   H12       1.0  0.08755508158865415  0.7401747959438083  0.4735000629960949  1.0000
  H   H13       1.0  0.2591497262237397  0.9116507524450128  0.4734313972533711  1.0000
  H   H14       1.0  0.2408491002864395  0.5883495542581301  0.9734320272143149  1.0000
  H   H15       1.0  0.5875567631378332  0.2401768224836474  0.026498047121080493  1.0000
  H   H16       1.0  0.9124442447192678  0.2598232797507336  0.5264986770820244  1.0000
  H   H17       1.0  0.91179232006607  0.9243552769839597  0.3086474738566238  1.0000
  H   H18       1.0  0.5882072602715313  0.5756439653320768  0.8086462139347359  1.0000
  H   H19       1.0  0.5749991019104499  0.5875342337322564  0.19145143001134093  1.0000
  H   H20       1.0  0.924999461894231  0.91246500858378  0.6914514300113408  1.0000
  H   H21       1.0  0.0882070062418521  0.0756427987105823  0.6913531561043198  1.0000
  H   H22       1.0  0.4117919358170496  0.4243573035237986  0.19135315610431994  1.0000
  H   H23       1.0  0.42499848676948204  0.412464906349399  0.8085479400277149  1.0000
  H   H24       1.0  0.075001767260197  0.0875362602720955  0.3085479400277151  1.0000
  H   H25       1.0  0.7054719919481303  0.7108253857865563  0.3171664356809884  1.0000
  H   H26       1.0  0.7945278838273352  0.7891749209165866  0.8171651757591005  1.0000
  H   H27       1.0  0.7882237478106618  0.7939593409737782  0.18257276048885265  1.0000
  H   H28       1.0  0.7117755370890819  0.7060388369551518  0.6825727604888525  1.0000
  H   H29       1.0  0.2945293674256391  0.2891726899079856  0.6828341942799552  1.0000
  H   H30       1.0  0.20547029572831838  0.2108263479392818  0.18283419427995534  1.0000
  H   H31       1.0  0.2117761693729818  0.2060408634949908  0.817427239511147  1.0000
  H   H32       1.0  0.2882256920653391  0.2939624319007237  0.3174284994330349  1.0000
  H   H33       1.0  0.0713141673194215  0.780907826237133  0.2949829910545532  1.0000
  H   H34       1.0  0.42868508484796314  0.719090351691797  0.7949836210154968  1.0000
  H   H35       1.0  0.7189694264516931  0.42932905571225893  0.20501826886732735  1.0000
  H   H36       1.0  0.7810305648724878  0.0706710465221221  0.7050182688673274  1.0000
  H   H37       1.0  0.9286851589885005  0.21909024945741612  0.7050176389063905  1.0000
  H   H38       1.0  0.5713158488686078  0.2809098527769649  0.2050170089454468  1.0000
  H   H39       1.0  0.2810312118270133  0.5706700843693966  0.7949823610936091  1.0000
  H   H40       1.0  0.21896905687329857  0.9293280935595335  0.2949823610936093  1.0000
  H   H41       1.0  0.14661893343583904  0.7055705066269766  0.1526256772080146  1.0000
  H   H42       1.0  0.3533816307023301  0.7944287356890598  0.6526263071689582  1.0000
  H   H43       1.0  0.7938227248445247  0.3535627880969727  0.3473888118936656  1.0000
  H   H44       1.0  0.7061772664796565  0.1464373141374082  0.8473888118936654  1.0000
  H   H45       1.0  0.8533806883099473  0.2944286334546788  0.8473743227919854  1.0000
  H   H46       1.0  0.6466190075763764  0.2055704043925886  0.34737432279198527  1.0000
  H   H47       1.0  0.20617820887203922  0.6464374163717892  0.652612448028222  1.0000
  H   H48       1.0  0.29382205982826554  0.8535607615571337  0.15261181806727814  1.0000
  C   C1        1.0  0.6261078997219159  0.8854870529064841  0.4765723825122875  1.0000
  C   C2        1.0  0.8738912549584796  0.6145143181837724  0.9765717525513435  1.0000
  C   C3        1.0  0.6148450547702212  0.8744610668392099  0.02322036033766039  1.0000
  C   C4        1.0  0.8851542301295227  0.6255371110897201  0.523220990298604  1.0000
  C   C5        1.0  0.3738920174617277  0.11451315156228502  0.5234276174877122  1.0000
  C   C6        1.0  0.12610692459717404  0.385486950672103  0.023427617487712393  1.0000
  C   C7        1.0  0.3851555835084852  0.1255380732424456  0.9767783797404588  1.0000
  C   C8        1.0  0.11484568705412103  0.3744630933790489  0.4767796396623395  1.0000
  C   C9        1.0  0.739682138202781  0.0079286195786423  0.47856809877787737  1.0000
  C   C10       1.0  0.7603177229020588  0.4920746758170722  0.9785680987778773  1.0000
  C   C11       1.0  0.49254907573003254  0.7608600950297628  0.0214022930578324  1.0000
  C   C12       1.0  0.007451783845994002  0.7391402116733801  0.5214016630968883  1.0000
  C   C13       1.0  0.2603180744187199  0.9920726492772333  0.5214319012221222  1.0000
  C   C14       1.0  0.23968075209145923  0.5079276574259097  0.0214312712611786  1.0000
  C   C15       1.0  0.5074531699573158  0.23914117382610564  0.9785970769812236  1.0000
  C   C16       1.0  0.9925481333376496  0.2608599927953819  0.47859770694216747  1.0000
  C   C17       1.0  0.848621836167915  0.0256208621126888  0.41864243416907937  1.0000
  C   C18       1.0  0.6513797625649077  0.4743813688959122  0.9186418042081355  1.0000
  C   C19       1.0  0.4744406908818348  0.6514198124313424  0.0813777245810741  1.0000
  C   C20       1.0  0.025558135628344324  0.8485804942718005  0.5813783545420177  1.0000
  C   C21       1.0  0.15138040951943307  0.9743804067431866  0.5813575658309202  1.0000
  C   C22       1.0  0.3486201546187361  0.5256188355728497  0.08135819579186428  1.0000
  C   C23       1.0  0.5255585052067389  0.3485814564245331  0.9186203855360942  1.0000
  C   C24       1.0  0.9744417815552994  0.1514197101969614  0.41862101549703806  1.0000
  C   C25       1.0  0.8345234428211514  0.9168981808948331  0.3587684263575638  1.0000
  C   C26       1.0  0.6654764329543142  0.5831021258083169  0.8587671664356833  1.0000
  C   C27       1.0  0.5826262657761063  0.6650620620137602  0.14121582461887525  1.0000
  C   C28       1.0  0.9173743310944221  0.8349371803022763  0.6412151946579312  1.0000
  C   C29       1.0  0.1654769000196978  0.0830998947997159  0.641230943681492  1.0000
  C   C30       1.0  0.3345217466013395  0.4168991430475586  0.1412315736424361  1.0000
  C   C31       1.0  0.4173736514075302  0.3349381424550089  0.8587841753811245  1.0000
  C   C32       1.0  0.0826279145929334  0.1650640885535921  0.3587841753811246  1.0000
  C   C33       1.0  0.7184142131941726  0.7977602673417864  0.3621034395867467  1.0000
  C   C34       1.0  0.7815859580191499  0.7022411037484702  0.8621015497039153  1.0000
  C   C35       1.0  0.7016589552272168  0.7812441725637314  0.13769749275545  1.0000
  C   C36       1.0  0.7983406251103845  0.7187550697523051  0.63769749275545  1.0000
  C   C37       1.0  0.2815864250845337  0.2022388727398692  0.6378971903741968  1.0000
  C   C38       1.0  0.21841353350728812  0.2977612294945118  0.1378978203351409  1.0000
  C   C39       1.0  0.29833964998564266  0.21875496751792411  0.8623025072445498  1.0000
  C   C40       1.0  0.20166060404404362  0.2812461991035704  0.36230250724455  1.0000
  C   C41       1.0  0.266495105513883  0.7334095514758516  0.3159890386796036  1.0000
  C   C42       1.0  0.2335041466535017  0.7665886264530712  0.8159896686405472  1.0000
  C   C43       1.0  0.7664954750922846  0.23341051362857707  0.18401159128134023  1.0000
  C   C44       1.0  0.733504220794039  0.2665885242186903  0.6840109613203962  1.0000
  C   C45       1.0  0.18091492442130172  0.8191320961133641  0.2719320902104059  1.0000
  C   C46       1.0  0.3190843277460829  0.6808660818155587  0.7719320902104057  1.0000
  C   C47       1.0  0.6809152939997034  0.3191330582660896  0.2280679097895941  1.0000
  C   C48       1.0  0.8190846973244774  0.18086704396829134  0.7280685397505378  1.0000
  C   C49       1.0  0.1845738337662155  0.8154163207141139  0.17627315106463465  1.0000
  C   C50       1.0  0.31542571383902646  0.6845829216019226  0.6762737810255783  1.0000
  C   C51       1.0  0.6845752198775372  0.3154172828668393  0.3237268489353652  1.0000
  C   C52       1.0  0.8154247714466436  0.1845828193675416  0.8237268489353651  1.0000
  C   C53       1.0  0.09714147245277624  0.9028269833072855  0.135373566838858  1.0000
  C   C54       1.0  0.40285909168539297  0.5971722590087509  0.635373566838858  1.0000
  C   C55       1.0  0.5971415465933134  0.4028268810729045  0.364626433161142  1.0000
  C   C56       1.0  0.9028584447308675  0.0971732211614764  0.8646264331611417  1.0000
  N   N1        1.0  0.6151732682394666  0.7808556712687675  0.4198910167569636  1.0000
  N   N2        1.0  0.8848261818787932  0.7191467642086025  0.9198897568350757  1.0000
  N   N3        1.0  0.7189800143115335  0.884914412641571  0.07979778253748288  1.0000
  N   N4        1.0  0.7810192705882102  0.615083765287352  0.5797977825374829  1.0000
  N   N5        1.0  0.3848263535063127  0.21914346881288793  0.58010961320398  1.0000
  N   N6        1.0  0.1151722931147248  0.2808555690343795  0.08010961320398018  1.0000
  N   N7        1.0  0.2810209194050302  0.11508579182719102  0.9202022174625171  1.0000
  N   N8        1.0  0.21897992550036352  0.3849175035685164  0.4202028474234608  1.0000
  O   O1        1.0  0.26503186830201747  0.7348911783322691  0.3970681617739729  1.0000
  O   O2        1.0  0.23496767930322454  0.7651080639837673  0.8970681617739726  1.0000
  O   O3        1.0  0.7650319424425547  0.23489107609788823  0.10293183822602707  1.0000
  O   O4        1.0  0.7349671625680472  0.2651058329751663  0.602932468186971  1.0000
  O   O5        1.0  0.3349310933910772  0.6650450318200072  0.2738723699130644  1.0000
  O   O6        1.0  0.16506947074709194  0.8349542104960292  0.7738723699130645  1.0000
  O   O7        1.0  0.8349311675316146  0.1650449295856262  0.22612763008693545  1.0000
  O   O8        1.0  0.6650695448876293  0.3349541082616483  0.7261282600478791  1.0000
  O   O9        1.0  0.03137729922369202  0.9683325591870257  0.1833986392843627  1.0000
  O   O10       1.0  0.4686235603523343  0.5316677475161171  0.6833980093234187  1.0000
  O   O11       1.0  0.5313763568313022  0.4683324569526448  0.316601990676581  1.0000
  O   O12       1.0  0.9686236344928787  0.0316676452817362  0.8166019906765811  1.0000
  O   O13       1.0  0.09163221984530881  0.9083437016958058  0.05586115660828739  1.0000
  O   O14       1.0  0.4083686397307176  0.5916566050073371  0.5558617865692312  1.0000
  O   O15       1.0  0.5916322939858462  0.4083435994614248  0.4441388433917125  1.0000
  O   O16       1.0  0.908368713871262  0.0916565027729561  0.9441388433917124  1.0000
