data_image0
_chemical_formula_structural       Cu4H38C62S2N8Cl2O12
_chemical_formula_sum              "Cu4 H38 C62 S2 N8 Cl2 O12"
_cell_length_a       10.325261442574051
_cell_length_b       13.191458995725185
_cell_length_c       13.375716362455512
_cell_angle_alpha    110.75702093335352
_cell_angle_beta     99.1420290041392
_cell_angle_gamma    98.75632780389088

_space_group_name_H-M_alt    "P 1"
_space_group_IT_number       1

loop_
  _space_group_symop_operation_xyz
  'x, y, z'

loop_
  _atom_site_type_symbol
  _atom_site_label
  _atom_site_symmetry_multiplicity
  _atom_site_fract_x
  _atom_site_fract_y
  _atom_site_fract_z
  _atom_site_occupancy
  Cu  Cu1       1.0  0.6211632485812898  0.4602891126652794  0.2911758382001964  1.0000
  Cu  Cu2       1.0  0.3788379081619482  0.5397138814015463  0.7088243611337293  1.0000
  Cu  Cu3       1.0  0.3870849050426272  0.883282176855765  0.9389793776547324  1.0000
  Cu  Cu4       1.0  0.6129142673894207  0.1167133373805171  0.061015694935349495  1.0000
  H   H1        1.0  0.8079213759653852  0.2920230294855628  0.24767245220316889  1.0000
  H   H2        1.0  0.19207768499746444  0.7079757957235062  0.7523267635295314  1.0000
  H   H3        1.0  0.9750243757784958  0.2411581220071355  0.37088634495674466  1.0000
  H   H4        1.0  0.024974902874511314  0.7588415321269933  0.6291139377236804  1.0000
  H   H5        1.0  0.009393381368681697  0.3362615241253835  0.5758910416279974  1.0000
  H   H6        1.0  0.9906102783171065  0.6637398197721325  0.4241088896838436  1.0000
  H   H7        1.0  0.947848260306074  0.47974990924189603  0.7357887594781403  1.0000
  H   H8        1.0  0.05214860595709326  0.5202480678346503  0.26421137790312343  1.0000
  H   H9        1.0  0.8131558763190512  0.6209625747531219  0.8002327810591299  1.0000
  H   H10       1.0  0.1868412160008646  0.37903623775014245  0.19976693134130133  1.0000
  H   H11       1.0  0.638961065081439  0.7302187276114014  0.7516768534982889  1.0000
  H   H12       1.0  0.3610386615017731  0.26978259412533134  0.24832332518474945  1.0000
  H   H13       1.0  0.4943084164059428  0.7637006214402718  0.6058162489262602  1.0000
  H   H14       1.0  0.5056905498209048  0.236301527744871  0.39418412609195747  1.0000
  H   H15       1.0  0.48723615481625865  0.650775350915815  0.405354721969296  1.0000
  H   H16       1.0  0.5127630332840383  0.3492276304452133  0.5946459740323676  1.0000
  H   H17       1.0  0.8215983839054389  0.47076984016230483  0.04554345158485523  1.0000
  H   H18       1.0  0.1784048153002472  0.5292298263801384  0.9544588216172019  1.0000
  H   H19       1.0  0.6997886378011486  0.4064058773858505  0.8490945023702852  1.0000
  H   H20       1.0  0.300213805231472  0.5935946198558143  0.15090722120267236  1.0000
  H   H21       1.0  0.6200097633139166  0.7404001745177597  0.13065988920259752  1.0000
  H   H22       1.0  0.37998664246914154  0.2595961252037142  0.8693425900688755  1.0000
  H   H23       1.0  0.38080101169418856  0.025589050783573004  0.7947049384991091  1.0000
  H   H24       1.0  0.6191988221749226  0.9744089567295616  0.20529184300558964  1.0000
  H   H25       1.0  0.1967868497985066  0.09589050433294231  0.7084873967796812  1.0000
  H   H26       1.0  0.803214085071275  0.9041116575579978  0.2915124815707914  1.0000
  H   H27       1.0  0.9623759999037133  0.043069664287898504  0.7280956263034002  1.0000
  H   H28       1.0  0.03762415787651452  0.956933312048143  0.2719074322393595  1.0000
  H   H29       1.0  0.8032821221449281  0.94435775413276  0.814565769006727  1.0000
  H   H30       1.0  0.19671967200051904  0.05564025958452849  0.18543200775879146  1.0000
  H   H31       1.0  0.7744246271660628  0.838578676675958  0.9303661425521528  1.0000
  H   H32       1.0  0.22557301618665798  0.1614184859554868  0.069630814636831  1.0000
  H   H33       1.0  0.8786840359001145  0.7364517612735071  0.045639703866889605  1.0000
  H   H34       1.0  0.12131590418995587  0.2635503861374744  0.9543622877281452  1.0000
  H   H35       1.0  0.08280817616039829  0.6893045006919536  0.12386707990026484  1.0000
  H   H36       1.0  0.9171927461594858  0.3106976514465103  0.876135036343044  1.0000
  H   H37       1.0  0.30448059929823046  0.7475770432885156  0.07664931040281427  1.0000
  H   H38       1.0  0.6955182356078707  0.2524209464938352  0.9233503303107116  1.0000
  C   C1        1.0  0.8273761848102124  0.3313243163538361  0.3368190970025681  1.0000
  C   C2        1.0  0.1726226668290778  0.6686736864318094  0.6631775598538571  1.0000
  C   C3        1.0  0.9197091945114975  0.30375010851519585  0.40662595449880007  1.0000
  C   C4        1.0  0.08028857597867048  0.6962512102682084  0.5933724829591471  1.0000
  C   C5        1.0  0.9391837180934955  0.35607524809202556  0.5195286389871754  1.0000
  C   C6        1.0  0.06081722095958498  0.6439269170497396  0.4804704933990252  1.0000
  C   C7        1.0  0.867304458207201  0.4384034074282893  0.5626974395578446  1.0000
  C   C8        1.0  0.13269625060583215  0.5615979190359326  0.4373028637734678  1.0000
  C   C9        1.0  0.8789740391508187  0.4988921011158141  0.6777503821666714  1.0000
  C   C10       1.0  0.12102470938587824  0.5011092191442543  0.3222489259038214  1.0000
  C   C11       1.0  0.8055803640595227  0.5775334661227306  0.7127430053390782  1.0000
  C   C12       1.0  0.19441793654696937  0.4224661865347342  0.287256406728801  1.0000
  C   C13       1.0  0.7164674112466898  0.6041385276026432  0.6366003616610103  1.0000
  C   C14       1.0  0.2835323278864195  0.3958628038865585  0.3633975791291989  1.0000
  C   C15       1.0  0.6369848798623606  0.6836845515698401  0.6658105049446451  1.0000
  C   C16       1.0  0.3630158247673662  0.31631677164355654  0.3341905443509391  1.0000
  C   C17       1.0  0.5557882101959349  0.7024938360972186  0.5842242530525612  1.0000
  C   C18       1.0  0.44421347666361294  0.29750749184367464  0.41577692089128965  1.0000
  C   C19       1.0  0.5504797518046445  0.6406430633228197  0.4730862252027067  1.0000
  C   C20       1.0  0.44952119143174224  0.35935910506976393  0.5269121612192225  1.0000
  C   C21       1.0  0.7038683164402071  0.5455349056711468  0.5229557363422118  1.0000
  C   C22       1.0  0.2961316278331623  0.4544672449906528  0.4770455092885514  1.0000
  C   C23       1.0  0.7779604116947141  0.4615471309908799  0.48615039501966356  1.0000
  C   C24       1.0  0.22203977955189907  0.5384558713517507  0.5138466958088871  1.0000
  C   C25       1.0  0.7271758772078272  0.6099569130347646  0.10112688216573668  1.0000
  C   C26       1.0  0.2728229451483699  0.3900410669951171  0.8988749964406185  1.0000
  C   C27       1.0  0.7507433502915289  0.5156419691953147  0.02073579506689778  1.0000
  C   C28       1.0  0.24925637210839105  0.4843593492905995  0.9792651295804123  1.0000
  C   C29       1.0  0.683694385788442  0.479661754343212  0.9121966863097345  1.0000
  C   C30       1.0  0.31630708338094843  0.5203387446726069  0.08780342068639871  1.0000
  C   C31       1.0  0.5882499322564525  0.5350604438469873  0.8768457233046265  1.0000
  C   C32       1.0  0.41175283575221744  0.4649375680961398  0.12315367003770923  1.0000
  C   C33       1.0  0.5701728078755153  0.6334797859907438  0.9588567353687626  1.0000
  C   C34       1.0  0.4298274404574088  0.36651986311841267  0.04114590985275872  1.0000
  C   C35       1.0  0.6385512625779056  0.6674012329668315  0.06930561965689468  1.0000
  C   C36       1.0  0.36144634730842984  0.33259590365802433  0.9306973052463051  1.0000
  C   C37       1.0  0.48494217699506936  0.7038897097924988  0.9322731143927288  1.0000
  C   C38       1.0  0.515060253487647  0.29611077769669686  0.06773084707305804  1.0000
  C   C39       1.0  0.2768597616387396  0.004506040381436099  0.8006927982150672  1.0000
  C   C40       1.0  0.7231405076106795  0.9954936249818334  0.19930611718507432  1.0000
  C   C41       1.0  0.1730961023070208  0.0418527328734299  0.7520201279194298  1.0000
  C   C42       1.0  0.8268996953569214  0.9581485699533516  0.24797955217052708  1.0000
  C   C43       1.0  0.04334468192374169  0.013209537163120899  0.7638534896362545  1.0000
  C   C44       1.0  0.9566542843031056  0.9867926120220147  0.23614688538196307  1.0000
  C   C45       1.0  0.0171333190094032  0.947444752275807  0.8251253213838938  1.0000
  C   C46       1.0  0.9828669586066141  0.052554919589106  0.17487210208769  1.0000
  C   C47       1.0  0.8888487012088431  0.9172306594651971  0.8476866441568234  1.0000
  C   C48       1.0  0.11114894214387047  0.08276650316624061  0.15231031303216014  1.0000
  C   C49       1.0  0.8724036512861415  0.8575484637215283  0.9119493310884794  1.0000
  C   C50       1.0  0.12759475242294369  0.14244787146151344  0.08804742976533224  1.0000
  C   C51       1.0  0.9824114004066544  0.8209604689398019  0.9576869846151655  1.0000
  C   C52       1.0  0.017593357161445097  0.1790375719632422  0.04230818223805242  1.0000
  C   C53       1.0  0.9740485298514868  0.7603568645071165  0.025676771380773313  1.0000
  C   C54       1.0  0.02595196127138878  0.23964363303203837  0.9743224650028143  1.0000
  C   C55       1.0  0.08856796948487755  0.7330956953492986  0.06870432740027609  1.0000
  C   C56       1.0  0.9114347079710895  0.2669056438207278  0.9312954792632981  1.0000
  C   C57       1.0  0.21132030642706917  0.7659394281511213  0.04388189272870594  1.0000
  C   C58       1.0  0.7886811627423284  0.23406107086470473  0.9561182142674273  1.0000
  C   C59       1.0  0.1099123246856307  0.8497835430721351  0.936490253907536  1.0000
  C   C60       1.0  0.8900890215296042  0.1502128030425567  0.06350762685536175  1.0000
  C   C61       1.0  0.12772238604571123  0.9137785350702003  0.8709738376815894  1.0000
  C   C62       1.0  0.8722757052372145  0.086220295163848  0.12902301551000764  1.0000
  S   S1        1.0  0.8158956298467002  0.657454406125737  0.24074963399988292  1.0000
  S   S2        1.0  0.18410461430292457  0.34254523973259404  0.759253757185917  1.0000
  N   N1        1.0  0.757321217507254  0.4071213493658661  0.3759728284415545  1.0000
  N   N2        1.0  0.24268023911224645  0.5928791398974838  0.6240295164474078  1.0000
  N   N3        1.0  0.621671765536952  0.5633454535522091  0.44395097200756356  1.0000
  N   N4        1.0  0.37832773498951167  0.4366550327578126  0.5560496316563006  1.0000
  N   N5        1.0  0.22092350649863585  0.822252539287092  0.9790671275398213  1.0000
  N   N6        1.0  0.7790745680511009  0.17774627794366177  0.020932709508883745  1.0000
  N   N7        1.0  0.254419217749188  0.9418567950804972  0.8581836607124562  1.0000
  N   N8        1.0  0.7455824774769582  0.058144539362047006  0.14181602130284435  1.0000
  Cl  Cl1       1.0  0.559578123076669  0.9359121305280453  0.8685055081113406  1.0000
  Cl  Cl2       1.0  0.4404248866570056  0.06409418396653882  0.13149908366174404  1.0000
  O   O1        1.0  0.8045734207160252  0.555623137102998  0.26560423613793216  1.0000
  O   O2        1.0  0.19542977430635491  0.44437652618861995  0.7343987830284038  1.0000
  O   O3        1.0  0.9571094128739757  0.7019478890461314  0.24461156796605374  1.0000
  O   O4        1.0  0.04288843143570629  0.2980500895070861  0.7553894400277559  1.0000
  O   O5        1.0  0.7502627899571548  0.7399775724429601  0.3056446617773291  1.0000
  O   O6        1.0  0.24973648032925405  0.260022075189525  0.6943571128316466  1.0000
  O   O7        1.0  0.527577244953143  0.4934472477572243  0.7726885752507899  1.0000
  O   O8        1.0  0.4724276104693175  0.506554926542023  0.2273132936213217  1.0000
  O   O9        1.0  0.40418641836357955  0.6746434922794221  0.8383419245499512  1.0000
  O   O10       1.0  0.5958140518428009  0.3253569890056128  0.161661041655016  1.0000
  O   O11       1.0  0.49354075571633865  0.8008637723035577  0.006307780520600661  1.0000
  O   O12       1.0  0.5064616831329828  0.1991367216872817  0.9936946890166284  1.0000
