data_image0
_chemical_formula_structural       Mg2H16C18N4O12
_chemical_formula_sum              "Mg2 H16 C18 N4 O12"
_cell_length_a       7.297288291814965
_cell_length_b       7.429898364136201
_cell_length_c       10.184613902247408
_cell_angle_alpha    68.6108783113984
_cell_angle_beta     86.99074775651846
_cell_angle_gamma    81.72625710085963

_space_group_name_H-M_alt    "P 1"
_space_group_IT_number       1

loop_
  _space_group_symop_operation_xyz
  'x, y, z'

loop_
  _atom_site_type_symbol
  _atom_site_label
  _atom_site_symmetry_multiplicity
  _atom_site_fract_x
  _atom_site_fract_y
  _atom_site_fract_z
  _atom_site_occupancy
  Mg  Mg1       1.0  0.6336657798375357  0.40876795284732037  0.6217993431621308  1.0000
  Mg  Mg2       1.0  0.1337441456892847  0.030499369136030893  0.3781991355792371  1.0000
  H   H1        1.0  0.5856960570366848  0.9078915102882734  0.87688421095514  1.0000
  H   H2        1.0  0.0855523555950697  0.7847397496225315  0.12329313080909543  1.0000
  H   H3        1.0  0.6241683778362416  0.6394060753729394  0.18554520037049832  1.0000
  H   H4        1.0  0.1238182289015981  0.8250893303639945  0.8145247565403153  1.0000
  H   H5        1.0  0.7554017123499719  0.14869459843003346  0.9461044990439331  1.0000
  H   H6        1.0  0.25545590564374265  0.09496286301108371  0.053783082229003285  1.0000
  H   H7        1.0  0.5965947575460647  0.8515705826767858  0.6526343731759495  1.0000
  H   H8        1.0  0.09661745691399659  0.5041187555649388  0.3474558293344785  1.0000
  H   H9        1.0  0.9748348711583079  0.17761472243077484  0.7193321291496417  1.0000
  H   H10       1.0  0.4747976132622756  0.89670071855943  0.280638302471047  1.0000
  H   H11       1.0  0.8673116784739038  0.14369689152641027  0.601121097393566  1.0000
  H   H12       1.0  0.3673299005637532  0.7446474367424188  0.39896130992501344  1.0000
  H   H13       1.0  0.8903141714860467  0.6694193135354072  0.5326358079840502  1.0000
  H   H14       1.0  0.39057304139329574  0.20178918749400043  0.46734515507172597  1.0000
  H   H15       1.0  0.7728625623950549  0.6957093383135345  0.39841917523727227  1.0000
  H   H16       1.0  0.27301337240772483  0.09403484822900776  0.6015313142376186  1.0000
  C   C1        1.0  0.7280362982470624  0.2736980040788595  0.36886136153209037  1.0000
  C   C2        1.0  0.22795880826333106  0.6426783377215912  0.6311217445012787  1.0000
  C   C3        1.0  0.7087434025201418  0.3369431613504689  0.2115481106557695  1.0000
  C   C4        1.0  0.20856023546762253  0.5486617698564873  0.7884266293721679  1.0000
  C   C5        1.0  0.6542258425729343  0.5347899806977453  0.13295410442398747  1.0000
  C   C6        1.0  0.15392436622340708  0.6678679395554783  0.8670647933513321  1.0000
  C   C7        1.0  0.6487963595096532  0.590836558626144  0.9866665824003603  1.0000
  C   C8        1.0  0.14852549539701698  0.5775782437088922  0.013357429542487895  1.0000
  C   C9        1.0  0.6818517212603085  0.4521620620758285  0.9195045071460939  1.0000
  C   C10       1.0  0.1817026040420515  0.37175094715640716  0.0804974258921689  1.0000
  C   C11       1.0  0.7298175645072363  0.2548147430875147  0.9980217384308929  1.0000
  C   C12       1.0  0.22978023016908364  0.25296895992696034  0.0019114661571322184  1.0000
  C   C13       1.0  0.7486644913507661  0.20016190957083083  0.1430433253473353  1.0000
  C   C14       1.0  0.24859430681858902  0.3434016141470407  0.8568975460203915  1.0000
  C   C15       1.0  0.814814751026212  0.9893451499831232  0.22171101780725175  1.0000
  C   C16       1.0  0.31476852308646397  0.2112348427699048  0.7782053148237151  1.0000
  C   C17       1.0  0.6227260929087279  0.7345156637737417  0.7541795274814617  1.0000
  C   C18       1.0  0.12262291321673763  0.4886594910422986  0.24586661905311755  1.0000
  N   N1        1.0  0.662042301819092  0.5457608939949097  0.7749380122217246  1.0000
  N   N2        1.0  0.16199016755857085  0.3207001668448016  0.22506744589950498  1.0000
  N   N3        1.0  0.6132905392502367  0.7693240859605551  0.8764536505574086  1.0000
  N   N4        1.0  0.11308652411337047  0.6457585912272423  0.12363315024314397  1.0000
  O   O1        1.0  0.9861935033921371  0.9381450866812034  0.2508256034843797  1.0000
  O   O2        1.0  0.48616913910598925  0.18903858228942022  0.7491697786554852  1.0000
  O   O3        1.0  0.6990695347369495  0.8682769958920036  0.24956654114621563  1.0000
  O   O4        1.0  0.1990100013133825  0.11810630988885859  0.7502951862309075  1.0000
  O   O5        1.0  0.8665115625319333  0.14903063113900566  0.4302527142103827  1.0000
  O   O6        1.0  0.36640382675994243  0.5792821626611727  0.569792893983859  1.0000
  O   O7        1.0  0.6051382191358811  0.3482144280453242  0.43498006167268943  1.0000
  O   O8        1.0  0.1051557916029111  0.7834154680289559  0.5649545793662512  1.0000
  O   O9        1.0  0.8481457407000904  0.18186892267974736  0.6856720827068798  1.0000
  O   O10       1.0  0.34814010434817544  0.867280067938424  0.3143350471298305  1.0000
  O   O11       1.0  0.8047303279946194  0.606639507493128  0.49750941572406054  1.0000
  O   O12       1.0  0.30508261492652633  0.10378846744299602  0.5025158886181842  1.0000
