data_image0
_chemical_formula_structural       Sm4H32C24O28
_chemical_formula_sum              "Sm4 H32 C24 O28"
_cell_length_a       7.706912174300874
_cell_length_b       8.078270216852806
_cell_length_c       14.20133289479762
_cell_angle_alpha    96.88168898343115
_cell_angle_beta     96.03261812791155
_cell_angle_gamma    103.82235079053325

_space_group_name_H-M_alt    "P 1"
_space_group_IT_number       1

loop_
  _space_group_symop_operation_xyz
  'x, y, z'

loop_
  _atom_site_type_symbol
  _atom_site_label
  _atom_site_symmetry_multiplicity
  _atom_site_fract_x
  _atom_site_fract_y
  _atom_site_fract_z
  _atom_site_occupancy
  Sm  Sm1       1.0  0.4114519605638662  0.511031806758986  0.2989717765853257  1.0000
  Sm  Sm2       1.0  0.5885476716031234  0.4889685193709568  0.701028834646955  1.0000
  Sm  Sm3       1.0  0.8712031285524233  0.4240950575324121  0.20792972784467878  1.0000
  Sm  Sm4       1.0  0.12879780952943787  0.5759052731430717  0.792070964387328  1.0000
  H   H1        1.0  0.07727045219644413  0.877723205456583  0.14297824797912279  1.0000
  H   H2        1.0  0.9227288906073311  0.12227584534455363  0.857019441409747  1.0000
  H   H3        1.0  0.2871761388482242  0.027782800701608303  0.1927988223678412  1.0000
  H   H4        1.0  0.7128218980406942  0.9722162455539947  0.8071987860213027  1.0000
  H   H5        1.0  0.9758035654221616  0.8975166096673702  0.3060948789370029  1.0000
  H   H6        1.0  0.0241954258715396  0.1024811482195531  0.6939034045120207  1.0000
  H   H7        1.0  0.1894637983067398  0.045938230557347005  0.3537021601807098  1.0000
  H   H8        1.0  0.8105335479913905  0.9540582333868958  0.646295933148025  1.0000
  H   H9        1.0  0.6747415866320026  0.0378066159883019  0.3736017166809731  1.0000
  H   H10       1.0  0.3252580579643691  0.9621937136587209  0.6263981913705976  1.0000
  H   H11       1.0  0.5972210986805492  0.09279234913277891  0.48327958819784567  1.0000
  H   H12       1.0  0.4027808062354694  0.9072066966911054  0.5167210759133312  1.0000
  H   H13       1.0  0.9385785667027234  0.12458780069755453  0.4949473254581775  1.0000
  H   H14       1.0  0.06142203229843081  0.8754112405807958  0.5050532576532731  1.0000
  H   H15       1.0  0.9550564930799651  0.2957097507793592  0.4280808117446923  1.0000
  H   H16       1.0  0.04494411835055698  0.7042892940160712  0.5719190681860412  1.0000
  H   H17       1.0  0.6190180830722767  0.9040996681177803  0.153085856747218  1.0000
  H   H18       1.0  0.3809808957920496  0.09589808625205623  0.8469131298825232  1.0000
  H   H19       1.0  0.4554227592179601  0.7320544482741698  0.08132562319411821  1.0000
  H   H20       1.0  0.5445775255612303  0.2679433106412076  0.918673444435349  1.0000
  H   H21       1.0  0.638104431977233  0.9912567138048021  0.002614781260383804  1.0000
  H   H22       1.0  0.3618968451853347  0.008744906267814701  0.9973860200921933  1.0000
  H   H23       1.0  0.8097379591416428  0.8805985698331826  0.006434331124616184  1.0000
  H   H24       1.0  0.19026497544586354  0.1194043476992022  0.993565957167533  1.0000
  H   H25       1.0  0.7751895883928982  0.6621503563016591  0.41260160419356845  1.0000
  H   H26       1.0  0.2248113496889559  0.33784997437382464  0.5873990880384383  1.0000
  H   H27       1.0  0.631718914259757  0.6978112950439342  0.4852854811217924  1.0000
  H   H28       1.0  0.3682790604822941  0.30218773362625484  0.5147156431709163  1.0000
  H   H29       1.0  0.018877056215075107  0.3456320159821474  0.0097453062787523  1.0000
  H   H30       1.0  0.981123869437411  0.6543683111762562  0.9902560891339718  1.0000
  H   H31       1.0  0.1374742425112103  0.316452232163094  0.0980530879389363  1.0000
  H   H32       1.0  0.8625263564899444  0.6835468091152564  0.9019474951725073  1.0000
  C   C1        1.0  0.2549725628805035  0.7818475539833047  0.23677200244040358  1.0000
  C   C2        1.0  0.745026779923272  0.21815149681783205  0.7632256869484664  1.0000
  C   C3        1.0  0.1762961212567689  0.9252338210972796  0.20761597613432767  1.0000
  C   C4        1.0  0.8237018907733998  0.0747652181241492  0.7923830386162436  1.0000
  C   C5        1.0  0.08755210419701602  0.998125382011722  0.2901374764654534  1.0000
  C   C6        1.0  0.9124442752669567  0.0018723667841130016  0.7098606449841185  1.0000
  C   C7        1.0  0.013832085833207901  0.14474529866412672  0.2620733072575234  1.0000
  C   C8        1.0  0.9861655746868865  0.8552524476430821  0.7379263015531946  1.0000
  C   C9        1.0  0.586940543534844  0.265500266052378  0.3828958887708822  1.0000
  C   C10       1.0  0.4130590762027779  0.734500056560485  0.6171054256421087  1.0000
  C   C11       1.0  0.6785359981143697  0.1452527831689352  0.4298492023472419  1.0000
  C   C12       1.0  0.3214652790481907  0.8547488369036815  0.570151599005328  1.0000
  C   C13       1.0  0.873359870173836  0.22608883885818903  0.4769396943267452  1.0000
  C   C14       1.0  0.1266414194180996  0.7739127847315148  0.5230604038451148  1.0000
  C   C15       1.0  0.8868979559845088  0.3521029855319072  0.5676023028917783  1.0000
  C   C16       1.0  0.11310333360742666  0.6478986380577965  0.43239779528008165  1.0000
  C   C17       1.0  0.6992605158445145  0.6741925533174536  0.133201981967602  1.0000
  C   C18       1.0  0.3007410624201654  0.32580520662638424  0.8667978698423013  1.0000
  C   C19       1.0  0.6006473425548365  0.7969263635024008  0.0945987213900565  1.0000
  C   C20       1.0  0.39935621978612096  0.2030739797812515  0.9054014296606991  1.0000
  C   C21       1.0  0.6640396445011875  0.8635907423548873  0.004348189377509527  1.0000
  C   C22       1.0  0.3359606906859583  0.13641216960349573  0.9956512337344705  1.0000
  C   C23       1.0  0.5613211432373787  0.7457553785691007  0.9144104564848305  1.0000
  C   C24       1.0  0.43868049786463104  0.25424753793482324  0.0855890476268755  1.0000
  O   O1        1.0  0.4049700107961486  0.8174755727788183  0.2895902832788053  1.0000
  O   O2        1.0  0.595029332007627  0.18252347802231841  0.7104074061100716  1.0000
  O   O3        1.0  0.1679497982336358  0.6221833633491158  0.20817147199993968  1.0000
  O   O4        1.0  0.8320465563715941  0.3778143784125517  0.7918280558110595  1.0000
  O   O5        1.0  0.11727449964732267  0.2997076935782914  0.2757542729029652  1.0000
  O   O6        1.0  0.8827251200902995  0.7002926290345644  0.7242470415100328  1.0000
  O   O7        1.0  0.8516317937726967  0.11775228526772712  0.22464100596708647  1.0000
  O   O8        1.0  0.1483665573381785  0.8822480433508348  0.775358117904048  1.0000
  O   O9        1.0  0.43867659362254596  0.290721264413989  0.4060574159533203  1.0000
  O   O10       1.0  0.5613213811195054  0.7092777642561929  0.5939437083393884  1.0000
  O   O11       1.0  0.653113923513132  0.3410339978086583  0.31523664756252856  1.0000
  O   O12       1.0  0.346888333603431  0.658971479904125  0.6847665906938615  1.0000
  O   O13       1.0  0.7520263398787818  0.41251910935741176  0.5786895991585296  1.0000
  O   O14       1.0  0.24797494971315362  0.587482514232292  0.42131049901333034  1.0000
  O   O15       1.0  0.03283857024413811  0.39101996644247816  0.6270125022692026  1.0000
  O   O16       1.0  0.9671617525136468  0.6089829419988179  0.3729876240234944  1.0000
  O   O17       1.0  0.6616309374168098  0.6205914881358228  0.2126178602120561  1.0000
  O   O18       1.0  0.33837229827280885  0.3794075692677766  0.7873814785374194  1.0000
  O   O19       1.0  0.8202885730495737  0.6242450722968016  0.091979539045262  1.0000
  O   O20       1.0  0.1797133442958128  0.3757539770441696  0.9080204218852045  1.0000
  O   O21       1.0  0.3930221304855479  0.7297494533278908  0.899033624218539  1.0000
  O   O22       1.0  0.6069811680414077  0.27025476063579407  0.10096536683274587  1.0000
  O   O23       1.0  0.6485152548779283  0.668486953273124  0.8590248798669293  1.0000
  O   O24       1.0  0.35148696426004733  0.3315133749137332  0.1409772997262309  1.0000
  O   O25       1.0  0.6545854822253432  0.6840396321320769  0.4174087312016966  1.0000
  O   O26       1.0  0.3454128440267894  0.315960689452325  0.5825917990308582  1.0000
  O   O27       1.0  0.009140451147054307  0.31356083144394387  0.0736683632369122  1.0000
  O   O28       1.0  0.9908601602834678  0.6864382133514866  0.9263315166938213  1.0000
