data_image0
_chemical_formula_structural       Cd3H36C38S2N6O22
_chemical_formula_sum              "Cd3 H36 C38 S2 N6 O22"
_cell_length_a       10.209448384451031
_cell_length_b       9.875544158804056
_cell_length_c       14.241
_cell_angle_alpha    85.04827516752114
_cell_angle_beta     72.56659512585178
_cell_angle_gamma    59.548253374737605

_space_group_name_H-M_alt    "P 1"
_space_group_IT_number       1

loop_
  _space_group_symop_operation_xyz
  'x, y, z'

loop_
  _atom_site_type_symbol
  _atom_site_label
  _atom_site_symmetry_multiplicity
  _atom_site_fract_x
  _atom_site_fract_y
  _atom_site_fract_z
  _atom_site_occupancy
  Cd  Cd1       1.0  0.16771388731829967  0.7234084500266107  0.04300831798944673  1.0000
  Cd  Cd2       1.0  0.8322882204541387  0.2765897237176205  0.9569911981716999  1.0000
  Cd  Cd3       1.0  0.49999871945193053  0.9999993521258119  0.5000016128853915  1.0000
  H   H1        1.0  0.43909720560629484  0.4167169689284265  0.9324665304964341  1.0000
  H   H2        1.0  0.5609022466119667  0.5832823831973855  0.06753208110198021  1.0000
  H   H3        1.0  0.285276643215667  0.4783734281738107  0.8970404314703586  1.0000
  H   H4        1.0  0.7147193046996847  0.5216247455704206  0.10296040772177412  1.0000
  H   H5        1.0  0.8414993917523007  0.7946875732285363  0.4028157968612406  1.0000
  H   H6        1.0  0.1584996360915909  0.2053106005156948  0.5971857852111598  1.0000
  H   H7        1.0  0.7639230506443938  0.6892672006006109  0.41449523812981676  1.0000
  H   H8        1.0  0.2360770038423468  0.3107309731436203  0.5855054212395387  1.0000
  H   H9        1.0  0.8692096147170076  0.984754629666135  0.12365457284520434  1.0000
  H   H10       1.0  0.13078881085841232  0.015244722459677  0.8763456636541349  1.0000
  H   H11       1.0  0.9820667771141772  0.0470904845739781  0.11688229811723257  1.0000
  H   H12       1.0  0.017933277372563266  0.9529076891702601  0.8831190634500035  1.0000
  H   H13       1.0  0.3081126978868696  0.6944685768808156  0.3788961183788687  1.0000
  H   H14       1.0  0.6918894098855688  0.3055295968634155  0.6211062065737993  1.0000
  H   H15       1.0  0.05122275466797526  0.35838943763763353  0.31465523501149323  1.0000
  H   H16       1.0  0.9487802018532034  0.641611092869752  0.6853446599826044  1.0000
  H   H17       1.0  0.30619457200558026  0.7068026968456778  0.7960011776471206  1.0000
  H   H18       1.0  0.6938024025526204  0.2931954768985534  0.20400014323772817  1.0000
  H   H19       1.0  0.8983290338551267  0.8962016109292037  0.7993723085350553  1.0000
  H   H20       1.0  0.1016724716488326  0.1037977411966011  0.20062867084455152  1.0000
  H   H21       1.0  0.23481148907197985  0.5693444859064345  0.6957338649893572  1.0000
  H   H22       1.0  0.7651848832177421  0.4306548662193777  0.3042689191139516  1.0000
  H   H23       1.0  0.4159974768567736  0.7586927295821511  0.4386197715292468  1.0000
  H   H24       1.0  0.5840031798984455  0.24130426578049932  0.5613836378089303  1.0000
  H   H25       1.0  0.15467831470481033  0.4099071017958238  0.43578813067536976  1.0000
  H   H26       1.0  0.8453250661907461  0.5900946070931354  0.5642101982405023  1.0000
  H   H27       1.0  0.05722568440744878  0.49282745659542126  0.1548294448413046  1.0000
  H   H28       1.0  0.9427762454708885  0.5071730739119644  0.845169968460077  1.0000
  H   H29       1.0  0.4164645928126306  0.8760430372940817  0.709345798912601  1.0000
  H   H30       1.0  0.5835317794770988  0.12395631483173018  0.2906569851907079  1.0000
  H   H31       1.0  0.2815399386684447  0.7012984765002273  0.2286957607344533  1.0000
  H   H32       1.0  0.7184679045867027  0.2986985188624303  0.7713004874845455  1.0000
  H   H33       1.0  0.64897769524638  0.7450093627118052  0.04344264230363848  1.0000
  H   H34       1.0  0.35102115470341033  0.2549911677955805  0.9565567303153558  1.0000
  H   H35       1.0  0.44269865681334153  0.9649295380172517  0.8101440994317173  1.0000
  H   H36       1.0  0.5573020685280454  0.0350733492532882  0.18985402711930277  1.0000
  C   C1        1.0  0.10144514022948667  0.4350514078825967  0.2975936144283011  1.0000
  C   C2        1.0  0.8985584185601639  0.5649479442432153  0.7024048173473433  1.0000
  C   C3        1.0  0.3249253371981453  0.7178512025102037  0.7170895729081508  1.0000
  C   C4        1.0  0.6750698305546264  0.2821505063787626  0.28291122224690923  1.0000
  C   C5        1.0  0.7947186594378407  0.8853416463169808  0.8374983172382856  1.0000
  C   C6        1.0  0.2052812171547984  0.1146588841904048  0.1625015370734175  1.0000
  C   C7        1.0  0.2863647613759709  0.6415745630408694  0.6618045404197376  1.0000
  C   C8        1.0  0.7136310086452794  0.3584259674665162  0.3381983025062639  1.0000
  C   C9        1.0  0.5334158601366782  0.8457232793217955  0.9296669772757583  1.0000
  C   C10       1.0  0.46658383856186  0.1542796079487445  0.07033207197829935  1.0000
  C   C11       1.0  0.38391925941868266  0.7476383320097498  0.5178509573977622  1.0000
  C   C12       1.0  0.6160779616197801  0.2523633768792166  0.48215220553849036  1.0000
  C   C13       1.0  0.9143802078417452  0.7615491265244287  0.9751882303426029  1.0000
  C   C14       1.0  0.0856198466449953  0.2384490472198024  0.024811726828872296  1.0000
  C   C15       1.0  0.15897094808975254  0.4636554422789914  0.36617320321080643  1.0000
  C   C16       1.0  0.8410320084314264  0.5363450882283942  0.633823882991777  1.0000
  C   C17       1.0  0.31434261692758986  0.6574838927098838  0.5600098700302638  1.0000
  C   C18       1.0  0.685656835290672  0.342515459415921  0.4399922525575519  1.0000
  C   C19       1.0  0.10689537787848022  0.5058002593749364  0.2089538726201496  1.0000
  C   C20       1.0  0.8931081809111703  0.4941990927508755  0.7910452613533752  1.0000
  C   C21       1.0  0.22084810226250087  0.565250788308461  0.3438631858422028  1.0000
  C   C22       1.0  0.7791572633325785  0.4347450286726158  0.656135069465343  1.0000
  C   C23       1.0  0.3981444105629778  0.816922455202068  0.9737023716166392  1.0000
  C   C24       1.0  0.6018564926725034  0.1830780753053176  0.02629655999202637  1.0000
  C   C25       1.0  0.6721866230888551  0.9361982384105616  0.7951894966262785  1.0000
  C   C26       1.0  0.3278147045210034  0.0638034704784047  0.204808571102042  1.0000
  C   C27       1.0  0.3875043543803399  0.8108078331998101  0.6695444610407578  1.0000
  C   C28       1.0  0.6124934689266013  0.1891926973075755  0.3304572386770417  1.0000
  C   C29       1.0  0.22929783168174098  0.6263204135285818  0.250554963398649  1.0000
  C   C30       1.0  0.7707089849305576  0.37367658183407576  0.7494436119191479  1.0000
  C   C31       1.0  0.6547870829131458  0.7967462058432844  0.972934190115417  1.0000
  C   C32       1.0  0.34521339594796535  0.2032531462825204  0.02706490317571308  1.0000
  C   C33       1.0  0.5404706529485849  0.9201863895443552  0.841613289908061  1.0000
  C   C34       1.0  0.45952886785584474  0.0798188544893321  0.1583863586841119  1.0000
  C   C35       1.0  0.7849673456683278  0.816686778886698  0.9276260750470229  1.0000
  C   C36       1.0  0.21503355756716055  0.1833137516206875  0.07237285656164259  1.0000
  C   C37       1.0  0.26727440376394174  0.5778865739569953  0.5028607202574094  1.0000
  C   C38       1.0  0.7327291550257086  0.4221127781688098  0.49713841371611517  1.0000
  S   S1        1.0  0.6908010167385328  0.014529444842530404  0.6775835418424521  1.0000
  S   S2        1.0  0.30920091313980447  0.9854710856648552  0.322415169261049  1.0000
  N   N1        1.0  0.27294653951511794  0.6140051476689479  0.4077432628134758  1.0000
  N   N2        1.0  0.7270533370775212  0.3859953828384377  0.5922565914982343  1.0000
  N   N3        1.0  0.17319639963483266  0.5970647341201882  0.18582403044653262  1.0000
  N   N4        1.0  0.8268055302434971  0.4029357963871974  0.814175382854849  1.0000
  N   N5        1.0  0.4172802815106921  0.8248482496879461  0.5716268569770406  1.0000
  N   N6        1.0  0.5827207996188974  0.1751499240562921  0.42837498628291115  1.0000
  O   O1        1.0  0.346045560590639  0.5137107349003145  0.9181873013489368  1.0000
  O   O2        1.0  0.6539514139675617  0.48628743884391673  0.0818119129422783  1.0000
  O   O3        1.0  0.7474378747432199  0.7955442566349049  0.3991733337225298  1.0000
  O   O4        1.0  0.2525611531006717  0.20445391710932634  0.6008282483498704  1.0000
  O   O5        1.0  0.5952945812135936  0.9790972197156905  0.6339882685294924  1.0000
  O   O6        1.0  0.40469945058839574  0.0209127378443128  0.36601297906683783  1.0000
  O   O7        1.0  0.966784775209412  0.9560162597699816  0.14014512811019836  1.0000
  O   O8        1.0  0.03321425263447961  0.0439819139742497  0.8598550495664483  1.0000
  O   O9        1.0  0.28146804577046686  0.879112721301766  0.9386253516303712  1.0000
  O   O10       1.0  0.7185341305881394  0.12089134435034768  0.06137239273301284  1.0000
  O   O11       1.0  0.9084179715382986  0.6956587422734302  0.05452417336780968  1.0000
  O   O12       1.0  0.0915820829484417  0.304339431470801  0.9454764860015531  1.0000
  O   O13       1.0  0.8596076284502062  0.9346250990054727  0.6231638251232212  1.0000
  O   O14       1.0  0.14039285041090474  0.0653742531203392  0.3768345659700287  1.0000
  O   O15       1.0  0.6179633467789287  0.1860994456683542  0.6988664741521619  1.0000
  O   O16       1.0  0.382040212010729  0.8138999064574577  0.3011347664149966  1.0000
  O   O17       1.0  0.40439241305634976  0.7259466839431425  0.04451262100065629  1.0000
  O   O18       1.0  0.595604807982113  0.2740550249458238  0.9554877331440749  1.0000
  O   O19       1.0  0.2219680438535505  0.4857948753447943  0.5439484537251573  1.0000
  O   O20       1.0  0.7780334616504092  0.5142044767810106  0.45604901466505504  1.0000
  O   O21       1.0  0.029995935168244597  0.7863811614933383  0.9295199064057941  1.0000
  O   O22       1.0  0.9700024904071755  0.2136181906324737  0.07047962789566496  1.0000
