data_image0
_chemical_formula_structural       Mn2H12C4N20Cl4
_chemical_formula_sum              "Mn2 H12 C4 N20 Cl4"
_cell_length_a       3.6305896943413827
_cell_length_b       7.9662051699067655
_cell_length_c       16.152212139001062
_cell_angle_alpha    89.99998207841288
_cell_angle_beta     89.99996686032429
_cell_angle_gamma    95.0412474016957

_space_group_name_H-M_alt    "P 1"
_space_group_IT_number       1

loop_
  _space_group_symop_operation_xyz
  'x, y, z'

loop_
  _atom_site_type_symbol
  _atom_site_label
  _atom_site_symmetry_multiplicity
  _atom_site_fract_x
  _atom_site_fract_y
  _atom_site_fract_z
  _atom_site_occupancy
  Mn  Mn1       1.0  0.4999987582969325  0.4999986951743765  0.5000001741249347  1.0000
  Mn  Mn2       1.0  2.9846179075000015e-06  1.2665301057e-06  0.9999999999997227  1.0000
  H   H1        1.0  0.6582145928802915  0.1400932997861162  0.22111207800247698  1.0000
  H   H2        1.0  0.8417855369765092  0.35990624952075484  0.7211129121741704  1.0000
  H   H3        1.0  0.3417888929512073  0.85990662362331  0.7788870320263397  1.0000
  H   H4        1.0  0.15821450612919816  0.6400898870344279  0.2788892934063794  1.0000
  H   H5        1.0  0.7712905906577064  0.12420984895615558  0.4533378486704789  1.0000
  H   H6        1.0  0.728709085402187  0.37579078968250457  0.9533386937418836  1.0000
  H   H7        1.0  0.22870738404222374  0.8757900617162875  0.546660642248433  1.0000
  H   H8        1.0  0.2712888892904601  0.6242091209881127  0.04666475005897298  1.0000
  H   H9        1.0  0.7987221967300541  0.9951451400885104  0.3650223209236286  1.0000
  H   H10       1.0  0.701278146830198  0.5048560917417008  0.8650219897269406  1.0000
  H   H11       1.0  0.20127577796895926  0.004854770583705202  0.6349767891055221  1.0000
  H   H12       1.0  0.29872533899948905  0.4951438316672636  0.13497835852236753  1.0000
  C   C1        1.0  0.591794375432606  0.22258924665979413  0.34794733379101916  1.0000
  C   C2        1.0  0.9082007865409312  0.27741523725229916  0.847951268689499  1.0000
  C   C3        1.0  0.40820107275365547  0.7774119178057718  0.6520505380176966  1.0000
  C   C4        1.0  0.0917905248064628  0.7225934754409736  0.15205774710325665  1.0000
  N   N1        1.0  0.4774942836508487  0.36991238545653005  0.3758202912129604  1.0000
  N   N2        1.0  0.022506354183477087  0.1300872997875686  0.8758199614051844  1.0000
  N   N3        1.0  0.5225034619955977  0.6300862650539544  0.6241794379265497  1.0000
  N   N4        1.0  0.9774971316480289  0.8699126236218504  0.12417914862363934  1.0000
  N   N5        1.0  0.3880185149994091  0.4563859407456262  0.307554717723299  1.0000
  N   N6        1.0  0.1119793389476769  0.0436125281855979  0.8075550100962512  1.0000
  N   N7        1.0  0.611979001596275  0.5436114496035885  0.692444392306079  1.0000
  N   N8        1.0  0.8880239178285193  0.9563861350614076  0.19244657637366194  1.0000
  N   N9        1.0  0.44047376808961775  0.37313214843416637  0.24061218783644722  1.0000
  N   N10       1.0  0.05952451175130588  0.12686762990298917  0.740611854146891  1.0000
  N   N11       1.0  0.5595242066066675  0.6268677622373672  0.7593887795234335  1.0000
  N   N12       1.0  0.9404762185130408  0.8731322871376007  0.25938787499234184  1.0000
  N   N13       1.0  0.5681721040406983  0.22619265367475086  0.26398917559541957  1.0000
  N   N14       1.0  0.9318253732280581  0.2738081178849399  0.7639869171597264  1.0000
  N   N15       1.0  0.43182609970816094  0.7738085171585072  0.7360111726541088  1.0000
  N   N16       1.0  0.06816846465666516  0.7261993410211217  0.23600662087687838  1.0000
  N   N17       1.0  0.6934521403070024  0.0950294618783118  0.39374044616894094  1.0000
  N   N18       1.0  0.806552764031686  0.40496871301714066  0.8937369436175683  1.0000
  N   N19       1.0  0.30654836090204174  0.9049691949998646  0.6062617594113816  1.0000
  N   N20       1.0  0.1934587594568953  0.5950299693390947  0.10625535619818995  1.0000
  Cl  Cl1       1.0  0.9622704948907312  0.3039963629625433  0.5527378301378787  1.0000
  Cl  Cl2       1.0  0.5377273744967326  0.19600330383517672  0.05273823963147347  1.0000
  Cl  Cl3       1.0  0.03772725075661752  0.6960022875481687  0.44726127989138564  1.0000
  Cl  Cl4       1.0  0.462273584819286  0.8039978733669102  0.9472614895076459  1.0000
