data_image0
_chemical_formula_structural       Sc4H12C12O24
_chemical_formula_sum              "Sc4 H12 C12 O24"
_cell_length_a       6.58831833812168
_cell_length_b       9.007629342105712
_cell_length_c       10.408663784169955
_cell_angle_alpha    98.44684154468834
_cell_angle_beta     89.99936051633763
_cell_angle_gamma    89.99982609950919

_space_group_name_H-M_alt    "P 1"
_space_group_IT_number       1

loop_
  _space_group_symop_operation_xyz
  'x, y, z'

loop_
  _atom_site_type_symbol
  _atom_site_label
  _atom_site_symmetry_multiplicity
  _atom_site_fract_x
  _atom_site_fract_y
  _atom_site_fract_z
  _atom_site_occupancy
  Sc  Sc1       1.0  0.999979002446459  5.015943479199999e-06  8.609639067499998e-06  1.0000
  Sc  Sc2       1.0  0.4999872648178822  0.4999859400342432  0.9999935418338591  1.0000
  Sc  Sc3       1.0  0.5000042820288613  0.9999943473197771  0.499994956793273  1.0000
  Sc  Sc4       1.0  1.1264669275600004e-05  0.4999977498429545  0.49999660824957454  1.0000
  H   H1        1.0  0.05122214400635981  0.3620247660198217  0.1253964188299292  1.0000
  H   H2        1.0  0.551214632979331  0.1379722208141132  0.8745991028263587  1.0000
  H   H3        1.0  0.9487809056139087  0.6379925692130894  0.8746017477847728  1.0000
  H   H4        1.0  0.4487671670940686  0.8619867526935534  0.1253917600587044  1.0000
  H   H5        1.0  0.2398075788616296  0.21624479131176597  0.3173493655127969  1.0000
  H   H6        1.0  0.7398331934161889  0.2837470851529034  0.6826585897420256  1.0000
  H   H7        1.0  0.7601924351045072  0.7837523547092572  0.6826510781931602  1.0000
  H   H8        1.0  0.2602169089663278  0.7162478910990514  0.3173694437250488  1.0000
  H   H9        1.0  0.15566379686747922  0.2983978499125398  0.7473823259893209  1.0000
  H   H10       1.0  0.6556350794381134  0.20161675749869798  0.2526252281344696  1.0000
  H   H11       1.0  0.8443771987053026  0.7016161208155012  0.25261638017316557  1.0000
  H   H12       1.0  0.3443497560317397  0.7983983641180997  0.7473841904050004  1.0000
  C   C1        1.0  0.9152413862686332  0.34608897434207364  0.06321439667904369  1.0000
  C   C2        1.0  0.41524460651368145  0.1539146238442441  0.9367899380863349  1.0000
  C   C3        1.0  0.0847480026863394  0.6539272773671384  0.936798045494136  1.0000
  C   C4        1.0  0.5847402292606035  0.8460577970669972  0.06319492176720586  1.0000
  C   C5        1.0  0.20536379639949595  0.0961894607831297  0.2870347146213348  1.0000
  C   C6        1.0  0.7053671302456694  0.4038036404548464  0.7129669131527407  1.0000
  C   C7        1.0  0.7946301462097055  0.9038065654931913  0.7129665497139398  1.0000
  C   C8        1.0  0.29464957992076524  0.5961991172448933  0.2870342327797388  1.0000
  C   C9        1.0  0.2052312846208721  0.25036936499268597  0.6483843143860354  1.0000
  C   C10       1.0  0.705209734865882  0.24963610061368513  0.35162558696677587  1.0000
  C   C11       1.0  0.7948006039211962  0.7496401215574835  0.3516157521078966  1.0000
  C   C12       1.0  0.2947872433232206  0.7503689250801386  0.6483844895347132  1.0000
  O   O1        1.0  0.8908190624824852  0.2206321199329011  0.9916885246955046  1.0000
  O   O2        1.0  0.39082442094777997  0.2793648373969475  0.008318034454490003  1.0000
  O   O3        1.0  0.10916577290019798  0.7793785433527489  0.008331864784374005  1.0000
  O   O4        1.0  0.6091543435825032  0.7206187629742402  0.9916518919071393  1.0000
  O   O5        1.0  0.08874769977519041  0.06225625048386967  0.19086481618810316  1.0000
  O   O6        1.0  0.5887507203488128  0.43773500110476954  0.8091326036926816  1.0000
  O   O7        1.0  0.9112280286813502  0.9377409266148292  0.8091471603812435  1.0000
  O   O8        1.0  0.411232597513049  0.5622688376147094  0.19085330579418516  1.0000
  O   O9        1.0  0.7933177446622254  0.4557543583604513  0.06778616580380968  1.0000
  O   O10       1.0  0.29329114365883413  0.0442541273277328  0.9322090775167098  1.0000
  O   O11       1.0  0.2066777157680022  0.544262976885733  0.9322120008394706  1.0000
  O   O12       1.0  0.7066587817357189  0.9557329021890482  0.0677843358710106  1.0000
  O   O13       1.0  0.28238460926699827  0.00023042615093520004  0.3505569488508796  1.0000
  O   O14       1.0  0.7823871436253996  0.49976799666001875  0.6494371125864973  1.0000
  O   O15       1.0  0.717613886872222  0.9997712014802788  0.6494411734993264  1.0000
  O   O16       1.0  0.21762197744129713  0.5002302484102613  0.35055482196410276  1.0000
  O   O17       1.0  0.32210209943131923  0.13802950544024378  0.6380784975985065  1.0000
  O   O18       1.0  0.8221026700058119  0.3619755279953407  0.36192187383060304  1.0000
  O   O19       1.0  0.6779176464640884  0.8619698722981041  0.36191742162726104  1.0000
  O   O20       1.0  0.17789582606489063  0.6380317268613993  0.6380827171949619  1.0000
  O   O21       1.0  0.14289438756200923  0.3111908652574158  0.5532305493365328  1.0000
  O   O22       1.0  0.6428865961152325  0.1888237842028886  0.4467761398222763  1.0000
  O   O23       1.0  0.8571390188073809  0.6888219883148492  0.4467699385253211  1.0000
  O   O24       1.0  0.3571377031927839  0.8111756245626864  0.5532313121582746  1.0000
