data_image0
_chemical_formula_structural       Al2H12C22S2N4O10F2
_chemical_formula_sum              "Al2 H12 C22 S2 N4 O10 F2"
_cell_length_a       6.68322110274141
_cell_length_b       12.822873927356776
_cell_length_c       16.856343782422613
_cell_angle_alpha    84.75222609332708
_cell_angle_beta     83.83770914617016
_cell_angle_gamma    74.36143040885622

_space_group_name_H-M_alt    "P 1"
_space_group_IT_number       1

loop_
  _space_group_symop_operation_xyz
  'x, y, z'

loop_
  _atom_site_type_symbol
  _atom_site_label
  _atom_site_symmetry_multiplicity
  _atom_site_fract_x
  _atom_site_fract_y
  _atom_site_fract_z
  _atom_site_occupancy
  Al  Al1       1.0  0.49550599174571625  0.504342823307894  0.49968197255996244  1.0000
  Al  Al2       1.0  0.9932454510584204  0.5072766597723232  0.500545335837103  1.0000
  H   H1        1.0  0.19640166333750392  0.6330534741971832  0.44865739102115765  1.0000
  H   H2        1.0  0.8025894742012621  0.37425443311052936  0.5423462612029867  1.0000
  H   H3        1.0  0.8546413940312334  0.5590209709674242  0.7326988209175627  1.0000
  H   H4        1.0  0.78634442281961  0.5592879512089368  0.8823207115524172  1.0000
  H   H5        1.0  0.4477007300740042  0.45516903311465734  0.9026817810242422  1.0000
  H   H6        1.0  0.613778622225375  0.4513567141144463  0.10004789681601522  1.0000
  H   H7        1.0  0.16508945192451555  0.5579781152635449  0.11514233754228802  1.0000
  H   H8        1.0  0.0864190040969461  0.5603758357135148  0.26431567769852654  1.0000
  H   H9        1.0  0.5932281207303021  0.4587464362624372  0.6881650018268675  1.0000
  H   H10       1.0  0.6796308351161642  0.4311059507803775  0.7840165136876467  1.0000
  H   H11       1.0  0.45639875111105954  0.4546458151930893  0.3134234111316446  1.0000
  H   H12       1.0  0.3973971012688651  0.43014730441001353  0.21912287600559213  1.0000
  C   C1        1.0  0.6439113598645176  0.7003532212461608  0.5071440613834285  1.0000
  C   C2        1.0  0.7797262594987799  0.5082146110660374  0.35473198910766973  1.0000
  C   C3        1.0  0.341633250172059  0.31045898332129696  0.4931210243764285  1.0000
  C   C4        1.0  0.21123320707600612  0.5029588235159891  0.645216020587924  1.0000
  C   C5        1.0  0.18670829714395867  0.5044677214145208  0.7330323721079285  1.0000
  C   C6        1.0  0.9827801105343427  0.5342115872260038  0.7710986260192743  1.0000
  C   C7        1.0  0.9436231170999746  0.5342685966669903  0.8531792139112826  1.0000
  C   C8        1.0  0.11608041343930614  0.5033938910918251  0.8999548927544299  1.0000
  C   C9        1.0  0.31928370227171843  0.47662551620304333  0.8642179286677776  1.0000
  C   C10       1.0  0.3612742096702775  0.4757689021092729  0.7801587085709374  1.0000
  C   C11       1.0  0.7177045584403886  0.4734715295683146  0.13739109536452082  1.0000
  C   C12       1.0  0.8941909247547812  0.5011685641605013  0.10038613907847353  1.0000
  C   C13       1.0  0.031977135882705475  0.5327987085113719  0.14558449726364844  1.0000
  C   C14       1.0  0.9871326873116717  0.5341782157205371  0.22739491072226067  1.0000
  C   C15       1.0  0.8117653266732533  0.5042296788303489  0.2671253189978132  1.0000
  C   C16       1.0  0.6717837543967845  0.47307248633173765  0.22132056269352776  1.0000
  C   C17       1.0  0.5852845762890694  0.1193811216291323  0.5147353519872199  1.0000
  C   C18       1.0  0.39670227797554947  0.8912017609211701  0.4855166393767194  1.0000
  C   C19       1.0  0.4003344038927353  0.1916727320813081  0.49427498934085906  1.0000
  C   C20       1.0  0.5818786712276562  0.8191395855003873  0.5060207410162791  1.0000
  C   C21       1.0  0.3956018558489589  0.0009738832375063969  0.48852662159266924  1.0000
  C   C22       1.0  0.5858333118633182  0.009735440813244593  0.5118585894568995  1.0000
  S   S1        1.0  0.22092015329759113  0.1250015019148165  0.4712593718634965  1.0000
  S   S2        1.0  0.7607907176693801  0.8859746463004112  0.5292175212961612  1.0000
  N   N1        1.0  0.09755642818377906  0.5003688802264037  0.9844996678725981  1.0000
  N   N2        1.0  0.9177307383460941  0.4986572465458891  0.016162313774401613  1.0000
  N   N3        1.0  0.5622915342132373  0.44477351297227585  0.7479658328029688  1.0000
  N   N4        1.0  0.5009727907790023  0.44181212890092775  0.2547802253973971  1.0000
  O   O1        1.0  0.5036565495641979  0.6529248455526614  0.49893562472533415  1.0000
  O   O2        1.0  0.9262127847676068  0.523748544101366  0.3913628669621759  1.0000
  O   O3        1.0  0.14949647251857107  0.3582466748164918  0.4863974265222099  1.0000
  O   O4        1.0  0.38915099432861666  0.5066966730770516  0.6093369126217925  1.0000
  O   O5        1.0  0.48604362407544943  0.35589571771625117  0.4992573858251534  1.0000
  O   O6        1.0  0.055669122441528864  0.4962568206587292  0.6098563884939381  1.0000
  O   O7        1.0  0.8358679319076573  0.6546361611001784  0.5157868314190426  1.0000
  O   O8        1.0  0.605081997429053  0.4971548520209765  0.3898658097249666  1.0000
  O   O9        1.0  0.22818749549863776  0.556387043810659  0.4654220097658028  1.0000
  O   O10       1.0  0.7629284574747642  0.4528942300668959  0.534531133728642  1.0000
  F   F1        1.0  0.7491127812767999  0.14837599996753434  0.5370288500707545  1.0000
  F   F2        1.0  0.2335709527973291  0.8616826349754945  0.4631319162621638  1.0000
