data_image0
_chemical_formula_structural       Zn4H32C52S20N8
_chemical_formula_sum              "Zn4 H32 C52 S20 N8"
_cell_length_a       9.132282698446465
_cell_length_b       11.592990779614047
_cell_length_c       14.530692923054936
_cell_angle_alpha    89.99967532911774
_cell_angle_beta     90.00011141546706
_cell_angle_gamma    101.64975981954595

_space_group_name_H-M_alt    "P 1"
_space_group_IT_number       1

loop_
  _space_group_symop_operation_xyz
  'x, y, z'

loop_
  _atom_site_type_symbol
  _atom_site_label
  _atom_site_symmetry_multiplicity
  _atom_site_fract_x
  _atom_site_fract_y
  _atom_site_fract_z
  _atom_site_occupancy
  Zn  Zn1       1.0  0.6681822317793262  0.6328502185279702  0.7906783531560111  1.0000
  Zn  Zn2       1.0  0.8318189931816561  0.8671532933178268  0.2906817884184889  1.0000
  Zn  Zn3       1.0  0.33181829178860767  0.36714503767710477  0.2093190212408373  1.0000
  Zn  Zn4       1.0  0.16818446443895138  0.1328534124102205  0.7093176505485064  1.0000
  H   H1        1.0  0.8202884061511071  0.0564016169254131  0.900002876297016  1.0000
  H   H2        1.0  0.67970605173916  0.44360177380517024  0.40000301127041393  1.0000
  H   H3        1.0  0.17970094141426776  0.9435927579778107  0.0999972508887197  1.0000
  H   H4        1.0  0.32030046527907524  0.5564040513509312  0.5999984922958177  1.0000
  H   H5        1.0  0.9060482739403779  0.7588597108925866  0.6595970491608867  1.0000
  H   H6        1.0  0.5939500959800554  0.7411384999047145  0.15960422497139606  1.0000
  H   H7        1.0  0.0939476772570416  0.24113906797167325  0.3403982606295699  1.0000
  H   H8        1.0  0.40604099025635065  0.25885411363525884  0.84039865501326  1.0000
  H   H9        1.0  0.07240708689244002  0.8138977680519944  0.0206619753304409  1.0000
  H   H10       1.0  0.4275937928291214  0.6861022064515652  0.5206586095302016  1.0000
  H   H11       1.0  0.9275852866225021  0.18609132265861208  0.9793436574570009  1.0000
  H   H12       1.0  0.5724094725466101  0.3139080221482118  0.4793422058252403  1.0000
  H   H13       1.0  0.8574440301281215  0.3400056888580991  0.5859593968401953  1.0000
  H   H14       1.0  0.6425551787427678  0.159990084536183  0.0859566915648742  1.0000
  H   H15       1.0  0.142564802297656  0.6599878063104896  0.4140434831533355  1.0000
  H   H16       1.0  0.3574407390056322  0.8400042907119456  0.9140406828312067  1.0000
  H   H17       1.0  0.9343718152265693  0.6610297580989694  0.9186166030846082  1.0000
  H   H18       1.0  0.5656256568212896  0.8389746715658147  0.4186177779110524  1.0000
  H   H19       1.0  0.06561907875645552  0.3389663783535611  0.0813752657168223  1.0000
  H   H20       1.0  0.4343850146216041  0.1610302730924573  0.5813802846676881  1.0000
  H   H21       1.0  0.7198410556497664  0.40850691688233104  0.7144368503209861  1.0000
  H   H22       1.0  0.780159006869475  0.09149065172866244  0.21443326083660003  1.0000
  H   H23       1.0  0.28016735883346655  0.5914892204317325  0.28556534146764534  1.0000
  H   H24       1.0  0.21983053293888585  0.9085002003119057  0.7855627371669911  1.0000
  H   H25       1.0  0.6847042620946054  0.8892149488750221  0.808247465884307  1.0000
  H   H26       1.0  0.8152901576738073  0.6107831624940657  0.30824314075670867  1.0000
  H   H27       1.0  0.31528791917309457  0.11077766471865398  0.1917561022994505  1.0000
  H   H28       1.0  0.18471590795334686  0.38922090118910546  0.6917604274086672  1.0000
  H   H29       1.0  0.042985918979113066  0.7084000117099122  0.5263958300454945  1.0000
  H   H30       1.0  0.457003307781271  0.7915928785941732  0.026401839976983903  1.0000
  H   H31       1.0  0.9570109015505108  0.29159788648860285  0.4735960387554456  1.0000
  H   H32       1.0  0.5429846856051909  0.2083962119174956  0.9735962226250693  1.0000
  C   C1        1.0  0.9602638765213314  0.9520274675494917  0.9702500857906529  1.0000
  C   C2        1.0  0.5397320866100869  0.5479704565911733  0.47025122185196017  1.0000
  C   C3        1.0  0.0397101071635575  0.0479625029539861  0.0297521059912427  1.0000
  C   C4        1.0  0.4602849627747431  0.45203801126558557  0.5297509699129819  1.0000
  C   C5        1.0  0.3387033068848027  0.5938050335945277  0.8058681574208251  1.0000
  C   C6        1.0  0.1613004808927271  0.9062071523554208  0.3058677574953421  1.0000
  C   C7        1.0  0.6612981863727753  0.4062025527432879  0.19413472253501854  1.0000
  C   C8        1.0  0.8387049410965799  0.09379867273563039  0.6941364988639196  1.0000
  C   C9        1.0  0.9604646191973815  0.5178869082735317  0.5403163457892006  1.0000
  C   C10       1.0  0.5395368384379607  0.9821076854649746  0.04031543835258591  1.0000
  C   C11       1.0  0.03954270025408847  0.4821092289890955  0.45968446960189624  1.0000
  C   C12       1.0  0.4604507370050115  0.017884047196709198  0.9596805596477155  1.0000
  C   C13       1.0  0.3751458667580891  0.503811076912811  0.8578535243929155  1.0000
  C   C14       1.0  0.12486040821697492  0.9962016471755958  0.3578512795507436  1.0000
  C   C15       1.0  0.6248543057738372  0.49619562862916666  0.1421514201594647  1.0000
  C   C16       1.0  0.8751437264933201  0.0038077007470888997  0.6421495358073059  1.0000
  C   C17       1.0  0.8492743289631903  0.9705567833926237  0.9081730992771639  1.0000
  C   C18       1.0  0.6507248339510454  0.5294415501589427  0.40817377130279914  1.0000
  C   C19       1.0  0.15070690199442538  0.029435829650402895  0.09182771610613122  1.0000
  C   C20       1.0  0.3492906690104717  0.4705651561757236  0.5918284204653332  1.0000
  C   C21       1.0  0.8938745355250148  0.6669100677003997  0.6391226666529095  1.0000
  C   C22       1.0  0.6061266734085891  0.8330909203864183  0.13912942472376952  1.0000
  C   C23       1.0  0.10612888864373819  0.3330922344251235  0.3608747077291454  1.0000
  C   C24       1.0  0.39386947003606554  0.16690433559477214  0.8608679496703857  1.0000
  C   C25       1.0  0.9913462996117345  0.8382283763822611  0.9732295837491806  1.0000
  C   C26       1.0  0.5086525682165828  0.6617765740293748  0.473232898645719  1.0000
  C   C27       1.0  0.008643984187664005  0.1617739250693262  0.026768478823200305  1.0000
  C   C28       1.0  0.49135745958894  0.33823013203450364  0.5267665403253332  1.0000
  C   C29       1.0  0.8697086990761277  0.43429720624211393  0.597024725011444  1.0000
  C   C30       1.0  0.6302863705745594  0.06569937471194007  0.0970224483762507  1.0000
  C   C31       1.0  0.1303023903097795  0.5657050962684096  0.4029747139706217  1.0000
  C   C32       1.0  0.36969946620022404  0.9342941192993736  0.9029749260156876  1.0000
  C   C33       1.0  0.08044881145070087  0.4743067725042279  0.870665602103017  1.0000
  C   C34       1.0  0.4195590983714581  0.025705586441340196  0.37065974148041664  1.0000
  C   C35       1.0  0.9195524561125198  0.5256999330914596  0.12934003064846422  1.0000
  C   C36       1.0  0.5804502523424729  0.9742984774369675  0.6293355683058763  1.0000
  C   C37       1.0  0.9138712733691534  0.7506033811874602  0.9162572354447036  1.0000
  C   C38       1.0  0.5861280928992868  0.7493913761992558  0.416256104371719  1.0000
  C   C39       1.0  0.08610969844320239  0.2493839475063808  0.08374564454614843  1.0000
  C   C40       1.0  0.41388522000011096  0.250615330025731  0.583745399196637  1.0000
  C   C41       1.0  0.7921840646043918  0.4711961159843129  0.6698690173572643  1.0000
  C   C42       1.0  0.7078141979994257  0.028803507788303793  0.16986701004053373  1.0000
  C   C43       1.0  0.207823447093368  0.5287964983997854  0.3301324862406716  1.0000
  C   C44       1.0  0.2921821711414765  0.9711926289259412  0.8301303643516817  1.0000
  C   C45       1.0  0.7749110829892558  0.8782218377045581  0.8544917288498368  1.0000
  C   C46       1.0  0.7250825979008012  0.6217856566758897  0.3544934344372095  1.0000
  C   C47       1.0  0.2250708585075429  0.12177782114697068  0.14550908651732192  1.0000
  C   C48       1.0  0.27493203572662134  0.37822193033359497  0.6455094455267343  1.0000
  C   C49       1.0  0.9729114207831342  0.6370191426179801  0.564396136053304  1.0000
  C   C50       1.0  0.5270833075191844  0.8629788148863398  0.0644040323172064  1.0000
  C   C51       1.0  0.027087104967563412  0.36297259060569337  0.43559917375532115  1.0000
  C   C52       1.0  0.47291064586950426  0.1370164409556835  0.9356016004567067  1.0000
  S   S1        1.0  0.14774794411115982  0.5945236481968266  0.8002316928061577  1.0000
  S   S2        1.0  0.3522567052528203  0.9054876942448901  0.30022809090060326  1.0000
  S   S3        1.0  0.8522564162963348  0.4054865804543867  0.1997704989468119  1.0000
  S   S4        1.0  0.6477502631574409  0.09451989237959418  0.6997727244633439  1.0000
  S   S5        1.0  0.5525261358297938  0.4758166612849165  0.876321504473232  1.0000
  S   S6        1.0  0.9474847484254455  0.024191290030962903  0.3763163736223873  1.0000
  S   S7        1.0  0.4474741954975272  0.5241821177714738  0.1236834400978992  1.0000
  S   S8        1.0  0.05253101367706853  0.9758207006733102  0.623677559752359  1.0000
  S   S9        1.0  0.22431176483163276  0.41056385020744557  0.9098436008656067  1.0000
  S   S10       1.0  0.2756904979788217  0.08944736945330328  0.40983519812574093  1.0000
  S   S11       1.0  0.7756859919438239  0.5894419744827175  0.0901634082826348  1.0000
  S   S12       1.0  0.7243191118817974  0.9105619787673901  0.5901601116482809  1.0000
  S   S13       1.0  0.45965150992287807  0.7016848307286524  0.7450126559504541  1.0000
  S   S14       1.0  0.04035106574388436  0.7983233527391177  0.2450139909187143  1.0000
  S   S15       1.0  0.5403479520670301  0.29831482901843037  0.2549881594275121  1.0000
  S   S16       1.0  0.9596543562444779  0.20168247235646672  0.7549888890436948  1.0000
  S   S17       1.0  0.9025699213399461  0.4293121240591091  0.8995911950592516  1.0000
  S   S18       1.0  0.5974388048334874  0.0706956737328639  0.3995881661968426  1.0000
  S   S19       1.0  0.09743002549337378  0.5706937007611543  0.10041030850293002  1.0000
  S   S20       1.0  0.4025689994575998  0.9293066286210845  0.6004078317910668  1.0000
  N   N1        1.0  0.8063115083080915  0.7695265424807756  0.8579371253286538  1.0000
  N   N2        1.0  0.6936853955103855  0.7304721221256898  0.35794172161557475  1.0000
  N   N3        1.0  0.19366953039661178  0.23046959347254153  0.1420533670698418  1.0000
  N   N4        1.0  0.3063283018787645  0.2695275383558454  0.6420570291758951  1.0000
  N   N5        1.0  0.8020903608413265  0.5858841122434698  0.6901334444378551  1.0000
  N   N6        1.0  0.6979172626823457  0.914115659159336  0.1901399344269521  1.0000
  N   N7        1.0  0.19791174260177516  0.4141173090862227  0.30986599454074343  1.0000
  N   N8        1.0  0.30207752658859016  0.08587431240534468  0.8098629455662021  1.0000
