data_image0
_chemical_formula_structural       Cu6H78C120N18O30
_chemical_formula_sum              "Cu6 H78 C120 N18 O30"
_cell_length_a       19.38303767853385
_cell_length_b       19.38409352273409
_cell_length_c       19.65705392573645
_cell_angle_alpha    60.45941757350551
_cell_angle_beta     60.463477346020596
_cell_angle_gamma    60.02750338612674

_space_group_name_H-M_alt    "P 1"
_space_group_IT_number       1

loop_
  _space_group_symop_operation_xyz
  'x, y, z'

loop_
  _atom_site_type_symbol
  _atom_site_label
  _atom_site_symmetry_multiplicity
  _atom_site_fract_x
  _atom_site_fract_y
  _atom_site_fract_z
  _atom_site_occupancy
  Cu  Cu1       1.0  0.5128374911033191  0.958562990626497  0.570347891402257  1.0000
  Cu  Cu2       1.0  0.9585652370510545  0.9581810188167239  0.5703830799695596  1.0000
  Cu  Cu3       1.0  0.9582375618149471  0.5128760206516958  0.5703422121052808  1.0000
  Cu  Cu4       1.0  0.48717106361660006  0.041430323586382656  0.42965310315766897  1.0000
  Cu  Cu5       1.0  0.041444650996098197  0.04181075932268641  0.42961292143272795  1.0000
  Cu  Cu6       1.0  0.0417597368455418  0.4871271732588767  0.42965688483325687  1.0000
  H   H1        1.0  0.3964037304186121  0.0368468832228928  0.8646051245980074  1.0000
  H   H2        1.0  0.036744296767693606  0.7020946976493504  0.8646803732910938  1.0000
  H   H3        1.0  0.7022362921151101  0.3964347904989511  0.8645543330095291  1.0000
  H   H4        1.0  0.6035930481629492  0.963160159068572  0.1353873188026141  1.0000
  H   H5        1.0  0.9632617804043732  0.29790187881554425  0.13531872562428762  1.0000
  H   H6        1.0  0.2977697488463349  0.6035447382482034  0.13544669249495195  1.0000
  H   H7        1.0  0.2558630610939331  0.28693802772500016  0.8800921777271427  1.0000
  H   H8        1.0  0.28677183529504185  0.5774669877523024  0.8802852274947384  1.0000
  H   H9        1.0  0.5773680360500181  0.2555172938508504  0.8802209164374446  1.0000
  H   H10       1.0  0.7441336052028191  0.7130630357177876  0.11990720055406713  1.0000
  H   H11       1.0  0.7132219226693978  0.42253338530093754  0.11973925009741748  1.0000
  H   H12       1.0  0.4226185755465934  0.7444825949978198  0.11977967055336332  1.0000
  H   H13       1.0  0.4385223628013222  0.9917919749581686  0.9867786661531  1.0000
  H   H14       1.0  0.991716236981759  0.5828243980879932  0.9869315041547251  1.0000
  H   H15       1.0  0.582999974324558  0.43851690128688137  0.9867174098516287  1.0000
  H   H16       1.0  0.561481372362003  0.008216798969996861  0.013210201224652012  1.0000
  H   H17       1.0  0.008282297089245098  0.4171824406893165  0.013068860121805378  1.0000
  H   H18       1.0  0.41700916301140717  0.5614691078298223  0.01328623678476506  1.0000
  H   H19       1.0  0.2931892790841744  0.24280013467490852  0.0031349253476732988  1.0000
  H   H20       1.0  0.2426697969664886  0.4612547588552759  0.0034548535463230536  1.0000
  H   H21       1.0  0.461107552717344  0.2928476820316419  0.0032194783726851176  1.0000
  H   H22       1.0  0.7068099956486833  0.7572060104546096  0.9968582928874954  1.0000
  H   H23       1.0  0.7573100218400128  0.5387585495117192  0.9965787459536201  1.0000
  H   H24       1.0  0.5388853427347655  0.707157046784225  0.9967804581849221  1.0000
  H   H25       1.0  0.3506376567435652  0.1954121412398918  0.09145076328521634  1.0000
  H   H26       1.0  0.19529233632884063  0.36262070887966746  0.09154546040065273  1.0000
  H   H27       1.0  0.36274092409402664  0.3501948244703926  0.09164555141364147  1.0000
  H   H28       1.0  0.6493622914631557  0.8045961756846082  0.9085395905725379  1.0000
  H   H29       1.0  0.80469923966519  0.6373738380100137  0.9084583574742454  1.0000
  H   H30       1.0  0.6372505690155634  0.6498078514566501  0.9083636425513433  1.0000
  H   H31       1.0  0.22982271504285026  0.22306388826901719  0.22317202209799794  1.0000
  H   H32       1.0  0.22293372495764882  0.323854723205848  0.2234574355604337  1.0000
  H   H33       1.0  0.32407685754545673  0.22963277703766494  0.22356867728782956  1.0000
  H   H34       1.0  0.7701751884082882  0.7769337826283689  0.7768283697025636  1.0000
  H   H35       1.0  0.7770622335653598  0.6761470669464842  0.7765470223343414  1.0000
  H   H36       1.0  0.6759254677174907  0.7703657240444952  0.7764297540836582  1.0000
  H   H37       1.0  0.2848739756465051  0.015919551727954204  0.15569433501104163  1.0000
  H   H38       1.0  0.016064230278765003  0.5435817736822346  0.15565950135220424  1.0000
  H   H39       1.0  0.5441183669085491  0.2844566864588742  0.15537227229083325  1.0000
  H   H40       1.0  0.7151320872408958  0.9840793567652572  0.8443057095221391  1.0000
  H   H41       1.0  0.9839328320189014  0.4564100372726259  0.8443542183589013  1.0000
  H   H42       1.0  0.4558858793640681  0.715542950697497  0.8446237040195256  1.0000
  H   H43       1.0  0.15838818385218897  0.37234188971672216  0.6782148395099269  1.0000
  H   H44       1.0  0.3724342574541025  0.7909713802489052  0.6780695103935983  1.0000
  H   H45       1.0  0.791056489412142  0.1581879116927142  0.6782799713656757  1.0000
  H   H46       1.0  0.8416079423504286  0.6276635885831607  0.32177915485171854  1.0000
  H   H47       1.0  0.6275673807979274  0.2090325611920676  0.3219327921853505  1.0000
  H   H48       1.0  0.20894835126971148  0.8418038456258472  0.32171790400975897  1.0000
  H   H49       1.0  0.3672807233381832  0.13895328795575074  0.6795235270750409  1.0000
  H   H50       1.0  0.13896183202115964  0.8141495870317357  0.6793641226187644  1.0000
  H   H51       1.0  0.8143044036968804  0.367219328228643  0.6794646305624495  1.0000
  H   H52       1.0  0.6327230236183395  0.861054911230774  0.3204645872913119  1.0000
  H   H53       1.0  0.8610473657759884  0.18584410862769127  0.32063588138513666  1.0000
  H   H54       1.0  0.18567471122383236  0.6327832438404214  0.3205341485316708  1.0000
  H   H55       1.0  0.2560268214777466  0.2654266582277173  0.4877263188082351  1.0000
  H   H56       1.0  0.26551374838467007  0.9908443231223314  0.4876902203605411  1.0000
  H   H57       1.0  0.9907669518599888  0.2559408253034905  0.4876922047910456  1.0000
  H   H58       1.0  0.7439863792915135  0.7345835497131645  0.5122589505717414  1.0000
  H   H59       1.0  0.7344898222546946  0.009150793679871936  0.5123087079233385  1.0000
  H   H60       1.0  0.0092321640794566  0.7440534282521867  0.5123107503497053  1.0000
  H   H61       1.0  0.09829284382942659  0.19607629571151364  0.3315381662556974  1.0000
  H   H62       1.0  0.1960160289992956  0.3739615509112255  0.33177690285709355  1.0000
  H   H63       1.0  0.3742542361891096  0.09813003949002318  0.33183920010843343  1.0000
  H   H64       1.0  0.9017093998774326  0.8039139110245372  0.6684652211646736  1.0000
  H   H65       1.0  0.8039836742904924  0.6260394806379923  0.6682286953904747  1.0000
  H   H66       1.0  0.6257550241451709  0.90186019945412  0.6681568024340335  1.0000
  H   H67       1.0  0.1483111034079059  0.00020902099343800054  0.2647900890494341  1.0000
  H   H68       1.0  0.00045479694530570035  0.5867093433896287  0.2647442160402633  1.0000
  H   H69       1.0  0.5871691754578663  0.14797461055658798  0.2645911147325252  1.0000
  H   H70       1.0  0.8517000565090384  0.999785852067383  0.7352048768586033  1.0000
  H   H71       1.0  0.9995474206836973  0.41328377011637935  0.7352608700093058  1.0000
  H   H72       1.0  0.41284201236423  0.8520238101393359  0.7354021699605156  1.0000
  H   H73       1.0  0.39766384230549073  0.0997140743977596  0.1595079044464782  1.0000
  H   H74       1.0  0.099585140581155  0.3431908330939777  0.1596648642461247  1.0000
  H   H75       1.0  0.3434685172229806  0.39720906534112993  0.159665148707397  1.0000
  H   H76       1.0  0.6023386453220424  0.9002957352511701  0.8404805536149738  1.0000
  H   H77       1.0  0.9004007414826206  0.6568173863525855  0.8403423257952412  1.0000
  H   H78       1.0  0.6565400779428997  0.6027925018906757  0.8403334728383882  1.0000
  C   C1        1.0  0.32412178072256387  0.16412854450489076  0.8649964092998701  1.0000
  C   C2        1.0  0.16402728444156622  0.6468323229986837  0.8650563479006905  1.0000
  C   C3        1.0  0.6468994633485536  0.324043424931773  0.8649773188068649  1.0000
  C   C4        1.0  0.6758755658583055  0.835877630564582  0.13499973680531935  1.0000
  C   C5        1.0  0.8359755251886369  0.3531681597733821  0.13495110105319694  1.0000
  C   C6        1.0  0.3530965648539208  0.6759537424911174  0.13502266481756917  1.0000
  C   C7        1.0  0.2636124843827332  0.2551353343535255  0.6871174586567506  1.0000
  C   C8        1.0  0.2551404403228047  0.7940437666124679  0.6869999220675637  1.0000
  C   C9        1.0  0.7941488915220631  0.26352397818436657  0.6871186240539017  1.0000
  C   C10       1.0  0.7363931710426428  0.7448692955233795  0.31286889244762517  1.0000
  C   C11       1.0  0.7448604915672588  0.20595796997177737  0.31300731131659637  1.0000
  C   C12       1.0  0.20584523958922324  0.7364667978351633  0.312882203598555  1.0000
  C   C13       1.0  0.1306723867603665  0.3929563630953012  0.5446945585140455  1.0000
  C   C14       1.0  0.3930752143130364  0.9315246916129211  0.5446303788919237  1.0000
  C   C15       1.0  0.9316034943556631  0.13061938430834621  0.5447109414128094  1.0000
  C   C16       1.0  0.869333186776835  0.6070440782813548  0.4552968536495285  1.0000
  C   C17       1.0  0.6069288245816084  0.06846828450244394  0.4553784951779605  1.0000
  C   C18       1.0  0.06840130164489719  0.8693729146901035  0.45528975340182126  1.0000
  C   C19       1.0  0.3811610789663932  0.12428594469270855  0.5461416800426305  1.0000
  C   C20       1.0  0.1242499121704128  0.9485496123954321  0.5461076442329612  1.0000
  C   C21       1.0  0.9485607507975473  0.38104323618247804  0.5460682067355834  1.0000
  C   C22       1.0  0.6188469095815277  0.8757146911472161  0.45385562922692246  1.0000
  C   C23       1.0  0.8757593402739232  0.05143651243740514  0.4538887699061507  1.0000
  C   C24       1.0  0.0514228049539298  0.6189719171327609  0.45392765734201396  1.0000
  C   C25       1.0  0.3752314242132329  0.08077104111031724  0.8958689821526705  1.0000
  C   C26       1.0  0.08067918667308048  0.6481123093774458  0.8959368631195446  1.0000
  C   C27       1.0  0.6482146340111754  0.3752594119320137  0.8957928327451582  1.0000
  C   C28       1.0  0.6247646715927503  0.9192326468411381  0.10412688603037162  1.0000
  C   C29       1.0  0.9193224883703125  0.35188697627233256  0.10406303161686041  1.0000
  C   C30       1.0  0.35178386492890473  0.6247315534071518  0.10420941432241891  1.0000
  C   C31       1.0  0.295048922944396  0.2223417083586341  0.904188301192505  1.0000
  C   C32       1.0  0.22220588056731566  0.5786565797221074  0.9043694077872572  1.0000
  C   C33       1.0  0.5786359868631622  0.29482912170239933  0.9042205606294329  1.0000
  C   C34       1.0  0.7049458784851056  0.7776612084342812  0.09581006470953227  1.0000
  C   C35       1.0  0.7777873841436787  0.42135001506753156  0.09564677885003905  1.0000
  C   C36       1.0  0.42135756412354647  0.7051672021266384  0.0957774223401556  1.0000
  C   C37       1.0  0.39799430921198825  0.055721663887020205  0.963266729536805  1.0000
  C   C38       1.0  0.05565130152623961  0.583000784739383  0.9633762421020222  1.0000
  C   C39       1.0  0.583134590698826  0.39796297957860816  0.9631944824917156  1.0000
  C   C40       1.0  0.6019986262705642  0.944281931976441  0.0367306677841058  1.0000
  C   C41       1.0  0.9443446470308743  0.4170080345596504  0.03662898621834633  1.0000
  C   C42       1.0  0.41687144245611313  0.6020259268744325  0.036807225842260115  1.0000
  C   C43       1.0  0.316661264355929  0.19733682901323849  0.9728260879085155  1.0000
  C   C44       1.0  0.1972155336779622  0.5134100000753961  0.9730733483298835  1.0000
  C   C45       1.0  0.5133749363803731  0.31642338289683647  0.972845129944872  1.0000
  C   C46       1.0  0.683328520104915  0.8026678573072559  0.027172278145272198  1.0000
  C   C47       1.0  0.8027719930856491  0.486602597259264  0.0269488198924818  1.0000
  C   C48       1.0  0.48662176994682227  0.683576547593539  0.027151709099641194  1.0000
  C   C49       1.0  0.3688972734453698  0.1141848877258625  0.0018291278410273466  1.0000
  C   C50       1.0  0.11410413389047142  0.5151696917117761  0.001991050463203773  1.0000
  C   C51       1.0  0.5152430406180387  0.36876511576814863  0.0017817167205434867  1.0000
  C   C52       1.0  0.6311102661983129  0.8858255340164408  0.9981571760447775  1.0000
  C   C53       1.0  0.8858860405920767  0.4848415742317513  0.9980223572641761  1.0000
  C   C54       1.0  0.4847673932537973  0.6312240130662872  0.9982193446007555  1.0000
  C   C55       1.0  0.3553645110739652  0.1285002879601507  0.12344830995134962  1.0000
  C   C56       1.0  0.12840459056607048  0.3927554186365896  0.12358962542928958  1.0000
  C   C57       1.0  0.3930037224540682  0.35501122522651246  0.123510214549853  1.0000
  C   C58       1.0  0.6446347718809163  0.8715058654348051  0.8765443916768733  1.0000
  C   C59       1.0  0.8715888353463727  0.6072478186230086  0.8764163604631818  1.0000
  C   C60       1.0  0.606999127538657  0.6449840187472803  0.876494590157037  1.0000
  C   C61       1.0  0.2702247829942763  0.12001483654318428  0.18150980142173273  1.0000
  C   C62       1.0  0.1200266611668042  0.42827950070497417  0.18162823768113165  1.0000
  C   C63       1.0  0.4286862580048166  0.2698786579302777  0.1814706691676237  1.0000
  C   C64       1.0  0.7297763122566252  0.87998589107022  0.818487143621503  1.0000
  C   C65       1.0  0.8799762485394921  0.5717181496860776  0.8183728631810183  1.0000
  C   C66       1.0  0.5713148418969424  0.7301226609556438  0.8185259956731129  1.0000
  C   C67       1.0  0.21507065514350637  0.1721664115274991  0.23039831373360892  1.0000
  C   C68       1.0  0.1721358290211441  0.38232308755080174  0.23058684683708464  1.0000
  C   C69       1.0  0.3826465847206322  0.21481302854091666  0.2305612394884164  1.0000
  C   C70       1.0  0.7849272976397901  0.8278313089625158  0.7695989784252575  1.0000
  C   C71       1.0  0.8278670227988838  0.6176786108280581  0.7694179752840145  1.0000
  C   C72       1.0  0.6173582459953265  0.7851857579243458  0.7694374063126189  1.0000
  C   C73       1.0  0.24527617500560686  0.0579242372477964  0.19254480708861618  1.0000
  C   C74       1.0  0.0580161815303981  0.5043059005465409  0.19256316475523508  1.0000
  C   C75       1.0  0.5047724175187512  0.24490892040819995  0.1923431072136523  1.0000
  C   C76       1.0  0.7547292752011996  0.9420760801472954  0.8074543541791854  1.0000
  C   C77       1.0  0.9419828135701207  0.4956864717408891  0.8074473468833506  1.0000
  C   C78       1.0  0.4952287231610555  0.7550965456507869  0.8076510796026355  1.0000
  C   C79       1.0  0.14097562752306195  0.1582649690338371  0.2904091606506326  1.0000
  C   C80       1.0  0.1582403966499584  0.41027566592277515  0.2906044947316317  1.0000
  C   C81       1.0  0.4106175063700093  0.1407415489283608  0.2905791393943957  1.0000
  C   C82       1.0  0.8590266744855908  0.8417305756857446  0.709590671733345  1.0000
  C   C83       1.0  0.8417605295095497  0.5897243051093568  0.7094030626530881  1.0000
  C   C84       1.0  0.5893930455171911  0.8592553243068579  0.709414663045763  1.0000
  C   C85       1.0  0.16914204943626743  0.04907796598036637  0.2530593511869341  1.0000
  C   C86       1.0  0.04922186314203  0.5287293578098017  0.25309011552454314  1.0000
  C   C87       1.0  0.5291578941956698  0.1688266888174185  0.2529369067735204  1.0000
  C   C88       1.0  0.8308659433469928  0.9509138751607507  0.7469375116575775  1.0000
  C   C89       1.0  0.9507766562287826  0.47127042702449273  0.7469110281472311  1.0000
  C   C90       1.0  0.47085209758217417  0.8311751657510982  0.7470527813654327  1.0000
  C   C91       1.0  0.2033133079173624  0.3226433038483377  0.6508286990017994  1.0000
  C   C92       1.0  0.32268155792378644  0.8231267882899544  0.6507394495810246  1.0000
  C   C93       1.0  0.8232120052318876  0.2031525717622529  0.6508996114302334  1.0000
  C   C94       1.0  0.7966871771444132  0.6773570753802788  0.3491671701696646  1.0000
  C   C95       1.0  0.6773156159945158  0.17687921320531794  0.34926754527009524  1.0000
  C   C96       1.0  0.176789049905139  0.7968357969863644  0.34909960161684955  1.0000
  C   C97       1.0  0.320696591875155  0.1915908973452504  0.6512735425357903  1.0000
  C   C98       1.0  0.1915663001843413  0.8364222411321194  0.6511667869082914  1.0000
  C   C99       1.0  0.836524129536265  0.32058967374241837  0.6512590994335951  1.0000
  C   C100      1.0  0.6793109530835579  0.8084119039778417  0.3487122711269208  1.0000
  C   C101      1.0  0.8084352572591981  0.16357868608820064  0.3488405329317956  1.0000
  C   C102      1.0  0.16345313945272014  0.6794130109209745  0.34873744146105423  1.0000
  C   C103      1.0  0.2000019051000095  0.3254947034608762  0.5795639545216248  1.0000
  C   C104      1.0  0.3255480860144147  0.8948540601118892  0.5795013129153403  1.0000
  C   C105      1.0  0.8948950123649694  0.19990261037992965  0.5796074776810441  1.0000
  C   C106      1.0  0.7999985656771003  0.6745080077960494  0.42043286026763826  1.0000
  C   C107      1.0  0.6744534728409095  0.10514393554216633  0.42050585811639957  1.0000
  C   C108      1.0  0.10510977790502807  0.8000879230663999  0.42039354113413213  1.0000
  C   C109      1.0  0.3182321162665502  0.19502342672844725  0.5801647633304229  1.0000
  C   C110      1.0  0.19499676834117005  0.9066299743045717  0.5801281497868443  1.0000
  C   C111      1.0  0.9066706429053114  0.3181031645867023  0.5801716167295581  1.0000
  C   C112      1.0  0.681776037469511  0.8049826545457107  0.4198222750124075  1.0000
  C   C113      1.0  0.8050060956041418  0.09336704348677231  0.41987581431255444  1.0000
  C   C114      1.0  0.09331100396179438  0.6819061720668317  0.41982584438746057  1.0000
  C   C115      1.0  0.2583160736483663  0.26252369357780486  0.5433290472190748  1.0000
  C   C116      1.0  0.2625530807185612  0.9358432051709544  0.5432701000318757  1.0000
  C   C117      1.0  0.9358401954101722  0.2582144288736432  0.543343327836162  1.0000
  C   C118      1.0  0.741680606933052  0.737475037836667  0.4566693854443358  1.0000
  C   C119      1.0  0.7374472913942257  0.06415940690072115  0.45673291404077077  1.0000
  C   C120      1.0  0.06415453127348769  0.7417831334048728  0.45665962631616697  1.0000
  N   N1        1.0  0.26621776284545  0.25185620409055093  0.7601808310366351  1.0000
  N   N2        1.0  0.2518479850000119  0.7216830044478896  0.7600424073248176  1.0000
  N   N3        1.0  0.721800418582447  0.2661278558665148  0.7601723407474522  1.0000
  N   N4        1.0  0.7337815458552015  0.748151148380316  0.23981027697269047  1.0000
  N   N5        1.0  0.748152362446703  0.2783195828274713  0.2399621565686801  1.0000
  N   N6        1.0  0.27819372149847515  0.7338682085439245  0.2398280315103064  1.0000
  N   N7        1.0  0.3096465895777668  0.1787427445545903  0.7951399190807962  1.0000
  N   N8        1.0  0.17865314312717123  0.7165216837978292  0.7951504582719552  1.0000
  N   N9        1.0  0.7165623545941456  0.3095861210234007  0.7951066409353729  1.0000
  N   N10       1.0  0.6903438222638557  0.8212675868070393  0.20485855084311297  1.0000
  N   N11       1.0  0.8213522309220095  0.283476210649127  0.2048534400544852  1.0000
  N   N12       1.0  0.2834362169323938  0.6904078502709793  0.20489110547801193  1.0000
  N   N13       1.0  0.118501408974204  0.09672791939687642  0.3027098423229759  1.0000
  N   N14       1.0  0.09681338663160229  0.4820116539285097  0.3028199005235023  1.0000
  N   N15       1.0  0.48239455491615496  0.11824850952950783  0.3027429633435191  1.0000
  N   N16       1.0  0.8815059511132404  0.9032658971223244  0.6972874068745082  1.0000
  N   N17       1.0  0.9031825110981443  0.5179865555269672  0.6971883050140659  1.0000
  N   N18       1.0  0.5176185131375634  0.8817469000675614  0.6972503443128492  1.0000
  O   O1        1.0  0.1393411515084466  0.4037382298420625  0.47180858517841534  1.0000
  O   O2        1.0  0.40392717646781057  0.9849000297287205  0.47171439991296166  1.0000
  O   O3        1.0  0.9849538873899917  0.13935766877551012  0.4717969730916991  1.0000
  O   O4        1.0  0.8606734417208842  0.5962945519515374  0.5281684684526267  1.0000
  O   O5        1.0  0.5960567527778907  0.015108194861475932  0.5282972678192763  1.0000
  O   O6        1.0  0.015039063789011198  0.8606406634933563  0.5281993298030726  1.0000
  O   O7        1.0  0.39224040408595323  0.1343479317634505  0.4727911062295931  1.0000
  O   O8        1.0  0.1343364080154927  0.0007629099961193116  0.4727591158396506  1.0000
  O   O9        1.0  0.0007597440611562001  0.39210791631764164  0.47271351534003253  1.0000
  O   O10       1.0  0.6077669846542548  0.8656547125163173  0.5272045229651425  1.0000
  O   O11       1.0  0.8656740576647622  0.9992250776204655  0.527239922851905  1.0000
  O   O12       1.0  0.9992560227193794  0.6078724564061134  0.5273069657327978  1.0000
  O   O13       1.0  0.41910314354890227  0.0594052342272491  0.5950322621478392  1.0000
  O   O14       1.0  0.05934308270525431  0.9266026989782647  0.5950452486289347  1.0000
  O   O15       1.0  0.9265788720792686  0.41903898699394665  0.5949415232144516  1.0000
  O   O16       1.0  0.5808966362305982  0.9405941144242291  0.4049684940307968  1.0000
  O   O17       1.0  0.9406705672169055  0.073380125397172  0.4049506498916529  1.0000
  O   O18       1.0  0.07336604261848119  0.5810124125727826  0.4050396906403861  1.0000
  O   O19       1.0  0.06700935313347858  0.43250777504233184  0.592837973371168  1.0000
  O   O20       1.0  0.43257602448549903  0.9075545469735717  0.592811135757138  1.0000
  O   O21       1.0  0.9076705050598832  0.0668760741281247  0.5929131107619484  1.0000
  O   O22       1.0  0.9329763967120498  0.5674504507342917  0.4071765024602954  1.0000
  O   O23       1.0  0.5674470574903127  0.09243789004455755  0.40718344121406597  1.0000
  O   O24       1.0  0.09232845358136638  0.9331168481046319  0.40709970370888005  1.0000
  O   O25       1.0  0.39737306313698173  0.08376617524005779  0.06636967506938163  1.0000
  O   O26       1.0  0.0836586724500137  0.4525595299552095  0.06651784400953176  1.0000
  O   O27       1.0  0.4526669449189598  0.39722579718478107  0.06633261982720028  1.0000
  O   O28       1.0  0.602623108494548  0.9162440415054006  0.9336215610653228  1.0000
  O   O29       1.0  0.9163303170338678  0.5474493149937986  0.933491152940114  1.0000
  O   O30       1.0  0.547340370155098  0.6027726668601758  0.933667553819781  1.0000
