data_image0
_chemical_formula_structural       Zn2H44C64I12N4O20
_chemical_formula_sum              "Zn2 H44 C64 I12 N4 O20"
_cell_length_a       12.371430763401039
_cell_length_b       12.847844809154013
_cell_length_c       23.39446950803393
_cell_angle_alpha    89.0753599132236
_cell_angle_beta     84.35347745172847
_cell_angle_gamma    85.93346740815878

_space_group_name_H-M_alt    "P 1"
_space_group_IT_number       1

loop_
  _space_group_symop_operation_xyz
  'x, y, z'

loop_
  _atom_site_type_symbol
  _atom_site_label
  _atom_site_symmetry_multiplicity
  _atom_site_fract_x
  _atom_site_fract_y
  _atom_site_fract_z
  _atom_site_occupancy
  Zn  Zn1       1.0  0.6347095921335895  0.5076031022784165  0.4952056641817323  1.0000
  Zn  Zn2       1.0  0.3919102397590353  0.48677049992763705  0.49798405138928115  1.0000
  H   H1        1.0  0.5971273330199054  0.7559308033524915  0.9296649436658984  1.0000
  H   H2        1.0  0.33404560431425523  0.3326367767290608  0.0743769203745472  1.0000
  H   H3        1.0  0.42987779321855163  0.6508443786827203  0.3407663941127341  1.0000
  H   H4        1.0  0.6487679348331953  0.4347755033404894  0.6728909051700783  1.0000
  H   H5        1.0  0.4855939184798856  0.8277981481180492  0.10932320471560082  1.0000
  H   H6        1.0  0.4591928024592919  0.9109913425003385  0.04915225983131681  1.0000
  H   H7        1.0  0.6364102117137378  0.993696991557954  0.05904534099755672  1.0000
  H   H8        1.0  0.5451890309576514  0.008532874834102701  0.12264100253708685  1.0000
  H   H9        1.0  0.6563111187210211  0.9117652749272976  0.12012494771872895  1.0000
  H   H10       1.0  0.45639647497888813  0.16568225021701724  0.9784708134164506  1.0000
  H   H11       1.0  0.4664141428171079  0.23200646974547826  0.9101428488624496  1.0000
  H   H12       1.0  0.29685953962923867  0.1590311879833237  0.8855235618351788  1.0000
  H   H13       1.0  0.39267229917889784  0.0556450756928797  0.9026008113824776  1.0000
  H   H14       1.0  0.28120960946295537  0.0943203539317565  0.9537015857149459  1.0000
  H   H15       1.0  0.3976146179808568  0.8015063888722411  0.29053169624600633  1.0000
  H   H16       1.0  0.27902870013763  0.729608977195298  0.30372342297372523  1.0000
  H   H17       1.0  0.2048238843863643  0.812281348972988  0.21574166686073687  1.0000
  H   H18       1.0  0.2327209674513712  0.9092549485764465  0.2649378925943538  1.0000
  H   H19       1.0  0.32404288319072805  0.8827357917030555  0.20248391143506694  1.0000
  H   H20       1.0  0.7822928131214868  0.4439467915405189  0.731211179551224  1.0000
  H   H21       1.0  0.7361892450001406  0.3156566689975405  0.7319260473465122  1.0000
  H   H22       1.0  0.7979051868167986  0.2846529941945236  0.8309163917085062  1.0000
  H   H23       1.0  0.907660375037452  0.3182095204300738  0.7806111401148289  1.0000
  H   H24       1.0  0.8438492844567665  0.413140843857235  0.8300080922451871  1.0000
  H   H25       1.0  0.7375760153751191  0.14332934629938882  0.41576287331079004  1.0000
  H   H26       1.0  0.8403649899576353  0.0664351327320603  0.4490627191616953  1.0000
  H   H27       1.0  0.9290369180637228  0.234104469604155  0.4680406360795503  1.0000
  H   H28       1.0  0.920846283437051  0.21355630697625835  0.3938806318182986  1.0000
  H   H29       1.0  0.8262494877719178  0.3055858484034459  0.4318642274569628  1.0000
  H   H30       1.0  0.12714411858473804  0.9100827685723872  0.5494705782977009  1.0000
  H   H31       1.0  0.22468376278696675  0.8218365001972359  0.5796013856973163  1.0000
  H   H32       1.0  0.13781970351760006  0.6712395425798833  0.5410708125735513  1.0000
  H   H33       1.0  0.04472267721626367  0.7468284499327283  0.5898397347417446  1.0000
  H   H34       1.0  0.03482349729936368  0.7590559441042047  0.5146705854777738  1.0000
  H   H35       1.0  0.27491354258450684  0.1666253012786427  0.528980407989309  1.0000
  H   H36       1.0  0.21090776906969216  0.0645003345719459  0.5688204911630381  1.0000
  H   H37       1.0  0.0430182520229465  0.1032679032922204  0.5156663159801909  1.0000
  H   H38       1.0  0.07569957878633463  0.2140285074768755  0.5537145860837998  1.0000
  H   H39       1.0  0.10948026505607801  0.20637589496031694  0.4779118032133384  1.0000
  H   H40       1.0  0.696364916617526  0.9805973259789625  0.6269067202014045  1.0000
  H   H41       1.0  0.7735332475795648  0.07507130828762602  0.5864941075080881  1.0000
  H   H42       1.0  0.923609893911376  0.9366058029479872  0.5616473084403923  1.0000
  H   H43       1.0  0.895259543382892  0.9471278065339986  0.6376023025666415  1.0000
  H   H44       1.0  0.8461021646760329  0.8424667559385314  0.60074997392627  1.0000
  C   C1        1.0  0.4335186706672334  0.6897619427154641  0.5035039359104588  1.0000
  C   C2        1.0  0.5395555836009011  0.2982804520049598  0.4880134214073524  1.0000
  C   C3        1.0  0.5832148007227077  0.4659997041214723  0.22551906954905834  1.0000
  C   C4        1.0  0.39749709447863796  0.5665344183744594  0.7629477458174923  1.0000
  C   C5        1.0  0.6050216589463986  0.4546730468460041  0.2833294736714223  1.0000
  C   C6        1.0  0.4035991738620198  0.5707463512578954  0.7025044423339895  1.0000
  C   C7        1.0  0.5486170194005666  0.522663308069987  0.3239467461354908  1.0000
  C   C8        1.0  0.495414955454443  0.5211282808159724  0.6708920685965156  1.0000
  C   C9        1.0  0.47347533975464284  0.6014622657483601  0.3075208327204139  1.0000
  C   C10       1.0  0.5789337253639106  0.4701607386119164  0.6992980357948116  1.0000
  C   C11       1.0  0.45242851206086954  0.6134630501065104  0.2502296530456079  1.0000
  C   C12       1.0  0.5725888594701375  0.4660025373125408  0.7590701894099684  1.0000
  C   C13       1.0  0.506600161492351  0.5437592333803138  0.20936025885450255  1.0000
  C   C14       1.0  0.4809926790184208  0.51462573773604  0.7907638421925826  1.0000
  C   C15       1.0  0.5454524546668651  0.18040525000264296  0.48580149014236457  1.0000
  C   C16       1.0  0.42692681701154106  0.8068975391186514  0.5103051940960911  1.0000
  C   C17       1.0  0.3406724853167161  0.9775295557563198  0.4871837592326644  1.0000
  C   C18       1.0  0.6253631470778134  0.015035502881410406  0.5228853861615834  1.0000
  C   C19       1.0  0.33511970346935277  0.8704942382194787  0.4939444699329487  1.0000
  C   C20       1.0  0.6343381530718732  0.11903264588106309  0.506176373902463  1.0000
  C   C21       1.0  0.5126289920793213  0.8576414268553025  0.5301311678968049  1.0000
  C   C22       1.0  0.45700210663749635  0.12830616585437582  0.47148418196833586  1.0000
  C   C23       1.0  0.5561380794506406  0.5113940402250068  0.38771206357908045  1.0000
  C   C24       1.0  0.5087368220839039  0.5131879917828286  0.6062889361518915  1.0000
  C   C25       1.0  0.5275501898448028  0.964655359416753  0.5167053684406471  1.0000
  C   C26       1.0  0.4416677613718108  0.024100832617520506  0.48952245724304094  1.0000
  C   C27       1.0  0.055367263807355016  0.4591570005712386  0.5772855879132168  1.0000
  C   C28       1.0  0.9724949567024556  0.5978241221592029  0.44689707802487544  1.0000
  C   C29       1.0  0.16575589210019365  0.4338603956490914  0.5620680394703046  1.0000
  C   C30       1.0  0.8609412175678275  0.6091486750746569  0.46344822919306966  1.0000
  C   C31       1.0  0.15163260430698952  0.49238485324300296  0.4677259364913412  1.0000
  C   C32       1.0  0.8726322465021926  0.48328592303405327  0.5351328005964009  1.0000
  C   C33       1.0  0.03901906161582503  0.527945066716505  0.4796694854935526  1.0000
  C   C34       1.0  0.9886665770499122  0.4919787878144106  0.5334435045533612  1.0000
  C   C35       1.0  0.43272647874427866  0.4371686925505856  0.8847741452509797  1.0000
  C   C36       1.0  0.530741906239989  0.6328679289286897  0.11747277178065474  1.0000
  C   C37       1.0  0.5332517199965281  0.601002553227012  0.8726207322647428  1.0000
  C   C38       1.0  0.41400079880723695  0.48064208799176816  0.13170058176410046  1.0000
  C   C39       1.0  0.5239890952541658  0.6100647633150302  0.9356852120206302  1.0000
  C   C40       1.0  0.4172702310651531  0.4733009158539688  0.06850498055387533  1.0000
  C   C41       1.0  0.4735494736651305  0.5337546048336251  0.971626308918623  1.0000
  C   C42       1.0  0.46891606404298625  0.5481542056787205  0.03215297515099281  1.0000
  C   C43       1.0  0.43087909486416026  0.4453536601389203  0.9479619136860297  1.0000
  C   C44       1.0  0.5137707543472488  0.6353414123115828  0.05584337694130432  1.0000
  C   C45       1.0  0.5618729592554034  0.6972557468883096  0.9585539475153556  1.0000
  C   C46       1.0  0.37351057706371193  0.38911272699930083  0.045597884674613516  1.0000
  C   C47       1.0  0.5541057836178639  0.7136917146916701  0.018303470322635504  1.0000
  C   C48       1.0  0.3820567406667976  0.371784146085993  0.9858914423060272  1.0000
  C   C49       1.0  0.5232866980375165  0.873055431168794  0.07357888081634913  1.0000
  C   C50       1.0  0.5949552866376068  0.9514044112173181  0.09502504578998842  1.0000
  C   C51       1.0  0.40991793844111873  0.2005805620941956  0.9441431242995935  1.0000
  C   C52       1.0  0.34062966920089377  0.12281826996317594  0.9201387889308495  1.0000
  C   C53       1.0  0.3327112914194857  0.7663729692500425  0.26989873005578613  1.0000
  C   C54       1.0  0.2697692828001977  0.8471436064768342  0.2360782565260565  1.0000
  C   C55       1.0  0.7509177373763266  0.38112652705273586  0.7594666966916537  1.0000
  C   C56       1.0  0.8293927043203201  0.34739842532177795  0.8030140623934587  1.0000
  C   C57       1.0  0.7961315153621487  0.144003787553558  0.44829170522181283  1.0000
  C   C58       1.0  0.872376138873179  0.22998903369426674  0.4351414914970207  1.0000
  C   C59       1.0  0.17046906777289916  0.8321528620083356  0.5449255674847537  1.0000
  C   C60       1.0  0.09205057368365742  0.7469960421927838  0.547514971020732  1.0000
  C   C61       1.0  0.21366149079798902  0.10872062882196332  0.5279109205096975  1.0000
  C   C62       1.0  0.10383339915212993  0.16094286210481812  0.51810501785031  1.0000
  C   C63       1.0  0.758436918039692  0.991874906337685  0.5906124941550319  1.0000
  C   C64       1.0  0.862027699369321  0.9254633508564042  0.5979133533716452  1.0000
  I   I1        1.0  0.8106177697605759  0.35147409227805343  0.5770106444363635  1.0000
  I   I2        1.0  0.222078763153263  0.4768198981699782  0.38289388189703305  1.0000
  I   I3        1.0  0.760836616512222  0.7343665580402146  0.43745341835667545  1.0000
  I   I4        1.0  0.2561196338471063  0.3459368558586818  0.6196181396661161  1.0000
  I   I5        1.0  0.9943782681898699  0.47184921367291116  0.6636494971700275  1.0000
  I   I6        1.0  0.03995263484960532  0.7033253396529561  0.38638690572717155  1.0000
  I   I7        1.0  0.6646034032883179  0.36924604387211707  0.16092308067612046  1.0000
  I   I8        1.0  0.2657880763503684  0.6375513199351276  0.815524225782703  1.0000
  I   I9        1.0  0.7126066724199589  0.3340865578775905  0.3104942265228487  1.0000
  I   I10       1.0  0.28286443610181783  0.659717450952165  0.6622079658324795  1.0000
  I   I11       1.0  0.3664899680582679  0.1987553291986828  0.4067222073354559  1.0000
  I   I12       1.0  0.5939027941108892  0.7806023908032885  0.5962376785987902  1.0000
  N   N1        1.0  0.480854835049442  0.5180765795029315  0.8518787557006394  1.0000
  N   N2        1.0  0.4819012065754364  0.5533380429874982  0.15098396060790986  1.0000
  N   N3        1.0  0.8117509565487143  0.5383616263438995  0.5006511937409928  1.0000
  N   N4        1.0  0.21164812946985023  0.44997240307350245  0.5076071956769044  1.0000
  O   O1        1.0  0.5292751351020542  0.646367712241826  0.49781119263729334  1.0000
  O   O2        1.0  0.44303426456004763  0.33700263790474577  0.5027315141116874  1.0000
  O   O3        1.0  0.34722987296051155  0.6419267930660907  0.4997937780853052  1.0000
  O   O4        1.0  0.6244750307217688  0.348283516458615  0.48075340062352023  1.0000
  O   O5        1.0  0.6463930888478161  0.5220125644906092  0.40783837140008233  1.0000
  O   O6        1.0  0.42308211819415226  0.5083015075215584  0.5817952433377587  1.0000
  O   O7        1.0  0.4663182894567157  0.49428210595083055  0.41588445227837684  1.0000
  O   O8        1.0  0.6060126020920364  0.5077043565159585  0.5817563299982427  1.0000
  O   O9        1.0  0.39416004084137063  0.36725059475016064  0.8596770489631144  1.0000
  O   O10       1.0  0.5880902924997644  0.691772144256909  0.13995479883292464  1.0000
  O   O11       1.0  0.5805532616225336  0.6620655912317804  0.8395994413515455  1.0000
  O   O12       1.0  0.3617858538929043  0.4247366435913734  0.1655604865601604  1.0000
  O   O13       1.0  0.591418089353475  0.8046757783054446  0.03369750330897152  1.0000
  O   O14       1.0  0.33692068180912577  0.2847334435993218  0.9697219681842174  1.0000
  O   O15       1.0  0.3813693307668232  0.6875038573982833  0.230211460130768  1.0000
  O   O16       1.0  0.6497798941710542  0.4193563256523732  0.7903228605902516  1.0000
  O   O17       1.0  0.7345054917938045  0.1599206636863073  0.5045304836373177  1.0000
  O   O18       1.0  0.23712545065720997  0.828581444689924  0.4902163085936736  1.0000
  O   O19       1.0  0.24529714616048182  0.035996876780167504  0.4811800459663972  1.0000
  O   O20       1.0  0.7159762974070534  0.958206162879961  0.5385669418687444  1.0000
