data_image0
_chemical_formula_structural       Zn8H42C72S6N6O32
_chemical_formula_sum              "Zn8 H42 C72 S6 N6 O32"
_cell_length_a       16.00179791552887
_cell_length_b       17.065788345291846
_cell_length_c       16.80810205873275
_cell_angle_alpha    64.21716011997873
_cell_angle_beta     63.37465627445889
_cell_angle_gamma    63.44260233208236

_space_group_name_H-M_alt    "P 1"
_space_group_IT_number       1

loop_
  _space_group_symop_operation_xyz
  'x, y, z'

loop_
  _atom_site_type_symbol
  _atom_site_label
  _atom_site_symmetry_multiplicity
  _atom_site_fract_x
  _atom_site_fract_y
  _atom_site_fract_z
  _atom_site_occupancy
  Zn  Zn1       1.0  0.1127395937052355  0.9375567916800523  0.949096195630773  1.0000
  Zn  Zn2       1.0  0.9003445126647805  0.9263699646603527  0.996525554260444  1.0000
  Zn  Zn3       1.0  0.9240697177472583  0.11314455028971793  0.9890219020787187  1.0000
  Zn  Zn4       1.0  0.9617289388056635  0.9258920699633038  0.14913725141799009  1.0000
  Zn  Zn5       1.0  0.32277480290481725  0.5298126302371244  0.5332327455447583  1.0000
  Zn  Zn6       1.0  0.4997667870193041  0.5153684909673402  0.5908875852152632  1.0000
  Zn  Zn7       1.0  0.5449646006095251  0.5103912929485261  0.38092855390191716  1.0000
  Zn  Zn8       1.0  0.492245419431299  0.35161598341208133  0.5608987892038542  1.0000
  H   H1        1.0  0.046637549833661834  0.5440729623247692  0.8937951899529891  1.0000
  H   H2        1.0  0.9768813420046811  0.512634809788203  0.7089603557787072  1.0000
  H   H3        1.0  0.04780835406513964  0.6232439917612781  0.5409092437414387  1.0000
  H   H4        1.0  0.12794409549447044  0.7175738692747017  0.5692018608844336  1.0000
  H   H5        1.0  0.30039494182722115  0.7629648845840934  0.810356319663974  1.0000
  H   H6        1.0  0.3665607555197711  0.652572209916471  0.7910145503861159  1.0000
  H   H7        1.0  0.3535633814662448  0.7508220107355399  0.6955633792758178  1.0000
  H   H8        1.0  0.41861425180724154  0.07113606162032231  0.5999743686854302  1.0000
  H   H9        1.0  0.5097709500177315  0.17810435715879444  0.32425442796771625  1.0000
  H   H10       1.0  0.3924168013098566  0.35587616247346443  0.2814147389905628  1.0000
  H   H11       1.0  0.25115346222364104  0.380663623912092  0.44595497749561025  1.0000
  H   H12       1.0  0.12803667386984333  0.2588895784730312  0.88278381977495  1.0000
  H   H13       1.0  0.19408849550186602  0.33807151273612124  0.800209344398624  1.0000
  H   H14       1.0  0.07054732759138457  0.3613526363988768  0.810760725692255  1.0000
  H   H15       1.0  0.5209479858771715  0.8250664967209147  0.047110481769394114  1.0000
  H   H16       1.0  0.6104434628767026  0.9085532543116416  0.173569038843631  1.0000
  H   H17       1.0  0.5061537875452375  0.8670334303566631  0.35896121458901586  1.0000
  H   H18       1.0  0.36725317396815166  0.8038677377621114  0.37640816575403585  1.0000
  H   H19       1.0  0.1501438080399566  0.6839263993260616  0.25633993608757794  1.0000
  H   H20       1.0  0.21065096247163234  0.6257452225021327  0.34368883825976576  1.0000
  H   H21       1.0  0.10861958677501352  0.7267592695944246  0.3505367176778265  1.0000
  H   H22       1.0  0.760876994895831  0.9867961157031573  0.733349899726484  1.0000
  H   H23       1.0  0.04657645797830401  0.8678196716776938  0.6214021556984906  1.0000
  H   H24       1.0  0.1494049628089797  0.9409605582448535  0.6490282743480763  1.0000
  H   H25       1.0  0.012429539162482683  0.0807537275270604  0.7208777332535449  1.0000
  H   H26       1.0  0.6428736455418617  0.2706076640568896  0.9096917983746308  1.0000
  H   H27       1.0  0.722139757072398  0.3363181676450679  0.8296411029281573  1.0000
  H   H28       1.0  0.6071714311193334  0.3649063852582941  0.8149441416439133  1.0000
  H   H29       1.0  0.9009482100810188  0.5668271140709465  0.4435112097432565  1.0000
  H   H30       1.0  0.7856221390116362  0.5643984056307688  0.7116744147192406  1.0000
  H   H31       1.0  0.5883019587774427  0.6529037687106792  0.7440041296776556  1.0000
  H   H32       1.0  0.5571239586108517  0.7110816417870753  0.5775647957361443  1.0000
  H   H33       1.0  0.7798418283467967  0.6192471757338396  0.19410355486638758  1.0000
  H   H34       1.0  0.6567440915319126  0.6900997956686863  0.2158148454561797  1.0000
  H   H35       1.0  0.7529343094170001  0.7393399398626104  0.13519185742539  1.0000
  H   H36       1.0  0.9816272036723888  0.04281601565981671  0.3142226357966609  1.0000
  H   H37       1.0  0.9708986844659936  0.7932758864973835  0.480419885863732  1.0000
  H   H38       1.0  0.7807003675343794  0.7949661289700813  0.5479357958267527  1.0000
  H   H39       1.0  0.6769494916468515  0.9654427754268938  0.4634164830356437  1.0000
  H   H40       1.0  0.8246759025484209  0.3113932293650308  0.12709557795489698  1.0000
  H   H41       1.0  0.719411129272629  0.3053660455000228  0.12409605079126601  1.0000
  H   H42       1.0  0.7057791116982841  0.3777931028633504  0.18345247179624388  1.0000
  C   C1        1.0  0.015678811323667143  0.526232504995143  0.8584844558409584  1.0000
  C   C2        1.0  0.0327463409840902  0.5729088548293645  0.7601005006937528  1.0000
  C   C3        1.0  0.013456708469675463  0.5599164994233662  0.6943060028186635  1.0000
  C   C4        1.0  0.05100052935169692  0.61766546238389  0.6063185929666091  1.0000
  C   C5        1.0  0.09266046453030437  0.6658075874246948  0.61879240154547  1.0000
  C   C6        1.0  0.11790093358444406  0.6714120627642616  0.7497413501474738  1.0000
  C   C7        1.0  0.1290200126564827  0.7537192263884835  0.8315211966971318  1.0000
  C   C8        1.0  0.093247443642113  0.814230165677316  0.8888326459758601  1.0000
  C   C9        1.0  0.22189262886224984  0.7132278640346924  0.7773485943041224  1.0000
  C   C10       1.0  0.31543235868031155  0.72077908024783  0.7688195498627621  1.0000
  C   C11       1.0  0.21563225791415164  0.6635449766541442  0.7305984730936927  1.0000
  C   C12       1.0  0.29953478338402556  0.60367043846437  0.6753402362719784  1.0000
  C   C13       1.0  0.45136425832500754  0.083393803045432  0.523206776530948  1.0000
  C   C14       1.0  0.40982801862517704  0.17330118019959434  0.4666697548500096  1.0000
  C   C15       1.0  0.44520920296268685  0.21348971505930342  0.37099287070001447  1.0000
  C   C16       1.0  0.3851279197983929  0.3053172033951626  0.3493796467383062  1.0000
  C   C17       1.0  0.3128914006191081  0.3207273541602618  0.4316877794792404  1.0000
  C   C18       1.0  0.2666142349876067  0.23119483206117764  0.5958337759383028  1.0000
  C   C19       1.0  0.15559740981657202  0.18372791089782942  0.7535311673072584  1.0000
  C   C20       1.0  0.10188993795506456  0.12675486626539373  0.8378135853824276  1.0000
  C   C21       1.0  0.1766732945920353  0.2600571414897956  0.740467050627622  1.0000
  C   C22       1.0  0.14107039730612314  0.30659077452661165  0.8124063943641175  1.0000
  C   C23       1.0  0.24206716615038465  0.2860280980600436  0.6490432208852965  1.0000
  C   C24       1.0  0.2958125296222249  0.35252329488611167  0.6168918955856313  1.0000
  C   C25       1.0  0.5517657824566483  0.8596603922714227  0.0655816060865248  1.0000
  C   C26       1.0  0.5119021426890953  0.8601727339221912  0.16187444126749978  1.0000
  C   C27       1.0  0.5487024494425441  0.8819960395885644  0.20798116209093112  1.0000
  C   C28       1.0  0.4957208243148231  0.8589020681720214  0.30380022530317746  1.0000
  C   C29       1.0  0.42611049608387214  0.8242569164461813  0.3153998254854074  1.0000
  C   C30       1.0  0.36709240260509535  0.8067833711916921  0.21468252460346088  1.0000
  C   C31       1.0  0.2337411176856037  0.823576374163338  0.1674869606917468  1.0000
  C   C32       1.0  0.1662243948217891  0.8556789857226336  0.11556331457337168  1.0000
  C   C33       1.0  0.24085334477501877  0.7514262784042387  0.24865194305817082  1.0000
  C   C34       1.0  0.17493037866466923  0.6926797920441317  0.3021043027348328  1.0000
  C   C35       1.0  0.3213536995255665  0.7396039761195183  0.2730909986000185  1.0000
  C   C36       1.0  0.3604728468480688  0.6580034501103214  0.3448988162837522  1.0000
  C   C37       1.0  0.834262076505496  0.9486942554357399  0.6933090810675183  1.0000
  C   C38       1.0  0.9178465921450256  0.9716030942571336  0.6799357061039756  1.0000
  C   C39       1.0  0.01782502899299475  0.924745226989238  0.6491432534154952  1.0000
  C   C40       1.0  0.07038598874337508  0.9622930726163332  0.6641340854031837  1.0000
  C   C41       1.0  0.0023203019618591885  0.03246757664080491  0.7028715911721904  1.0000
  C   C42       1.0  0.8268639552404125  0.11564027223739974  0.7265335396058249  1.0000
  C   C43       1.0  0.6939784050195075  0.2606815919545937  0.6996820833702415  1.0000
  C   C44       1.0  0.6156445597367294  0.329453234197466  0.6600403195815759  1.0000
  C   C45       1.0  0.7179677909923825  0.24562440477912872  0.7762019566191822  1.0000
  C   C46       1.0  0.6689210284213587  0.308145283849683  0.8358491181486016  1.0000
  C   C47       1.0  0.7928543133649271  0.15936964856149421  0.7934170296594161  1.0000
  C   C48       1.0  0.8246681260310496  0.11325366748180703  0.8780575084995377  1.0000
  C   C49       1.0  0.888820368433606  0.5606324059992148  0.5165423305245086  1.0000
  C   C50       1.0  0.7883067860148428  0.6004780560832971  0.5683275903500231  1.0000
  C   C51       1.0  0.7453361106132165  0.5974646107692437  0.6620595443769375  1.0000
  C   C52       1.0  0.6434205678370687  0.6426159569382366  0.6786290146762752  1.0000
  C   C53       1.0  0.6248416231346496  0.6728180640828044  0.5951448024582361  1.0000
  C   C54       1.0  0.727479998814509  0.6795470089561703  0.43152733357175793  1.0000
  C   C55       1.0  0.7829977646318866  0.7630098596912092  0.2665726129495454  1.0000
  C   C56       1.0  0.8250213175773806  0.83121504288971  0.18646731297904776  1.0000
  C   C57       1.0  0.7393740360900483  0.7023053128118448  0.2788496524447198  1.0000
  C   C58       1.0  0.7316735556875144  0.6878787593422758  0.20109051618861415  1.0000
  C   C59       1.0  0.7043769305671503  0.6552445595218191  0.3762105005751051  1.0000
  C   C60       1.0  0.6447079288716964  0.5932020487735344  0.41595821362599134  1.0000
  C   C61       1.0  0.9974795158617695  0.9681118189732206  0.3515526772954587  1.0000
  C   C62       1.0  0.9139983341656046  0.9343201963662795  0.398304341654786  1.0000
  C   C63       1.0  0.9086729773814288  0.8488361896125698  0.4610080308170691  1.0000
  C   C64       1.0  0.8099341097741547  0.8502651091853721  0.4967221782132681  1.0000
  C   C65       1.0  0.7551090129902035  0.9365033276265466  0.4556690429224305  1.0000
  C   C66       1.0  0.781680481818448  0.08323619863445943  0.3553729639886783  1.0000
  C   C67       1.0  0.680688951321443  0.24512985717124994  0.3433509776205028  1.0000
  C   C68       1.0  0.6078636248255904  0.32444807318483987  0.37637464888619837  1.0000
  C   C69       1.0  0.7439374806240406  0.23463960914413923  0.2565261550041384  1.0000
  C   C70       1.0  0.7483761249421123  0.3121105933741575  0.16821793831717702  1.0000
  C   C71       1.0  0.8017628958508993  0.14005587683247  0.26302301943633927  1.0000
  C   C72       1.0  0.8656431125319484  0.10308874340978492  0.18290633733466435  1.0000
  S   S1        1.0  0.03557998473823424  0.7349664900300612  0.8241178963919822  1.0000
  S   S2        1.0  0.21260883913688391  0.14584273097183606  0.656099228319043  1.0000
  S   S3        1.0  0.3171120235257233  0.8809439334073804  0.12704410517400777  1.0000
  S   S4        1.0  0.7659577244208934  0.17490170309907432  0.6458433365519128  1.0000
  S   S5        1.0  0.7859684220410943  0.7603871836282324  0.36895622275771695  1.0000
  S   S6        1.0  0.6908831630826526  0.14268044766981092  0.4314687999991519  1.0000
  N   N1        1.0  0.08197402653463118  0.6389803448377408  0.7116237935483696  1.0000
  N   N2        1.0  0.3277285057124217  0.24121440991702775  0.5030225327742742  1.0000
  N   N3        1.0  0.4356370192945818  0.8242936267365336  0.2296407003913996  1.0000
  N   N4        1.0  0.9094486647309736  0.03868249600508019  0.7126500228270061  1.0000
  N   N5        1.0  0.7119650582113265  0.6469312561550566  0.5283135560708059  1.0000
  N   N6        1.0  0.8177873422047385  0.9881459635771748  0.39480474504924223  1.0000
  O   O1        1.0  0.9719440939678705  0.9791765437157808  0.01776942620348597  1.0000
  O   O2        1.0  0.9714478569859538  0.4688861002559506  0.9028193316952979  1.0000
  O   O3        1.0  0.9996440018382062  0.8396213036051209  0.925503240144799  1.0000
  O   O4        1.0  0.15392282093235815  0.8372550283580724  0.8974353390543967  1.0000
  O   O5        1.0  0.3870330108874924  0.6031124304773741  0.6558025146642096  1.0000
  O   O6        1.0  0.2793743382161724  0.5531341626402122  0.6528649522249453  1.0000
  O   O7        1.0  0.5202583214073329  0.0222773963956655  0.4905580963253158  1.0000
  O   O8        1.0  0.1253375371079812  0.0442480431579568  0.8373337826946994  1.0000
  O   O9        1.0  0.037265113071363494  0.16103510887471373  0.9037015250837827  1.0000
  O   O10       1.0  0.2650918404518733  0.43359126007879223  0.5664843857562333  1.0000
  O   O11       1.0  0.3721803311060796  0.3187517146347148  0.642272250148025  1.0000
  O   O12       1.0  0.6174763243096919  0.8929313124330209  0.006832951080177378  1.0000
  O   O13       1.0  0.18920522740992862  0.9059311862721628  0.03062002977107159  1.0000
  O   O14       1.0  0.08746464675058979  0.8322755931194122  0.15854634770534665  1.0000
  O   O15       1.0  0.29825093879460945  0.6350293125105182  0.42493666321927753  1.0000
  O   O16       1.0  0.4524564418643351  0.6168121175847503  0.31819670935256267  1.0000
  O   O17       1.0  0.8425301926277415  0.8890044332851519  0.6652899498692121  1.0000
  O   O18       1.0  0.6018189900331734  0.3032780754757595  0.6068989458861936  1.0000
  O   O19       1.0  0.5687874106781907  0.4068635446618033  0.676744668271155  1.0000
  O   O20       1.0  0.8422556345730925  0.16047692705534194  0.9068905190745653  1.0000
  O   O21       1.0  0.829310424070421  0.029016897739502702  0.9145889554516629  1.0000
  O   O22       1.0  0.9584331703626674  0.5213176265466544  0.5481719539965014  1.0000
  O   O23       1.0  0.8528450717452358  0.8764123710660172  0.20929900192360426  1.0000
  O   O24       1.0  0.8301965144053723  0.8437890882537789  0.10405437984505982  1.0000
  O   O25       1.0  0.6468582073789193  0.5575376788572016  0.3618963423594436  1.0000
  O   O26       1.0  0.5942678770220056  0.5823067714737034  0.5019500699251793  1.0000
  O   O27       1.0  0.08200708746461773  0.919094465912174  0.35287570511875543  1.0000
  O   O28       1.0  0.5444407908517591  0.3030888632365389  0.45626890795190167  1.0000
  O   O29       1.0  0.6121434187378585  0.40570665339660644  0.32857402139792674  1.0000
  O   O30       1.0  0.852715596963769  0.15149765408984447  0.10348485434324306  1.0000
  O   O31       1.0  0.9283774890045394  0.023292824117632404  0.19948321684617537  1.0000
  O   O32       1.0  0.4653556796828227  0.483914329742838  0.5121251616248726  1.0000
