data_image0
_chemical_formula_structural       Cu2H32C32N8O8
_chemical_formula_sum              "Cu2 H32 C32 N8 O8"
_cell_length_a       8.32021097187399
_cell_length_b       8.808290726508616
_cell_length_c       13.782714532237126
_cell_angle_alpha    73.45903053792769
_cell_angle_beta     72.41126672163485
_cell_angle_gamma    61.79352056774931

_space_group_name_H-M_alt    "P 1"
_space_group_IT_number       1

loop_
  _space_group_symop_operation_xyz
  'x, y, z'

loop_
  _atom_site_type_symbol
  _atom_site_label
  _atom_site_symmetry_multiplicity
  _atom_site_fract_x
  _atom_site_fract_y
  _atom_site_fract_z
  _atom_site_occupancy
  Cu  Cu1       1.0  0.999998974770385  4.6884610330146577e-07  3.0110637467611983e-06  1.0000
  Cu  Cu2       1.0  0.9999998789919644  0.4999995480509298  0.49999788965620695  1.0000
  H   H1        1.0  0.45122916999047646  0.1311065337179755  0.9377071540097573  1.0000
  H   H2        1.0  0.5201078294043099  0.3686553573914892  0.5623883813809981  1.0000
  H   H3        1.0  0.5487871689185297  0.8688961030029247  0.06229178071696848  1.0000
  H   H4        1.0  0.4799073227496819  0.6313354847450513  0.4376094363152275  1.0000
  H   H5        1.0  0.10927018293492809  0.0453338991642056  0.754638808459184  1.0000
  H   H6        1.0  0.9086209521463788  0.45464654435629376  0.745332353844496  1.0000
  H   H7        1.0  0.8907228203229782  0.9546675209894816  0.24536642679267828  1.0000
  H   H8        1.0  0.0913779184338921  0.5453508801202959  0.25466799273388563  1.0000
  H   H9        1.0  0.5812366857713446  0.561319826297165  0.7879844511724767  1.0000
  H   H10       1.0  0.9310744446267455  0.937964972058161  0.7120879993261795  1.0000
  H   H11       1.0  0.418753523821323  0.43867635062473204  0.2120201714027984  1.0000
  H   H12       1.0  0.06892501785868897  0.062032305340658005  0.28790180674970134  1.0000
  H   H13       1.0  0.37041443245665573  0.6336541653766898  0.9821256484448779  1.0000
  H   H14       1.0  0.9868331659849118  0.8658167964389776  0.5179431237868213  1.0000
  H   H15       1.0  0.6295792950567292  0.3663394168761586  0.01788066671455369  1.0000
  H   H16       1.0  0.013163940256163333  0.1341739674887776  0.48204884136565335  1.0000
  H   H17       1.0  0.20622494677198946  0.19612028786605157  0.8451518416358396  1.0000
  H   H18       1.0  0.24767282739534122  0.3033783014077614  0.6549887450441644  1.0000
  H   H19       1.0  0.7937853748808765  0.8038823806575907  0.15484929284669138  1.0000
  H   H20       1.0  0.7523391005152505  0.6966164822153685  0.3450101104033364  1.0000
  H   H21       1.0  0.42863143450058794  0.7233051196471222  0.5998729841616778  1.0000
  H   H22       1.0  0.7511085030212424  0.7767057267772657  0.9000079712679037  1.0000
  H   H23       1.0  0.5713614201285325  0.2766950037280864  0.400133111534707  1.0000
  H   H24       1.0  0.24889507451003115  0.22329947725821606  0.09998718433844538  1.0000
  H   H25       1.0  0.5558222940590908  0.8358079115596484  0.6041692987108078  1.0000
  H   H26       1.0  0.9951845851720127  0.6641040749343292  0.8958812601006156  1.0000
  H   H27       1.0  0.44416484057146044  0.16419483717527333  0.39583727585232953  1.0000
  H   H28       1.0  0.004820752783494753  0.33589978836237583  0.10411162884501828  1.0000
  H   H29       1.0  0.3148071665587867  0.9560046236774512  0.5949193864864739  1.0000
  H   H30       1.0  0.8651117671244671  0.543951697947975  0.905183631237868  1.0000
  H   H31       1.0  0.6851817242632594  0.043994204031328414  0.4050875979593229  1.0000
  H   H32       1.0  0.13489151314923478  0.4560509125305218  0.09481324525752648  1.0000
  C   C1        1.0  0.7615986844549955  0.1801532198551996  0.864774924706701  1.0000
  C   C2        1.0  0.8067421276106969  0.319357316383865  0.6352008904262191  1.0000
  C   C3        1.0  0.238406948482826  0.8198546573549237  0.13522424393656957  1.0000
  C   C4        1.0  0.19326071654711557  0.6806492314297757  0.36479676367819985  1.0000
  C   C5        1.0  0.6228064095167057  0.2148174225754715  0.8031478172167184  1.0000
  C   C6        1.0  0.6408616530103971  0.28492686840376547  0.6969057477544496  1.0000
  C   C7        1.0  0.37719965953699847  0.7851865172995076  0.19685057381752802  1.0000
  C   C8        1.0  0.35914338410729857  0.7150731545965171  0.303093313304707  1.0000
  C   C9        1.0  0.4658522648085396  0.18301178519546116  0.8552580727482988  1.0000
  C   C10       1.0  0.5041801319745003  0.3167844272494449  0.6448408422545454  1.0000
  C   C11       1.0  0.5341593707297179  0.8169843187059982  0.14474160172598255  1.0000
  C   C12       1.0  0.49583018283564706  0.683210326795077  0.3551558700469498  1.0000
  C   C13       1.0  0.2070271398696092  0.9250720810293132  0.79244607260717  1.0000
  C   C14       1.0  0.9241999161574341  0.5747759816320438  0.7075901366300811  1.0000
  C   C15       1.0  0.7929633634003822  0.074925442710132  0.2075612803035369  1.0000
  C   C16       1.0  0.07579778297601794  0.42522272331405014  0.29240816201208725  1.0000
  C   C17       1.0  0.4536685626832694  0.6724429202652757  0.8104189252169645  1.0000
  C   C18       1.0  0.9367944774997743  0.8270480088911469  0.6896525103299636  1.0000
  C   C19       1.0  0.546322818356224  0.3275519761871308  0.18958774529452427  1.0000
  C   C20       1.0  0.06320806744299294  0.1729519447217029  0.31034154062019326  1.0000
  C   C21       1.0  0.34904543106924296  0.708917359699406  0.9062114915401194  1.0000
  C   C22       1.0  0.9645809767916448  0.7906336891373443  0.593850126314365  1.0000
  C   C23       1.0  0.6509474186746401  0.2910788498404883  0.09379550601853737  1.0000
  C   C24       1.0  0.03541848211354199  0.2093623415220378  0.40614413098599295  1.0000
  C   C25       1.0  0.3290361910525307  0.21845703025788768  0.8031158052876037  1.0000
  C   C26       1.0  0.35071718684026393  0.28115595749596173  0.6970113100843844  1.0000
  C   C27       1.0  0.6709713424728321  0.7815456424172068  0.196885589337178  1.0000
  C   C28       1.0  0.6492947459555652  0.7188427399624758  0.30298664350085147  1.0000
  C   C29       1.0  0.4189727847537913  0.8328077669771689  0.6275478876264272  1.0000
  C   C30       1.0  0.8787754562645277  0.6670874222869259  0.8724819530914516  1.0000
  C   C31       1.0  0.5810161060682547  0.1671910607316036  0.3724590968193695  1.0000
  C   C32       1.0  0.12122782824191353  0.33291776847894283  0.12751224686056864  1.0000
  N   N1        1.0  0.19534342687839537  0.866762226206255  0.8938511513945427  1.0000
  N   N2        1.0  0.9559416405697406  0.6330206051035604  0.6061889414367058  1.0000
  N   N3        1.0  0.8046461979696035  0.1332365912722935  0.1061551092342867  1.0000
  N   N4        1.0  0.04405693568072181  0.36697413900755294  0.393806900125142  1.0000
  N   N5        1.0  0.36201382468837584  0.8106452688143406  0.7396651785140661  1.0000
  N   N6        1.0  0.912136476389421  0.689028138379925  0.7603792629118756  1.0000
  N   N7        1.0  0.637974475851273  0.18935095206784777  0.26034257116644705  1.0000
  N   N8        1.0  0.08786371719421031  0.31096921559716856  0.23961604525261032  1.0000
  O   O1        1.0  0.8066773125642472  0.03301434440382421  0.9275777008042992  1.0000
  O   O2        1.0  0.7674348088992178  0.46669663463617184  0.5725838625011191  1.0000
  O   O3        1.0  0.19332846834986134  0.9669934960368565  0.07241883271334607  1.0000
  O   O4        1.0  0.2325642076998663  0.5332967524271767  0.42740852490832265  1.0000
  O   O5        1.0  0.8226454346473345  0.29070796556212747  0.8557494310771644  1.0000
  O   O6        1.0  0.9693768348540884  0.20848768068390203  0.6439957922675531  1.0000
  O   O7        1.0  0.17734699852160676  0.7093078366541404  0.14425473664143598  1.0000
  O   O8        1.0  0.030630566003175524  0.7915281038144926  0.3560073065771404  1.0000
