data_image0
_chemical_formula_structural       Cd2H38C62N10O8
_chemical_formula_sum              "Cd2 H38 C62 N10 O8"
_cell_length_a       10.808436115754612
_cell_length_b       12.286884080073062
_cell_length_c       12.215136556046428
_cell_angle_alpha    59.495463918604976
_cell_angle_beta     82.71162487342106
_cell_angle_gamma    78.10572514712408

_space_group_name_H-M_alt    "P 1"
_space_group_IT_number       1

loop_
  _space_group_symop_operation_xyz
  'x, y, z'

loop_
  _atom_site_type_symbol
  _atom_site_label
  _atom_site_symmetry_multiplicity
  _atom_site_fract_x
  _atom_site_fract_y
  _atom_site_fract_z
  _atom_site_occupancy
  Cd  Cd1       1.0  0.28194142667900474  0.49691571193927314  0.9354112024277442  1.0000
  Cd  Cd2       1.0  0.7180582171227173  0.5030815821212967  0.06459089057934615  1.0000
  H   H1        1.0  0.10758136412594868  0.1494740040488054  0.7201892636289172  1.0000
  H   H2        1.0  0.8924207729075845  0.850525226159249  0.27980912730685487  1.0000
  H   H3        1.0  0.3079370952674693  6.228519126239717e-05  0.8036028031325628  1.0000
  H   H4        1.0  0.6920661255877859  0.9999359594139319  0.19639842032364652  1.0000
  H   H5        1.0  0.45445020655306223  0.03218623209468059  0.9175579974373491  1.0000
  H   H6        1.0  0.5455506830110579  0.967814889682998  0.08244203588167659  1.0000
  H   H7        1.0  0.405751708061004  0.22053737031463774  0.9559671402861057  1.0000
  H   H8        1.0  0.5942482484708477  0.7794637532872244  0.04403299435545439  1.0000
  H   H9        1.0  0.006475476347333072  0.5327525684843336  0.7932632696238784  1.0000
  H   H10       1.0  0.9935230822039712  0.46724570253333286  0.20673681405686034  1.0000
  H   H11       1.0  0.8066467900621107  0.4810967914284205  0.7848923239229038  1.0000
  H   H12       1.0  0.19335254644592229  0.5189024356064279  0.2151071941745499  1.0000
  H   H13       1.0  0.6703648150600755  0.48272482470898126  0.4661703223417817  1.0000
  H   H14       1.0  0.3296340562213516  0.5172772758499775  0.5338278029734269  1.0000
  H   H15       1.0  0.04569763513922709  0.3345625484315703  0.5598384605044303  1.0000
  H   H16       1.0  0.9543009234120701  0.665435722586089  0.44016162317630136  1.0000
  H   H17       1.0  0.6029228543364978  0.7091745674987918  0.3760179129707312  1.0000
  H   H18       1.0  0.39707663296099577  0.2908236757573802  0.6239845389696798  1.0000
  H   H19       1.0  0.4116917394099815  0.867299314338183  0.27507737635459517  1.0000
  H   H20       1.0  0.5883083707687147  0.1327008427765435  0.7249240457417869  1.0000
  H   H21       1.0  0.2182045790652437  0.8833443189114192  0.40166149274873675  1.0000
  H   H22       1.0  0.7817936664776038  0.1166558504974446  0.5983393087986429  1.0000
  H   H23       1.0  0.21058132044538516  0.7403532294285495  0.638183315214853  1.0000
  H   H24       1.0  0.7894178567010427  0.2596469295103603  0.36181820820407046  1.0000
  H   H25       1.0  0.5926836752881357  0.42480982880241663  0.8581794861826637  1.0000
  H   H26       1.0  0.4073164348905606  0.5751903283123098  0.14182193591372544  1.0000
  H   H27       1.0  0.2091270630396522  0.804543354899202  0.07078601947694102  1.0000
  H   H28       1.0  0.7908739887434633  0.19545685226594858  0.92921036213248  1.0000
  H   H29       1.0  0.18839775199683118  0.9467846118300043  0.16451290295427176  1.0000
  H   H30       1.0  0.8116032969288937  0.053215578043612814  0.8354851250432915  1.0000
  H   H31       1.0  0.06986679000982579  0.13471403473511145  0.18375676859308504  1.0000
  H   H32       1.0  0.9301323942800577  0.865286167432643  0.8162406388554827  1.0000
  H   H33       1.0  0.2679020534866082  0.15154333371375367  0.3986138635834707  1.0000
  H   H34       1.0  0.7320977465410153  0.8484587390837177  0.6013866299914168  1.0000
  H   H35       1.0  0.2654238217522646  0.9799780386417395  0.6263597171722354  1.0000
  H   H36       1.0  0.7345762898551199  0.020022127118750194  0.37364088173008275  1.0000
  H   H37       1.0  0.3830021908553576  0.8023233292210674  0.8175526998576997  1.0000
  H   H38       1.0  0.616997765676494  0.1976777943808017  0.18244743478386027  1.0000
  C   C1        1.0  0.147343945642433  0.2729585413205697  0.7871592737923123  1.0000
  C   C2        1.0  0.8526560137468023  0.7270425995728329  0.21283921446111279  1.0000
  C   C3        1.0  0.1728178210501099  0.16813186655851806  0.7672576676217133  1.0000
  C   C4        1.0  0.827185247586996  0.8318673531795822  0.23274144518560289  1.0000
  C   C5        1.0  0.28462359877598686  0.0833248312244521  0.8162432827454111  1.0000
  C   C6        1.0  0.7153796235079638  0.9166734220265127  0.1837571175167198  1.0000
  C   C7        1.0  0.3681854285806878  0.10188318179876181  0.8822475206780638  1.0000
  C   C8        1.0  0.6318174821235018  0.8981169784891774  0.11775277425664404  1.0000
  C   C9        1.0  0.3429558125289631  0.20585267032083718  0.9030696380217831  1.0000
  C   C10       1.0  0.6570439874986607  0.794149402476634  0.0969308555531044  1.0000
  C   C11       1.0  0.23044416598693826  0.29160927853859425  0.8547502099604285  1.0000
  C   C12       1.0  0.7695568843674819  0.7083909199807932  0.14524699484306325  1.0000
  C   C13       1.0  0.06933302759144058  0.4462559833423042  0.8053530741662484  1.0000
  C   C14       1.0  0.9306672419488606  0.5537432418683536  0.1946463426086708  1.0000
  C   C15       1.0  0.9398097252724255  0.4010064779202266  0.6841853870998165  1.0000
  C   C16       1.0  0.06019069791472019  0.5989917808032956  0.31581531712992467  1.0000
  C   C17       1.0  0.82246529020437  0.4594941224315149  0.7074794691120374  1.0000
  C   C18       1.0  0.17753590808212746  0.5405050750176555  0.29252231592256095  1.0000
  C   C19       1.0  0.7240103337276053  0.4889839214497158  0.6281731111123464  1.0000
  C   C20       1.0  0.2759899329553122  0.5110152864694084  0.37182795205071545  1.0000
  C   C21       1.0  0.7464484273531581  0.46190280214245394  0.528211923717187  1.0000
  C   C22       1.0  0.2535504424995807  0.5380992897707414  0.4717870247920928  1.0000
  C   C23       1.0  0.9540342896762722  0.37678843102516174  0.582302113988284  1.0000
  C   C24       1.0  0.04596597843533348  0.623210785539733  0.4176981259807064  1.0000
  C   C25       1.0  0.5120316165878691  0.6342123500681252  0.5646799979559985  1.0000
  C   C26       1.0  0.4879675605585587  0.36578780887078466  0.43532152546292474  1.0000
  C   C27       1.0  0.5180861093252886  0.7132888219567944  0.43305707526008774  1.0000
  C   C28       1.0  0.48191508896120167  0.286710375492376  0.5669447097745106  1.0000
  C   C29       1.0  0.40987201869101136  0.8023287799605683  0.3773847909186683  1.0000
  C   C30       1.0  0.5901263790699859  0.19767041431539667  0.6226181212776113  1.0000
  C   C31       1.0  0.300211816637983  0.8119398068933916  0.44962470184524517  1.0000
  C   C32       1.0  0.6997886008343882  0.18805841724705624  0.5503792951607807  1.0000
  C   C33       1.0  0.2943862874708714  0.7330732936536035  0.5808689805225457  1.0000
  C   C34       1.0  0.7056128896755567  0.2669268652853063  0.41913254289637786  1.0000
  C   C35       1.0  0.40228131008316825  0.6438529282162049  0.6381225077261448  1.0000
  C   C36       1.0  0.5977181757856299  0.3561453063941967  0.3618807674083442  1.0000
  C   C37       1.0  0.5439804719596706  0.498405719197734  0.7716964149932651  1.0000
  C   C38       1.0  0.4560197932945512  0.5015934800756198  0.2283054713638678  1.0000
  C   C39       1.0  0.14750168931601587  0.7135412587591928  0.9302902706156929  1.0000
  C   C40       1.0  0.852500450574901  0.28645798874040906  0.06970647393193728  1.0000
  C   C41       1.0  0.07725747242971437  0.8257912876009355  0.94202008605253  1.0000
  C   C42       1.0  0.922741866935702  0.17420795672545347  0.05797778565677456  1.0000
  C   C43       1.0  0.12183839719585883  0.8595770917511201  0.020252683005857353  1.0000
  C   C44       1.0  0.8781637398376744  0.140422138456934  0.9797457079299148  1.0000
  C   C45       1.0  0.056783065991268665  0.9640075906956439  0.03458952603089218  1.0000
  C   C46       1.0  0.9432159660804585  0.0359935866050236  0.9654057707687826  1.0000
  C   C47       1.0  0.10085919337438298  0.0008357315633559995  0.11391197019057839  1.0000
  C   C48       1.0  0.899141079023309  0.999163510938842  0.886085800196199  1.0000
  C   C49       1.0  0.035950134807201606  0.10365220405138587  0.1253546959671752  1.0000
  C   C50       1.0  0.9640499825149504  0.8963479962921849  0.8746426101588515  1.0000
  C   C51       1.0  0.3692439727632574  0.2913846079090732  0.16465731540212403  1.0000
  C   C52       1.0  0.6307559809112104  0.7086164984012553  0.8353444656275856  1.0000
  C   C53       1.0  0.4354542457262268  0.18268671947949847  0.2804406266136965  1.0000
  C   C54       1.0  0.5645464859049767  0.8173153428480118  0.7195605888327279  1.0000
  C   C55       1.0  0.3697127805347263  0.12080981334290898  0.39424411098067935  1.0000
  C   C56       1.0  0.6302873296439627  0.8791903437718175  0.6057573111157025  1.0000
  C   C57       1.0  0.4328718426788995  0.019067895848650093  0.5038573211375733  1.0000
  C   C58       1.0  0.5671302872111708  0.9809312911305667  0.4961451857685616  1.0000
  C   C59       1.0  0.36791288260014443  0.9527250605902391  0.6214113009195259  1.0000
  C   C60       1.0  0.6320872290072402  0.04727510517025019  0.378589297982785  1.0000
  C   C61       1.0  0.4318440801376012  0.8550370951322886  0.7268816988360173  1.0000
  C   C62       1.0  0.5681560300410949  0.14496306198243758  0.27311972326036477  1.0000
  N   N1        1.0  0.044801223559161864  0.37295316727907846  0.7575369991514407  1.0000
  N   N2        1.0  0.9551978027978053  0.6270479754385148  0.24246159042451876  1.0000
  N   N3        1.0  0.1782450253973877  0.40062995846660937  0.8634702125171428  1.0000
  N   N4        1.0  0.8217550890673805  0.5993702245854209  0.13652873999702553  1.0000
  N   N5        1.0  0.8596882076251263  0.4072683674182471  0.5058156646959658  1.0000
  N   N6        1.0  0.1403108187318409  0.5927327752993393  0.4941829248799863  1.0000
  N   N7        1.0  0.6009407067073909  0.5402435527085245  0.6529368649925829  1.0000
  N   N8        1.0  0.3990603379322621  0.4597566112277816  0.3470636325871935  1.0000
  N   N9        1.0  0.42604908282738296  0.5573193656124359  0.7660440473875878  1.0000
  N   N10       1.0  0.5739500914616541  0.4426807760349332  0.23395912241947772  1.0000
  O   O1        1.0  0.10838751516308055  0.6839450336068393  0.8565853485024134  1.0000
  O   O2        1.0  0.891613536620035  0.3160551735583112  0.14341103310700726  1.0000
  O   O3        1.0  0.24636572973405174  0.6494241495853146  0.9977641842965  1.0000
  O   O4        1.0  0.7536345398062566  0.3505750756253433  0.002235232478419387  1.0000
  O   O5        1.0  0.25650085519345106  0.34262762711895783  0.1733657135052128  1.0000
  O   O6        1.0  0.7434976990717741  0.657370617961405  0.8266368397577395  1.0000
  O   O7        1.0  0.4329426358372927  0.3297260989075709  0.05866596401770612  1.0000
  O   O8        1.0  0.5670577842141495  0.670277870456914  0.9413351461012952  1.0000
