data_image0
_chemical_formula_structural       Al2H22C30N2O12
_chemical_formula_sum              "Al2 H22 C30 N2 O12"
_cell_length_a       6.632804769302332
_cell_length_b       15.470528242783155
_cell_length_c       16.91106817402248
_cell_angle_alpha    82.15127176581974
_cell_angle_beta     83.4341730524595
_cell_angle_gamma    76.89033585968744

_space_group_name_H-M_alt    "P 1"
_space_group_IT_number       1

loop_
  _space_group_symop_operation_xyz
  'x, y, z'

loop_
  _atom_site_type_symbol
  _atom_site_label
  _atom_site_symmetry_multiplicity
  _atom_site_fract_x
  _atom_site_fract_y
  _atom_site_fract_z
  _atom_site_occupancy
  Al  Al1       1.0  0.5002778605767162  0.501225844145054  0.5015266136857974  1.0000
  Al  Al2       1.0  7.162896221045507e-05  0.5022436422794101  0.5005650673160105  1.0000
  H   H1        1.0  0.24410043680792626  0.5705037910795526  0.4094647405461131  1.0000
  H   H2        1.0  0.7957529141390296  0.3925645450753663  0.5469754774924738  1.0000
  H   H3        1.0  0.9152096064217191  0.4401818580727762  0.7426655323408013  1.0000
  H   H4        1.0  0.8465875024475765  0.44151357551934467  0.8916253391783825  1.0000
  H   H5        1.0  0.3644089100349317  0.5658916511953438  0.8899431504424982  1.0000
  H   H6        1.0  0.6366127136615632  0.4318070312123865  0.1118700826689079  1.0000
  H   H7        1.0  0.14663828861905157  0.5615162888589609  0.1068579266720633  1.0000
  H   H8        1.0  0.0781263411583452  0.5655869136581658  0.2552351268930337  1.0000
  H   H9        1.0  0.07742386426821919  0.2306972169080836  0.5348118394338215  1.0000
  H   H10       1.0  0.9238051308424601  0.7688010554715774  0.4722323605383139  1.0000
  H   H11       1.0  0.2842067231389579  0.7712288773887436  0.5487942541481273  1.0000
  H   H12       1.0  0.2148391635344779  0.934281353174015  0.545014782035004  1.0000
  H   H13       1.0  0.7119348884508483  0.22923265631793302  0.4490527808325169  1.0000
  H   H14       1.0  0.7799924215153667  0.0667090587219548  0.4520192979638011  1.0000
  H   H15       1.0  0.5565159572291875  0.6070140637288189  0.7734066355685628  1.0000
  H   H16       1.0  0.42821496976218043  0.6309453179494611  0.6833704400250014  1.0000
  H   H17       1.0  0.6054289098071521  0.5291472396352787  0.7011327365148574  1.0000
  H   H18       1.0  0.38916695821317404  0.4706641858035851  0.2961990655765803  1.0000
  H   H19       1.0  0.572445426302856  0.37238596873825003  0.3209689905756576  1.0000
  H   H20       1.0  0.45392409176415066  0.38768313600103715  0.22907671053445  1.0000
  H   H21       1.0  0.9812828317674089  0.10653286829958832  0.5534157083103679  1.0000
  H   H22       1.0  0.01952984543935809  0.8933248165785839  0.4536860845355477  1.0000
  C   C1        1.0  0.65762223025029  0.6606028122189755  0.5075396639298972  1.0000
  C   C2        1.0  0.7934442950633029  0.5064963731442589  0.3550901798507482  1.0000
  C   C3        1.0  0.3423481952073147  0.34007487024284433  0.49576884706843316  1.0000
  C   C4        1.0  0.2044093563369672  0.4981998176825472  0.6447878736915769  1.0000
  C   C5        1.0  0.17887192234637453  0.5010454968608754  0.7331911403671044  1.0000
  C   C6        1.0  0.013311776427826804  0.46706978617655887  0.7760923305926114  1.0000
  C   C7        1.0  0.9743375191210292  0.4677525733530103  0.858186664070395  1.0000
  C   C8        1.0  0.10297433158569896  0.5044246700384746  0.8987502638473331  1.0000
  C   C9        1.0  0.2688179604692352  0.5377380147584104  0.8562538572002012  1.0000
  C   C10       1.0  0.3110089593512697  0.5371848594359178  0.773316160700773  1.0000
  C   C11       1.0  0.7306441552218957  0.4616979534922621  0.1447534978162182  1.0000
  C   C12       1.0  0.8941115440152958  0.49583857247380075  0.10135267399262199  1.0000
  C   C13       1.0  0.020616140845760328  0.5346163937821727  0.1409368579180708  1.0000
  C   C14       1.0  0.9816257087316275  0.5366318831907363  0.22286427381487067  1.0000
  C   C15       1.0  0.8183039343485775  0.5019642805007649  0.2668629719228194  1.0000
  C   C16       1.0  0.6886740629763962  0.46352640362898256  0.22760219592128547  1.0000
  C   C17       1.0  0.38967052622020043  0.24152591907065363  0.4938704258605283  1.0000
  C   C18       1.0  0.6090754091791907  0.7591382482264281  0.5087269493579782  1.0000
  C   C19       1.0  0.23369923125016362  0.19405182297456489  0.5174142365967995  1.0000
  C   C20       1.0  0.27150205724394294  0.1012446388255483  0.5207248664251267  1.0000
  C   C21       1.0  0.7665003041945795  0.8061708096186281  0.48726708467938806  1.0000
  C   C22       1.0  0.7282039137034386  0.8990137421964806  0.4836554622360084  1.0000
  C   C23       1.0  0.40863892588892253  0.8070346642455206  0.5295783368891307  1.0000
  C   C24       1.0  0.370727417233944  0.899386349717318  0.5270922248564816  1.0000
  C   C25       1.0  0.5881797080741438  0.19362927195128773  0.47026594893891627  1.0000
  C   C26       1.0  0.625623512403358  0.1012928536168758  0.4722395741463643  1.0000
  C   C27       1.0  0.4735380349494492  0.049726769375261916  0.49900106188753307  1.0000
  C   C28       1.0  0.5245926763026175  0.9506497323743377  0.5028121829486878  1.0000
  C   C29       1.0  0.4849697234059391  0.5780508335259001  0.7309525351741969  1.0000
  C   C30       1.0  0.5171159077148885  0.42138132415435336  0.2704812573758488  1.0000
  N   N1        1.0  0.07822768894919101  0.5117412535951545  0.981796580122193  1.0000
  N   N2        1.0  0.9184951852775499  0.4877826431239852  0.01839097518210049  1.0000
  O   O1        1.0  0.5060068050121133  0.6213420370960209  0.5160036487980406  1.0000
  O   O2        1.0  0.9592565765495777  0.50090146592445  0.38894058979929  1.0000
  O   O3        1.0  0.15108031132340463  0.3788472139908521  0.5053333488475289  1.0000
  O   O4        1.0  0.38755536778813854  0.48606372778753115  0.6099024042403157  1.0000
  O   O5        1.0  0.49609684728120834  0.37821607992942324  0.4891912208046847  1.0000
  O   O6        1.0  0.03937646641359275  0.5064376415506118  0.610018254885091  1.0000
  O   O7        1.0  0.8485150339129319  0.6226747708669295  0.49629078700046847  1.0000
  O   O8        1.0  0.6103992210161805  0.5168967033369684  0.3904671605206573  1.0000
  O   O9        1.0  0.23967493634708606  0.5432039765187254  0.46449515614368414  1.0000
  O   O10       1.0  0.7645676826900997  0.4569880123017285  0.5347855142405323  1.0000
  O   O11       1.0  0.10793065397363223  0.06088620202848458  0.5457878670039378  1.0000
  O   O12       1.0  0.8931758825728976  0.9392102837119368  0.46120490696604577  1.0000
