data_image0
_chemical_formula_structural       Cu2H28C32N20O10
_chemical_formula_sum              "Cu2 H28 C32 N20 O10"
_cell_length_a       7.679620655097136
_cell_length_b       9.125548233170422
_cell_length_c       14.605324782056826
_cell_angle_alpha    89.99973751031338
_cell_angle_beta     90.00025251074699
_cell_angle_gamma    107.48651944233688

_space_group_name_H-M_alt    "P 1"
_space_group_IT_number       1

loop_
  _space_group_symop_operation_xyz
  'x, y, z'

loop_
  _atom_site_type_symbol
  _atom_site_label
  _atom_site_symmetry_multiplicity
  _atom_site_fract_x
  _atom_site_fract_y
  _atom_site_fract_z
  _atom_site_occupancy
  Cu  Cu1       1.0  0.8171425430634468  0.5306389816228361  0.6665824160452374  1.0000
  Cu  Cu2       1.0  0.18285363344966749  0.46935890094336224  0.1665839888522953  1.0000
  H   H1        1.0  0.04397599846663519  0.3419478895886812  0.34294708670407903  1.0000
  H   H2        1.0  0.9560174082027756  0.6580490234852477  0.8429413614802002  1.0000
  H   H3        1.0  0.11434492608544387  0.4082960573405074  0.5093384429257597  1.0000
  H   H4        1.0  0.8856545665080302  0.5917038343766166  0.009335126752738199  1.0000
  H   H5        1.0  0.3644496137958555  0.6455844325924147  0.5476839957604582  1.0000
  H   H6        1.0  0.6355462302767731  0.3544152780293074  0.0476821512253665  1.0000
  H   H7        1.0  0.44004841681367407  0.7362040387580963  0.25706117945019  1.0000
  H   H8        1.0  0.5599501056703388  0.2637875447627849  0.7570604619531878  1.0000
  H   H9        1.0  0.24586260876009894  0.6478529163993018  0.6904626044338896  1.0000
  H   H10       1.0  0.7541354418910372  0.3521459659424763  0.1904672025394731  1.0000
  H   H11       1.0  0.9715427062842109  0.20939769931979413  0.060867664567311394  1.0000
  H   H12       1.0  0.028447606991178997  0.7906008377331375  0.560871055824478  1.0000
  H   H13       1.0  0.11978690703609365  0.3063630214402906  0.7770882043212949  1.0000
  H   H14       1.0  0.8802211546700534  0.6936433447529353  0.2770907455352613  1.0000
  H   H15       1.0  0.35445185676413604  0.5453342206923679  0.829270471318594  1.0000
  H   H16       1.0  0.6455604537235471  0.4546683502763501  0.32926767786433686  1.0000
  H   H17       1.0  0.3818202508301097  0.6095546979263915  0.9974097735373562  1.0000
  H   H18       1.0  0.6181836227176019  0.3904458522761445  0.4974057315557232  1.0000
  H   H19       1.0  0.5525023710039746  0.9444994354728351  0.6964247426148304  1.0000
  H   H20       1.0  0.4475038796166473  0.05550740414253848  0.19643153655766096  1.0000
  H   H21       1.0  0.42129176300264226  0.823318462054395  0.7835368295854366  1.0000
  H   H22       1.0  0.5787102765535649  0.17668907939991393  0.28354220997717755  1.0000
  H   H23       1.0  0.0117345145254788  0.1568023201241928  0.5466024915549426  1.0000
  H   H24       1.0  0.9882669374256137  0.8431984949048684  0.0466055384154203  1.0000
  H   H25       1.0  0.8782428682107266  0.026564387991477596  0.6287983594767111  1.0000
  H   H26       1.0  0.12176127759894229  0.9734347833538024  0.128799715625604  1.0000
  H   H27       1.0  0.16280104596487632  0.7824520502277467  0.7139989369841117  1.0000
  H   H28       1.0  0.8372001741700216  0.21754782121721658  0.21400137408923567  1.0000
  C   C1        1.0  0.1500214167193121  0.44535732675726797  0.3636395142432818  1.0000
  C   C2        1.0  0.8499760143481792  0.5546394301545945  0.863635209774877  1.0000
  C   C3        1.0  0.1908364824968983  0.4817498219576989  0.4550815017950284  1.0000
  C   C4        1.0  0.8091641497752559  0.5182429280903591  0.9550799460726225  1.0000
  C   C5        1.0  0.32757252739086334  0.6159295969471473  0.47666332234342684  1.0000
  C   C6        1.0  0.6724239011562501  0.3840653781264152  0.9766597812416933  1.0000
  C   C7        1.0  0.3727527918996784  0.6675135287689996  0.3153550082461081  1.0000
  C   C8        1.0  0.6272443796161153  0.3324765855599382  0.8153528799832586  1.0000
  C   C9        1.0  0.42106235108926876  0.7111728779388924  0.4060027631581632  1.0000
  C   C10       1.0  0.578932330047266  0.2888225134242077  0.9060006484073782  1.0000
  C   C11       1.0  0.5680764650422816  0.8506691797696746  0.4273949311034855  1.0000
  C   C12       1.0  0.43191620565629296  0.14932380434169806  0.9273942458828016  1.0000
  C   C13       1.0  0.055071688216621284  0.2800416194057362  0.007613323842718998  1.0000
  C   C14       1.0  0.9449234522912701  0.7199606304540327  0.5076156117126942  1.0000
  C   C15       1.0  0.029920954447050032  0.23696996077639212  0.9154671836588975  1.0000
  C   C16       1.0  0.9700776078504345  0.7630357161449767  0.41547178764106707  1.0000
  C   C17       1.0  0.13791404779608035  0.3347479038716515  0.849660346846548  1.0000
  C   C18       1.0  0.8620914562963973  0.665256924215292  0.3496622428557785  1.0000
  C   C19       1.0  0.2667764253119245  0.4690885957380785  0.8788633511372267  1.0000
  C   C20       1.0  0.7332318837206838  0.5309125810351458  0.37886259575541453  1.0000
  C   C21       1.0  0.28364208829049176  0.5047864438419583  0.9717438284696343  1.0000
  C   C22       1.0  0.716359026757267  0.49521427827225745  0.4717417670705899  1.0000
  C   C23       1.0  0.886994941914487  0.09700085544419322  0.8909252707533354  1.0000
  C   C24       1.0  0.11301037643668367  0.9030060472614992  0.3909302319752753  1.0000
  C   C25       1.0  0.5547194840097587  0.8601377096300028  0.7498909828336976  1.0000
  C   C26       1.0  0.44528453583033195  0.13986539066511475  0.2498988992098106  1.0000
  C   C27       1.0  0.5949968017435338  0.720268094895097  0.7071438065833248  1.0000
  C   C28       1.0  0.4050129852253902  0.27973749669111925  0.20714849025798537  1.0000
  C   C29       1.0  0.873428506433491  0.1059451678818917  0.5730747275151487  1.0000
  C   C30       1.0  0.12657481221594222  0.8940600913314328  0.07307495294772791  1.0000
  C   C31       1.0  0.7880430217539212  0.22731677777787235  0.610297180754273  1.0000
  C   C32       1.0  0.2119462847357241  0.7726849487691541  0.11029863603674529  1.0000
  N   N1        1.0  0.23982211763534167  0.5374750757856859  0.2955684218272623  1.0000
  N   N2        1.0  0.7601705867854774  0.46251749987856544  0.7955655432779025  1.0000
  N   N3        1.0  0.17764230890168875  0.41118070609238805  0.0346506769331043  1.0000
  N   N4        1.0  0.8223521546513836  0.588819091624309  0.5346516881302392  1.0000
  N   N5        1.0  0.6646008430379947  0.9552024555737757  0.3651367771078071  1.0000
  N   N6        1.0  0.33539572456488287  0.044795454275124796  0.8651361684915101  1.0000
  N   N7        1.0  0.7877444729640289  0.060713408063520484  0.4118109053057139  1.0000
  N   N8        1.0  0.21225151878272172  0.9392853966644662  0.9118101869675996  1.0000
  N   N9        1.0  0.764180666417303  0.016997908280117702  0.4997103896802741  1.0000
  N   N10       1.0  0.23581932913566547  0.9830026667234788  0.9997102851668558  1.0000
  N   N11       1.0  0.6291155583104028  0.8887438733621168  0.5130041353899983  1.0000
  N   N12       1.0  0.3708800649759282  0.1112560353610661  0.013003745680620696  1.0000
  N   N13       1.0  0.8161727740740686  0.067272331817712  0.8064998580282036  1.0000
  N   N14       1.0  0.1838281141248074  0.9327350911147643  0.306504897668411  1.0000
  N   N15       1.0  0.7997392923299245  0.9858924311517824  0.9519139810184285  1.0000
  N   N16       1.0  0.2002616725669597  0.014111863419373101  0.45191826831267423  1.0000
  N   N17       1.0  0.6712808254647624  0.8847550712448041  0.9058006586154547  1.0000
  N   N18       1.0  0.328721567947987  0.1152506229383334  0.40580632218446056  1.0000
  N   N19       1.0  0.6840273985135922  0.9367034533609199  0.8194998819381707  1.0000
  N   N20       1.0  0.31597444546166986  0.06330273380738298  0.31950566495687127  1.0000
  O   O1        1.0  0.459761683056989  0.6118856511256965  0.6814586527945394  1.0000
  O   O2        1.0  0.5402423256291726  0.38811898894918784  0.18146059953890156  1.0000
  O   O3        1.0  0.7630800835877805  0.726289710553516  0.702054067663802  1.0000
  O   O4        1.0  0.23692797278784644  0.273711314727592  0.20205290278771315  1.0000
  O   O5        1.0  0.619290487611323  0.1959336348699807  0.6150939114395655  1.0000
  O   O6        1.0  0.3807114003894298  0.8040667889116265  0.1150956666906282  1.0000
  O   O7        1.0  0.9087112231393346  0.3541253518993485  0.633416103935879  1.0000
  O   O8        1.0  0.09129599562805171  0.6458714574241142  0.1334142205079516  1.0000
  O   O9        1.0  0.12969059519657833  0.6749509080083487  0.696261001517044  1.0000
  O   O10       1.0  0.8703118334721791  0.3250455929231535  0.1962597835859086  1.0000
