data_image0
_chemical_formula_structural       Al4H36C60N6O22F2
_chemical_formula_sum              "Al4 H36 C60 N6 O22 F2"
_cell_length_a       6.692196909400394
_cell_length_b       22.385803421460068
_cell_length_c       25.533736404932704
_cell_angle_alpha    90.65799907161752
_cell_angle_beta     90.1322988983118
_cell_angle_gamma    90.049405998269

_space_group_name_H-M_alt    "P 1"
_space_group_IT_number       1

loop_
  _space_group_symop_operation_xyz
  'x, y, z'

loop_
  _atom_site_type_symbol
  _atom_site_label
  _atom_site_symmetry_multiplicity
  _atom_site_fract_x
  _atom_site_fract_y
  _atom_site_fract_z
  _atom_site_occupancy
  Al  Al1       1.0  0.28443931836334  0.2541465386261662  0.7472107248066493  1.0000
  Al  Al2       1.0  0.715554922685257  0.7458523151126215  0.2527898805571525  1.0000
  Al  Al3       1.0  0.7838780763663493  0.25254683682530304  0.7469771765958696  1.0000
  Al  Al4       1.0  0.2161146688108317  0.7474524627789522  0.2530234310338315  1.0000
  H   H1        1.0  0.7556662108858204  0.1604305816336336  0.8907426039725336  1.0000
  H   H2        1.0  0.2443265236349106  0.8395687207947091  0.10925957022960378  1.0000
  H   H3        1.0  0.7908994932957967  0.019298840307023096  0.0186128096807678  1.0000
  H   H4        1.0  0.20905147322485357  0.9806914922482401  0.9813833672433104  1.0000
  H   H5        1.0  0.33493132124321073  0.023300347640017094  0.9054497577675348  1.0000
  H   H6        1.0  0.6650465087669771  0.9766926874489809  0.09454999619665469  1.0000
  H   H7        1.0  0.23246683286085812  0.9114830005933068  0.03690826569784629  1.0000
  H   H8        1.0  0.7675244483541377  0.08851227324118577  0.963089955573153  1.0000
  H   H9        1.0  0.722041042386536  0.12644095526351856  0.6286801166943687  1.0000
  H   H10       1.0  0.27795021068505577  0.8735614671155357  0.3713185582452425  1.0000
  H   H11       1.0  0.7340381126083528  0.05089047847217638  0.5547248716340788  1.0000
  H   H12       1.0  0.26595613643258537  0.9491083731485473  0.445274558800392  1.0000
  H   H13       1.0  0.6261018576782078  0.9373462954336346  0.4466957535573924  1.0000
  H   H14       1.0  0.37388939254892506  0.06264273816258739  0.5533102463034894  1.0000
  H   H15       1.0  0.6375622523735416  0.8616135666874312  0.3724277801521367  1.0000
  H   H16       1.0  0.3624305097397383  0.1383772483886716  0.6275747120378269  1.0000
  H   H17       1.0  0.7778085100053715  0.6222095040035568  0.13189566997704108  1.0000
  H   H18       1.0  0.22219767902531376  0.3778000700163632  0.8681003415932763  1.0000
  H   H19       1.0  0.7658260109231635  0.5491951891992028  0.05606820254913459  1.0000
  H   H20       1.0  0.23417868119451413  0.45081661623376573  0.94392704350723  1.0000
  H   H21       1.0  0.8734630705171185  0.43666706476265926  0.9476411836551719  1.0000
  H   H22       1.0  0.1265431382039566  0.5633407187675131  0.052352854193216586  1.0000
  H   H23       1.0  0.8620136110442473  0.3642420145240448  0.8709123658288717  1.0000
  H   H24       1.0  0.13798661835755152  0.6357604102776049  0.12908475220248047  1.0000
  H   H25       1.0  0.7756630186486219  0.6155012114494979  0.36617948659529276  1.0000
  H   H26       1.0  0.22433572180244707  0.3845012110656611  0.6338168465391404  1.0000
  H   H27       1.0  0.7613605237794799  0.5430674260346108  0.4405731214236255  1.0000
  H   H28       1.0  0.23866212195003558  0.45693590395153894  0.5594232452351662  1.0000
  H   H29       1.0  0.8581988142734858  0.3545989662319826  0.6192719403797966  1.0000
  H   H30       1.0  0.1417998696803622  0.6454021323019745  0.3807333889163829  1.0000
  H   H31       1.0  0.6936182052503881  0.9015912996451901  0.21980092876988513  1.0000
  H   H32       1.0  0.3063834821443479  0.098407118786163  0.7802035972019112  1.0000
  H   H33       1.0  0.5353529354642036  0.17792269071905759  0.7641885887692863  1.0000
  H   H34       1.0  0.46465029094854066  0.8220743777766798  0.23581005253677736  1.0000
  H   H35       1.0  0.030415265471212604  0.3320741371462361  0.7534399674444002  1.0000
  H   H36       1.0  0.9695909308807203  0.6679251696220305  0.246560263038468  1.0000
  C   C1        1.0  0.5353454410456564  0.325788245306434  0.8189639879469012  1.0000
  C   C2        1.0  0.4646667350862331  0.6742110642536046  0.18103585733565097  1.0000
  C   C3        1.0  0.5362782477101362  0.32353994432063615  0.6760509756003186  1.0000
  C   C4        1.0  0.46370851024561693  0.6764606934175957  0.3239504205025838  1.0000
  C   C5        1.0  0.0366938921385227  0.1805441430842832  0.6764295886173812  1.0000
  C   C6        1.0  0.9633033422754168  0.8194556037651562  0.3235698527916782  1.0000
  C   C7        1.0  0.031829509511730705  0.17991325895831523  0.8166635527136206  1.0000
  C   C8        1.0  0.9681617408356332  0.8200847009638038  0.1833378249618178  1.0000
  C   C9        1.0  0.03698379264299939  0.13333633248677043  0.8577711138813271  1.0000
  C   C10       1.0  0.9630149057030691  0.8666652085509553  0.14223186943278418  1.0000
  C   C11       1.0  0.8823203659311004  0.13024508107503152  0.8945316550818913  1.0000
  C   C12       1.0  0.11766943591795351  0.8697497416149813  0.10546460248626487  1.0000
  C   C13       1.0  0.8904732061046802  0.08975096600192958  0.9352119565967456  1.0000
  C   C14       1.0  0.1095061602293512  0.9102384882759932  0.06478345989118849  1.0000
  C   C15       1.0  0.054012278745375376  0.0504882864322056  0.940594395410983  1.0000
  C   C16       1.0  0.9459581410844817  0.9495002648830777  0.059398653800919  1.0000
  C   C17       1.0  0.20811491137433077  0.053823452146502894  0.9033737546173481  1.0000
  C   C18       1.0  0.7918614659110406  0.9461691247377997  0.09662011921290058  1.0000
  C   C19       1.0  0.20056789871252784  0.0939006411005678  0.8619350103249274  1.0000
  C   C20       1.0  0.7994293410596995  0.9061013359183007  0.13806249225154937  1.0000
  C   C21       1.0  0.06959815648083631  0.0061340694373299975  0.9816642986702033  1.0000
  C   C22       1.0  0.9303513497833437  0.9938504510945589  0.018329868031912593  1.0000
  C   C23       1.0  0.95821449412648  0.8635143850824746  0.36779997034306416  1.0000
  C   C24       1.0  0.04179170063299859  0.13648536842570283  0.6322002640163974  1.0000
  C   C25       1.0  0.13630976184268206  0.8878804281040402  0.3882512648588018  1.0000
  C   C26       1.0  0.8636904600575263  0.11211887446040687  0.6117485675381643  1.0000
  C   C27       1.0  0.1303813444243929  0.9294207304105409  0.42891036097883967  1.0000
  C   C28       1.0  0.8696203717547776  0.07057857302835659  0.5710894730288274  1.0000
  C   C29       1.0  0.9446402979263696  0.9471517997880807  0.44977205941820836  1.0000
  C   C30       1.0  0.05536141767188241  0.052843933261662784  0.5502297017922544  1.0000
  C   C31       1.0  0.7669666109794875  0.922697640550517  0.4295165358692969  1.0000
  C   C32       1.0  0.2330365929885829  0.0772945243965637  0.5704879374408803  1.0000
  C   C33       1.0  0.7735533941630023  0.8811280320087317  0.38874353281308055  1.0000
  C   C34       1.0  0.2264498247481441  0.11886591424979537  0.6112578228585973  1.0000
  C   C35       1.0  0.5415705720814187  0.3674913742822239  0.8649677545097844  1.0000
  C   C36       1.0  0.4584251596005445  0.6325137297475791  0.13503016523525696  1.0000
  C   C37       1.0  0.3637728990616367  0.39127908252259397  0.8857842922832189  1.0000
  C   C38       1.0  0.6362258249440701  0.6087287001654502  0.11421169572723495  1.0000
  C   C39       1.0  0.3696605630285958  0.4313491176311287  0.9275375428595396  1.0000
  C   C40       1.0  0.6303411564857767  0.5686604502353275  0.07245650566313339  1.0000
  C   C41       1.0  0.5553065241347496  0.4478291362747412  0.9494552167051322  1.0000
  C   C42       1.0  0.44469370538728736  0.5521822148528129  0.0505372791407765  1.0000
  C   C43       1.0  0.732704258409413  0.42333220206251104  0.929366025889898  1.0000
  C   C44       1.0  0.26730193705120797  0.5766800481607248  0.0706276590813175  1.0000
  C   C45       1.0  0.726023304529747  0.38356475627001163  0.887210378816732  1.0000
  C   C46       1.0  0.2739754253550473  0.6164443638136701  0.11278405425106539  1.0000
  C   C47       1.0  0.5402412876301028  0.3658234720378103  0.6313469094510678  1.0000
  C   C48       1.0  0.45976191376402653  0.6341753883597149  0.368654488863143  1.0000
  C   C49       1.0  0.36492410306637163  0.3943564748592649  0.6143212408181496  1.0000
  C   C50       1.0  0.6350835875945792  0.6056450643649212  0.3856778357290551  1.0000
  C   C51       1.0  0.3721737954274857  0.4343202849200976  0.5733489473193245  1.0000
  C   C52       1.0  0.6278548103615406  0.5656826067660959  0.4266501634074373  1.0000
  C   C53       1.0  0.554179077323468  0.44627050675919117  0.547777007444779  1.0000
  C   C54       1.0  0.4458510370766149  0.5537283651422766  0.4522220700033301  1.0000
  C   C55       1.0  0.7266394843715674  0.4162973730947996  0.5650600819414748  1.0000
  C   C56       1.0  0.2733786651103287  0.5836992630536881  0.43494170473984883  1.0000
  C   C57       1.0  0.7225928996541383  0.3769661027206581  0.6064623159485548  1.0000
  C   C58       1.0  0.2774102916043475  0.6230318677271638  0.39354103282801833  1.0000
  C   C59       1.0  0.642946491682096  0.9109430171920252  0.17917240375228258  1.0000
  C   C60       1.0  0.3570597136737134  0.0890522703291126  0.8208285751274643  1.0000
  N   N1        1.0  0.919319667220485  0.9891512782544822  0.4909677243586187  1.0000
  N   N2        1.0  0.08066860038792362  0.010843554151428198  0.5090344062454831  1.0000
  N   N3        1.0  0.580411793897511  0.4884151385929981  0.9916749418806245  1.0000
  N   N4        1.0  0.4195959091325747  0.5115948773930938  0.008317942032100198  1.0000
  N   N5        1.0  0.5777713281263815  0.4849805010118187  0.5053297884096608  1.0000
  N   N6        1.0  0.4222587676549736  0.5150206074132767  0.494670874993858  1.0000
  O   O1        1.0  0.7046190685357204  0.3048185192760115  0.6923409015050834  1.0000
  O   O2        1.0  0.2953631757155151  0.6951848019265086  0.3076636461701696  1.0000
  O   O3        1.0  0.36365749938070735  0.30945625543961336  0.8022721668978434  1.0000
  O   O4        1.0  0.6363517004722186  0.6905448343890014  0.19772494916792027  1.0000
  O   O5        1.0  0.20109468870599304  0.197524783998297  0.7995696725951972  1.0000
  O   O6        1.0  0.7988950509170538  0.8024785352222638  0.2004313583455541  1.0000
  O   O7        1.0  0.3665956483805459  0.3097796413337618  0.6949715521361527  1.0000
  O   O8        1.0  0.6333776791925488  0.6902218763660669  0.3050267040787844  1.0000
  O   O9        1.0  0.2050476951514639  0.19953583190913796  0.6931232986686808  1.0000
  O   O10       1.0  0.7949614897283296  0.8004612450265467  0.30687809058194654  1.0000
  O   O11       1.0  0.7032699190520261  0.3103937539915618  0.7995937774982307  1.0000
  O   O12       1.0  0.29674074305039977  0.6896028820208215  0.2004103509882711  1.0000
  O   O13       1.0  0.5333386770337611  0.21700596117667448  0.7481986498277066  1.0000
  O   O14       1.0  0.466663021568273  0.7829937932382691  0.2518035379152082  1.0000
  O   O15       1.0  0.8666030012517041  0.19534655191823452  0.6947816402898325  1.0000
  O   O16       1.0  0.13339573445205838  0.8046594423981261  0.3052135489280232  1.0000
  O   O17       1.0  0.8615925767598682  0.19868485816230924  0.80190699262058  1.0000
  O   O18       1.0  0.13840319366183712  0.8013086313358925  0.1980912179761347  1.0000
  O   O19       1.0  0.03333217663958981  0.28930030105064464  0.747572355865664  1.0000
  O   O20       1.0  0.9666650433821361  0.7106990032950193  0.2524294315254565  1.0000
  O   O21       1.0  0.4711834618168992  0.9272393673092836  0.17055073484652175  1.0000
  O   O22       1.0  0.5288107866431203  0.07275591392227909  0.8294506227907517  1.0000
  F   F1        1.0  0.9031286651620789  0.42646503861947577  0.5407254796913249  1.0000
  F   F2        1.0  0.0968894677542309  0.5735280313759927  0.45928058405146277  1.0000
