data_image0
_chemical_formula_structural       Mn2H24C16N2O10
_chemical_formula_sum              "Mn2 H24 C16 N2 O10"
_cell_length_a       6.467426057300621
_cell_length_b       7.981203550216647
_cell_length_c       10.382814883262267
_cell_angle_alpha    100.49002864719712
_cell_angle_beta     103.11349010283303
_cell_angle_gamma    105.3489205591481

_space_group_name_H-M_alt    "P 1"
_space_group_IT_number       1

loop_
  _space_group_symop_operation_xyz
  'x, y, z'

loop_
  _atom_site_type_symbol
  _atom_site_label
  _atom_site_symmetry_multiplicity
  _atom_site_fract_x
  _atom_site_fract_y
  _atom_site_fract_z
  _atom_site_occupancy
  Mn  Mn1       1.0  0.8939168477748823  0.4697256313270656  0.344046552883782  1.0000
  Mn  Mn2       1.0  0.10608692336264616  0.5302880252181054  0.6559583358171752  1.0000
  H   H1        1.0  0.8888023652276968  0.04660223143193319  0.5895196872794416  1.0000
  H   H2        1.0  0.11119080981978173  0.9534087739253823  0.4104833442368445  1.0000
  H   H3        1.0  0.7320156255539912  0.9445479511106923  0.689130595989532  1.0000
  H   H4        1.0  0.26797066940322617  0.0554617249349221  0.3108722502160504  1.0000
  H   H5        1.0  0.5471942963566149  0.0127190015398426  0.8437235592475433  1.0000
  H   H6        1.0  0.4528319958063419  0.9872756882854431  0.1562836016698057  1.0000
  H   H7        1.0  0.766437124746268  0.17148716062674652  0.9869981738081112  1.0000
  H   H8        1.0  0.23357658346133556  0.8285156307236222  0.013011317894758175  1.0000
  H   H9        1.0  0.6803936819726814  0.23367011362946488  0.8317717825992191  1.0000
  H   H10       1.0  0.31962521589316845  0.7663259930359415  0.16823070788946382  1.0000
  H   H11       1.0  0.5595784673909419  0.8998739655660655  0.3802889250072924  1.0000
  H   H12       1.0  0.440407228959458  0.10013036569357327  0.6197092031232148  1.0000
  H   H13       1.0  0.2267350648590066  0.4234397368140605  0.05420011573903587  1.0000
  H   H14       1.0  0.7732683644041882  0.5765457577254621  0.9457890449662971  1.0000
  H   H15       1.0  0.42053425130264793  0.49538040015709567  0.22208445285050266  1.0000
  H   H16       1.0  0.5794528492980006  0.5046077831918082  0.7779095797656199  1.0000
  H   H17       1.0  0.23839450133042556  0.2718885982569218  0.1582534226239005  1.0000
  H   H18       1.0  0.7615946745338461  0.7280969132344737  0.8417376170853006  1.0000
  H   H19       1.0  0.2106643049125196  0.041265249150335116  0.7766078249316735  1.0000
  H   H20       1.0  0.7893550591865549  0.9587282726810569  0.22338375697612636  1.0000
  H   H21       1.0  0.15712886966761624  0.24433323414874047  0.837823298393161  1.0000
  H   H22       1.0  0.84287777638027  0.7556562780069453  0.16216785959906585  1.0000
  H   H23       1.0  0.11449215386162587  0.0673773449748936  0.9230256203725775  1.0000
  H   H24       1.0  0.8855128484517536  0.9326081835294815  0.076959910732576  1.0000
  C   C1        1.0  0.7523747398521788  0.9275693277055976  0.5861941861303992  1.0000
  C   C2        1.0  0.24760476241309698  0.07244709988373899  0.4138096698277779  1.0000
  C   C3        1.0  0.3455369917162088  0.7501116514346152  0.4769819103052698  1.0000
  C   C4        1.0  0.6544540296643787  0.24989391467769198  0.5230258053731802  1.0000
  C   C5        1.0  0.6225309552195027  0.15461459993354507  0.9007186099058162  1.0000
  C   C6        1.0  0.3774869035153543  0.8453828477017993  0.09928489598323154  1.0000
  C   C7        1.0  0.5172589525759079  0.33407843377207763  0.07397287380617709  1.0000
  C   C8        1.0  0.48273924932658474  0.6659096848599546  0.9260246147940594  1.0000
  C   C9        1.0  0.5360504747766298  0.9149519857118236  0.4825819269261943  1.0000
  C   C10       1.0  0.46394427631938834  0.08505904352798409  0.5174184370960973  1.0000
  C   C11       1.0  0.8315004063085708  0.7659123024000107  0.5556618513024107  1.0000
  C   C12       1.0  0.168485354729448  0.23409599871080636  0.4443436091029867  1.0000
  C   C13       1.0  0.341362724892697  0.38448347412228395  0.12955470697590238  1.0000
  C   C14       1.0  0.6586307128839617  0.6155046938506172  0.8704392388321835  1.0000
  C   C15       1.0  0.221113224435399  0.1387660164351701  0.8684745612656855  1.0000
  C   C16       1.0  0.7788965946980184  0.8612234729089678  0.13151799648179013  1.0000
  N   N1        1.0  0.45444715063651847  0.21296746879737327  0.9528451132072321  1.0000
  N   N2        1.0  0.5455568455277342  0.7870192897709529  0.047152016466242175  1.0000
  O   O1        1.0  0.7911998292523563  0.6845290853655115  0.4304942520547074  1.0000
  O   O2        1.0  0.20876633064586506  0.31547388684025884  0.5695096370182355  1.0000
  O   O3        1.0  0.7249033876951002  0.4028421463042377  0.13877346653873704  1.0000
  O   O4        1.0  0.2750948112090369  0.5971459824101613  0.8612230599553217  1.0000
  O   O5        1.0  0.20243089808231926  0.6660837477166055  0.36114414857937055  1.0000
  O   O6        1.0  0.797570787074285  0.33392842935237593  0.6388737186648188  1.0000
  O   O7        1.0  0.9401793130768252  0.7267083518352491  0.6580622107654436  1.0000
  O   O8        1.0  0.05983662420258898  0.2733079999450112  0.3419399434138343  1.0000
  O   O9        1.0  0.33951348795032027  0.7118607374206292  0.5900743138460031  1.0000
  O   O10       1.0  0.6604887568345391  0.28815691550504136  0.4099357640929569  1.0000
