data_image0
_chemical_formula_structural       Cu2P6H38C28N2O20
_chemical_formula_sum              "Cu2 P6 H38 C28 N2 O20"
_cell_length_a       9.549602615153537
_cell_length_b       9.972711908541664
_cell_length_c       10.16611823911679
_cell_angle_alpha    80.43844256928361
_cell_angle_beta     72.89420059200619
_cell_angle_gamma    88.83845685936906

_space_group_name_H-M_alt    "P 1"
_space_group_IT_number       1

loop_
  _space_group_symop_operation_xyz
  'x, y, z'

loop_
  _atom_site_type_symbol
  _atom_site_label
  _atom_site_symmetry_multiplicity
  _atom_site_fract_x
  _atom_site_fract_y
  _atom_site_fract_z
  _atom_site_occupancy
  Cu  Cu1       1.0  0.2741414283710882  0.6398349955668792  0.485896470954266  1.0000
  Cu  Cu2       1.0  0.7258553776819384  0.36016867972426775  0.5140999587348174  1.0000
  P   P1        1.0  0.8151665054017344  0.10587570392457477  0.33634239870460897  1.0000
  P   P2        1.0  0.18483236025089408  0.8941290340218156  0.663663149591102  1.0000
  P   P3        1.0  0.11870100862578431  0.4699287496220775  0.7982225236948182  1.0000
  P   P4        1.0  0.8812891436566379  0.5300738321214452  0.20177977754867274  1.0000
  P   P5        1.0  0.4019661055402608  0.35954171698686815  0.3878931041893381  1.0000
  P   P6        1.0  0.5980349990124624  0.640458965704532  0.6121046524054207  1.0000
  H   H1        1.0  0.801507159708315  0.28163039465356815  0.17714649893513723  1.0000
  H   H2        1.0  0.19848506596048315  0.7183681512302653  0.8228588723896307  1.0000
  H   H3        1.0  0.17517562312077933  0.27686877278026145  0.5144008308035168  1.0000
  H   H4        1.0  0.8248329125812434  0.7231228608770477  0.4856013766667004  1.0000
  H   H5        1.0  0.9119847176533399  0.41957914464541074  0.9696551206220079  1.0000
  H   H6        1.0  0.08801083100946978  0.5804163806386667  0.030343969649088413  1.0000
  H   H7        1.0  0.703054946950907  0.8987895408669003  0.44883252102564336  1.0000
  H   H8        1.0  0.29694610067633687  0.10121216787503329  0.5511700000392776  1.0000
  H   H9        1.0  0.951337092146133  0.5921407035986803  0.42392010932505997  1.0000
  H   H10       1.0  0.048659540610600516  0.4078558563406388  0.5760804915933164  1.0000
  H   H11       1.0  0.0032929356252183015  0.6576498363085788  0.5373415150430958  1.0000
  H   H12       1.0  0.9966999713608756  0.34232736507164657  0.4626691664076644  1.0000
  H   H13       1.0  0.6056731851780626  0.019014558564379096  0.1810399596977633  1.0000
  H   H14       1.0  0.3943432132833565  0.9809853049395372  0.818955863209112  1.0000
  H   H15       1.0  0.522494883686619  0.364437733086575  0.1471706078564736  1.0000
  H   H16       1.0  0.47750517012691773  0.6355629304208675  0.8528244779526802  1.0000
  H   H17       1.0  0.5017529956309303  0.20037842795356645  0.24630357844693412  1.0000
  H   H18       1.0  0.4982547411230486  0.7996213120532614  0.7536876645658168  1.0000
  H   H19       1.0  0.03743012398198432  0.14202148926995758  0.9976518612877641  1.0000
  H   H20       1.0  0.9625633846491796  0.8579790873451001  0.0023429987637229076  1.0000
  H   H21       1.0  0.20536589184904133  0.11370596010550567  0.34933328689832166  1.0000
  H   H22       1.0  0.7946307376463579  0.8862895808361129  0.6506664992888815  1.0000
  H   H23       1.0  0.30907754372746876  0.8524168866530668  0.9932365771036659  1.0000
  H   H24       1.0  0.6909235189464766  0.14758482032566175  0.006764956526502942  1.0000
  H   H25       1.0  0.489733509267545  0.857923720970284  0.39657066491309906  1.0000
  H   H26       1.0  0.5102795747239173  0.14207712337477568  0.6034288221503628  1.0000
  H   H27       1.0  0.41123708004605664  0.39029171671753443  0.9709058059001165  1.0000
  H   H28       1.0  0.5887597646244274  0.6097099152885832  0.02908603202237706  1.0000
  H   H29       1.0  0.21660097473568382  0.6898202115712875  0.2132181582111841  1.0000
  H   H30       1.0  0.7834000859368616  0.31018557316146195  0.7867876217784229  1.0000
  H   H31       1.0  0.013691126774467903  0.9580069818448892  0.3581030452844303  1.0000
  H   H32       1.0  0.9863078258970506  0.04199672652453759  0.6418957636716199  1.0000
  H   H33       1.0  0.9610089232417209  0.9480844278899593  0.20668418371598554  1.0000
  H   H34       1.0  0.03897901571276209  0.05191608983270869  0.7933180585371957  1.0000
  H   H35       1.0  0.21357413524976468  0.2516855042642375  0.7629198961302494  1.0000
  H   H36       1.0  0.7864238118226724  0.7483181796316102  0.23707327973595224  1.0000
  H   H37       1.0  0.35074339155349327  0.3692550632900333  0.7600352256280445  1.0000
  H   H38       1.0  0.6492522820041843  0.6307465636377927  0.23996184098683665  1.0000
  C   C1        1.0  0.31985981284493903  0.25934180496140863  0.1684698318838045  1.0000
  C   C2        1.0  0.6801401624737552  0.7406578483643782  0.8315293763679179  1.0000
  C   C3        1.0  0.5182641032767136  0.9505511471815921  0.1818419507727924  1.0000
  C   C4        1.0  0.48175017665822395  0.04945275747164859  0.8181537643570563  1.0000
  C   C5        1.0  0.44157184235635333  0.29272609975816266  0.22495786469574602  1.0000
  C   C6        1.0  0.5584313957695531  0.7072705400207153  0.7750390122412938  1.0000
  C   C7        1.0  0.11615656879713751  0.17539269593299167  0.04555076356343329  1.0000
  C   C8        1.0  0.883834733028742  0.8246078546566125  0.9544456669600833  1.0000
  C   C9        1.0  0.20914327277240122  0.16178641645473849  0.24391117238148746  1.0000
  C   C10       1.0  0.7908523157677934  0.8382121622960313  0.756088387213623  1.0000
  C   C11       1.0  0.10611899041675343  0.12044819818873972  0.1843545673380333  1.0000
  C   C12       1.0  0.8938788500688375  0.8795504012978481  0.8156404594808038  1.0000
  C   C13       1.0  0.22552606074341955  0.273015428890993  0.9678776780948083  1.0000
  C   C14       1.0  0.7744706419840953  0.7269841809885945  0.03212141727808417  1.0000
  C   C15       1.0  0.35507998027479465  0.8578508203823813  0.07831818846670303  1.0000
  C   C16       1.0  0.6449244432691472  0.14215499721730396  0.9216817797932394  1.0000
  C   C17       1.0  0.46794846232239007  0.9519450531096821  0.06528554685080934  1.0000
  C   C18       1.0  0.532061404001972  0.048058799492658  0.934713309223092  1.0000
  C   C19       1.0  0.4560088339050025  0.8596521708496709  0.3032887773982225  1.0000
  C   C20       1.0  0.5440021250373306  0.1403506766492981  0.696708972425867  1.0000
  C   C21       1.0  0.3242893864484913  0.31583160710977143  0.031599384542921924  1.0000
  C   C22       1.0  0.6757083519715082  0.6841680237169853  0.9684033690503213  1.0000
  C   C23       1.0  0.30104202846566613  0.7664372874281111  0.2015739243246983  1.0000
  C   C24       1.0  0.6989645835755384  0.2335675389625322  0.7984246461667935  1.0000
  C   C25       1.0  0.9847908067027049  0.019231564392626396  0.2698918240316956  1.0000
  C   C26       1.0  0.015208051167341802  0.9807660388066349  0.7301070337110714  1.0000
  C   C27       1.0  0.23897977219347416  0.32977676885492707  0.8175705776458386  1.0000
  C   C28       1.0  0.761015849701451  0.6702228253671265  0.18242782181094702  1.0000
  N   N1        1.0  0.3512040506117274  0.7683393091935286  0.3118621508035345  1.0000
  N   N2        1.0  0.6488079643325122  0.2316604987330847  0.6881348381778949  1.0000
  O   O1        1.0  0.7703713185637683  0.1781980386151147  0.206017893659471  1.0000
  O   O2        1.0  0.22962411624807538  0.8217995387700441  0.7939907255519572  1.0000
  O   O3        1.0  0.15298101883404064  0.5785160018945276  0.8754606063219654  1.0000
  O   O4        1.0  0.847009041908237  0.42148149367653065  0.12454255843941538  1.0000
  O   O5        1.0  0.32146653070692105  0.4926393839042402  0.3718597546038182  1.0000
  O   O6        1.0  0.6785323239018056  0.5073572002973207  0.6281382884077757  1.0000
  O   O7        1.0  0.8380384581587209  0.20136166359925764  0.4294841776979794  1.0000
  O   O8        1.0  0.16195722970419982  0.7986491360711053  0.5705212089321918  1.0000
  O   O9        1.0  0.2851818185502425  0.24855353795260973  0.5001398903086524  1.0000
  O   O10       1.0  0.7148269355881923  0.7514452057668917  0.4998551836280284  1.0000
  O   O11       1.0  0.9564892819769141  0.41133851048552816  0.8662386378590129  1.0000
  O   O12       1.0  0.0435018831687159  0.5886569592212325  0.1337616184866377  1.0000
  O   O13       1.0  0.6872701474385964  0.9978197679635481  0.4081937609846592  1.0000
  O   O14       1.0  0.3127372176690812  0.0021861318729392985  0.5918280437185856  1.0000
  O   O15       1.0  0.5403564731209586  0.35716104920779657  0.4290032975668368  1.0000
  O   O16       1.0  0.4596467414341916  0.642837632092899  0.5709971837020404  1.0000
  O   O17       1.0  0.13311706761222553  0.5170528722096674  0.6430571430279599  1.0000
  O   O18       1.0  0.8668697421082286  0.4829466161473872  0.35694655088218497  1.0000
  O   O19       1.0  0.9731000121224299  0.6787645173819282  0.45217164552817474  1.0000
  O   O20       1.0  0.026891991848629004  0.3212258994420054  0.5478400445989635  1.0000
