data_image0
_chemical_formula_structural       Ag2H40C42N6O8
_chemical_formula_sum              "Ag2 H40 C42 N6 O8"
_cell_length_a       6.552612902459764
_cell_length_b       11.316226005660017
_cell_length_c       13.571282184220884
_cell_angle_alpha    105.22800512384927
_cell_angle_beta     90.00118875089542
_cell_angle_gamma    89.99900964720793

_space_group_name_H-M_alt    "P 1"
_space_group_IT_number       1

loop_
  _space_group_symop_operation_xyz
  'x, y, z'

loop_
  _atom_site_type_symbol
  _atom_site_label
  _atom_site_symmetry_multiplicity
  _atom_site_fract_x
  _atom_site_fract_y
  _atom_site_fract_z
  _atom_site_occupancy
  Ag  Ag1       1.0  0.6207966148620656  0.46962522721850775  0.5390870252732964  1.0000
  Ag  Ag2       1.0  0.120793443753449  0.5303734013671291  0.4609195762862582  1.0000
  H   H1        1.0  0.6006983775147319  0.7497567213766203  0.9040473071953197  1.0000
  H   H2        1.0  0.10066497966256087  0.2502544429995411  0.09594811658384117  1.0000
  H   H3        1.0  0.0760832588597538  0.037978185146521105  0.826778645168204  1.0000
  H   H4        1.0  0.5760890345724903  0.9620229816847896  0.17321706357372332  1.0000
  H   H5        1.0  0.025429468023567405  0.6922941531159807  0.8323447348268682  1.0000
  H   H6        1.0  0.5254198864770173  0.3076876864106026  0.16765906190829574  1.0000
  H   H7        1.0  0.9413050646133669  0.6417552256444735  0.9949286665739475  1.0000
  H   H8        1.0  0.44129035512555237  0.35824767254627693  0.005077764209502827  1.0000
  H   H9        1.0  0.7064459710922791  0.5789096666288813  0.9457518876768983  1.0000
  H   H10       1.0  0.2064375876451479  0.4210895485433568  0.05424760758192088  1.0000
  H   H11       1.0  0.24146061705869218  0.500020658684953  0.8271124809401581  1.0000
  H   H12       1.0  0.7414408119637201  0.4999746698483917  0.17288568947251545  1.0000
  H   H13       1.0  0.36552483252953033  0.2883564301100918  0.782233096377311  1.0000
  H   H14       1.0  0.8655066212694962  0.7116313439746236  0.2177718659630797  1.0000
  H   H15       1.0  0.8181029349699925  0.1699974348084581  0.9032875940288815  1.0000
  H   H16       1.0  0.3181037500922769  0.8300166218751956  0.09671439899125998  1.0000
  H   H17       1.0  0.6915938615700129  0.38352188966518946  0.9480165657453055  1.0000
  H   H18       1.0  0.19156567628626675  0.6164961029649875  0.05197699887747116  1.0000
  H   H19       1.0  0.6456290075834303  0.03489564068976139  0.9845922218774416  1.0000
  H   H20       1.0  0.14561299942823777  0.9651069885822492  0.015400853248763608  1.0000
  H   H21       1.0  0.46365908414818346  0.9262821093699999  0.9196310651188636  1.0000
  H   H22       1.0  0.9636543739372456  0.0737362577094984  0.08035131784073707  1.0000
  H   H23       1.0  0.5807560227433084  0.026711761425652  0.8557750376117494  1.0000
  H   H24       1.0  0.08071485120400719  0.9732924026112926  0.14421333371969064  1.0000
  H   H25       1.0  0.6104408162280065  0.6120360911689603  0.3758352298103417  1.0000
  H   H26       1.0  0.11042468529079488  0.38796085808050407  0.6241686502993457  1.0000
  H   H27       1.0  0.6337273445094949  0.8293485670917633  0.371293640098976  1.0000
  H   H28       1.0  0.1337363620821819  0.170649182540437  0.6287091932697136  1.0000
  H   H29       1.0  0.4695936620164288  0.9308848570485895  0.6914729517721554  1.0000
  H   H30       1.0  0.9696036056467177  0.0691180968237433  0.3085264053774565  1.0000
  H   H31       1.0  0.4713290351325198  0.7079977936907156  0.6839300113761622  1.0000
  H   H32       1.0  0.9713141863279445  0.2920012277148559  0.31607578400151226  1.0000
  H   H33       1.0  0.5171618664497898  0.2236115239467367  0.3778018750917197  1.0000
  H   H34       1.0  0.017168886598895497  0.7763805224291146  0.6222020943232207  1.0000
  H   H35       1.0  0.5107264163477794  0.0021046043488226005  0.3695332125422296  1.0000
  H   H36       1.0  0.010714821980108997  0.9978830915031552  0.6304644805588423  1.0000
  H   H37       1.0  0.6298814078821876  0.1006381852592497  0.694759258060017  1.0000
  H   H38       1.0  0.1298708713229857  0.8993475358003947  0.3052450520116777  1.0000
  H   H39       1.0  0.6398159570619908  0.31836156616236627  0.6880487314946746  1.0000
  H   H40       1.0  0.1398184671022662  0.681625992178411  0.31195391111319276  1.0000
  C   C1        1.0  0.7834092636903519  0.5827670137414955  0.7428151750134687  1.0000
  C   C2        1.0  0.2834022035710362  0.41723544166428195  0.25718219097849726  1.0000
  C   C3        1.0  0.8720695905551494  0.6605181901698032  0.8450357072645998  1.0000
  C   C4        1.0  0.37204366743304007  0.3394815158055877  0.15496999341117854  1.0000
  C   C5        1.0  0.8671415994168397  0.5868606523679389  0.9250243257703371  1.0000
  C   C6        1.0  0.36711757406024487  0.41314120386661557  0.07497373656706684  1.0000
  C   C7        1.0  0.9541203566119235  0.4589419108746711  0.8922583376922187  1.0000
  C   C8        1.0  0.45411674230955157  0.5410605223409206  0.10773262950785775  1.0000
  C   C9        1.0  0.144752563950199  0.42959479866826183  0.8447491440174485  1.0000
  C   C10       1.0  0.6447435749583688  0.5704136254861182  0.15526301444955232  1.0000
  C   C11       1.0  0.21705171084452954  0.3092220715554603  0.8186515282066791  1.0000
  C   C12       1.0  0.7170325510138225  0.690779581798239  0.18135529717244475  1.0000
  C   C13       1.0  0.10080226810142529  0.21410768802957142  0.838864874033831  1.0000
  C   C14       1.0  0.6008052666865069  0.7858923347864675  0.1611322808123034  1.0000
  C   C15       1.0  0.9108659918628914  0.24239812245924233  0.8868042054838623  1.0000
  C   C16       1.0  0.41085294904265607  0.7576105380847268  0.11320183801557697  1.0000
  C   C17       1.0  0.8404210460291637  0.3628402815862303  0.9119817040895694  1.0000
  C   C18       1.0  0.3404060072214036  0.6371699535156026  0.08801958936851405  1.0000
  C   C19       1.0  0.7798395052398065  0.882507022610781  0.8742490724068542  1.0000
  C   C20       1.0  0.2798358771157509  0.11749414380575021  0.12573320331446777  1.0000
  C   C21       1.0  0.6071612422187725  0.9720738748312454  0.910341661621707  1.0000
  C   C22       1.0  0.10715725222075179  0.027939151612677904  0.08965206588708699  1.0000
  C   C23       1.0  0.5866766140712443  0.6862048352354506  0.4445633366051779  1.0000
  C   C24       1.0  0.08667959549126888  0.3137894342885446  0.5554426057003423  1.0000
  C   C25       1.0  0.5948714419063634  0.8079955633803166  0.4426159828233408  1.0000
  C   C26       1.0  0.09490264567158141  0.19199341273599665  0.5573813910604455  1.0000
  C   C27       1.0  0.5566139520138265  0.9006523133647378  0.5319945043857357  1.0000
  C   C28       1.0  0.05663646365110959  0.099340495204622  0.468006359994497  1.0000
  C   C29       1.0  0.5109110122687213  0.8640051934729344  0.6207407073109792  1.0000
  C   C30       1.0  0.01093617060436  0.13600834093079328  0.37925733610178003  1.0000
  C   C31       1.0  0.5070975459117834  0.7404901053417134  0.6170324133120031  1.0000
  C   C32       1.0  0.007106884456135298  0.2595159259984429  0.38296967529237236  1.0000
  C   C33       1.0  0.54355788803705  0.19178361551463746  0.4459845210768945  1.0000
  C   C34       1.0  0.0435411278528974  0.8082055730690596  0.5540168112343762  1.0000
  C   C35       1.0  0.5386410518662856  0.06814780519658832  0.4425050419497437  1.0000
  C   C36       1.0  0.0386328755527359  0.9318525850519774  0.5574937885497914  1.0000
  C   C37       1.0  0.5653031747221391  0.030602952543084407  0.5323238813600424  1.0000
  C   C38       1.0  0.0652945193476597  0.9693888268300485  0.467678295683882  1.0000
  C   C39       1.0  0.6023103418793524  0.1227560971335819  0.6224906895115153  1.0000
  C   C40       1.0  0.10230210115382479  0.8772437858212995  0.3775101323394806  1.0000
  C   C41       1.0  0.6088935848738615  0.24436445160282722  0.6197731602739152  1.0000
  C   C42       1.0  0.10887696793550107  0.7556309101577415  0.380223686289689  1.0000
  N   N1        1.0  0.7425310997380306  0.7680640147184687  0.8813181844974448  1.0000
  N   N2        1.0  0.24250230328495795  0.23193572865378798  0.11868548659121095  1.0000
  N   N3        1.0  0.5767070602590536  0.27934443350049787  0.5332986956914211  1.0000
  N   N4        1.0  0.07670138141966731  0.7206438863706879  0.46669465117414416  1.0000
  N   N5        1.0  0.5432566254032379  0.6522436614779393  0.5302494649721153  1.0000
  N   N6        1.0  0.0432716258004291  0.34774463949022316  0.46975091278392955  1.0000
  O   O1        1.0  0.8967290132015792  0.5666886808365916  0.6646106949508377  1.0000
  O   O2        1.0  0.3967172367386951  0.4333118673792952  0.33539250855330477  1.0000
  O   O3        1.0  0.6029094170016335  0.5437208023326577  0.746098790159344  1.0000
  O   O4        1.0  0.10291017785701229  0.4562920221266468  0.25390148012172625  1.0000
  O   O5        1.0  0.1754972964049486  0.09730747567664372  0.8102502419015989  1.0000
  O   O6        1.0  0.6754811865738544  0.9026959961491627  0.18976545125582323  1.0000
  O   O7        1.0  0.9460712569271477  0.9132382850037782  0.8419761479391564  1.0000
  O   O8        1.0  0.4460867601303206  0.08675771992408698  0.15801539614056273  1.0000
