data_image0
_chemical_formula_structural       Co2H12C12N4O12
_chemical_formula_sum              "Co2 H12 C12 N4 O12"
_cell_length_a       7.0682365897579515
_cell_length_b       7.069986742499863
_cell_length_c       10.389592493553472
_cell_angle_alpha    86.87518040351829
_cell_angle_beta     117.47572863300417
_cell_angle_gamma    113.74937641690651

_space_group_name_H-M_alt    "P 1"
_space_group_IT_number       1

loop_
  _space_group_symop_operation_xyz
  'x, y, z'

loop_
  _atom_site_type_symbol
  _atom_site_label
  _atom_site_symmetry_multiplicity
  _atom_site_fract_x
  _atom_site_fract_y
  _atom_site_fract_z
  _atom_site_occupancy
  Co  Co1       1.0  0.4999964250481809  0.9999987577315961  0.9999970135008667  1.0000
  Co  Co2       1.0  0.49999835951229693  0.49999803930374037  0.5000004986863331  1.0000
  H   H1        1.0  0.16865549568674254  0.14338430879112  0.8325151120258668  1.0000
  H   H2        1.0  0.8108952215616867  0.3362145554215345  0.6674984550190644  1.0000
  H   H3        1.0  0.8313519297416716  0.8566240919625869  0.16748642339365455  1.0000
  H   H4        1.0  0.18910497600511184  0.6637765811942984  0.3325015433998004  1.0000
  H   H5        1.0  0.21220126705674858  0.058914775664533195  0.7148567920588462  1.0000
  H   H6        1.0  0.8436322650815953  0.4971495967174775  0.7851159706767561  1.0000
  H   H7        1.0  0.7878099323312142  0.9410982462630103  0.28514464322411476  1.0000
  H   H8        1.0  0.15636070771945032  0.5028401515884864  0.2148812861536697  1.0000
  H   H9        1.0  0.21950194950252208  0.5502886583410599  0.8564703628348981  1.0000
  H   H10       1.0  0.19356264607390733  0.363043511899754  0.6432912349650124  1.0000
  H   H11       1.0  0.7804912471834128  0.4497201692100177  0.14352666466762545  1.0000
  H   H12       1.0  0.8064230026929378  0.6369560733036578  0.3567059928106247  1.0000
  C   C1        1.0  0.834334229219621  0.1314573783705484  0.9094223292205896  1.0000
  C   C2        1.0  0.7222532606870828  0.9248446933565546  0.5908023730680156  1.0000
  C   C3        1.0  0.1656744453163128  0.868547507004145  0.09056988614958068  1.0000
  C   C4        1.0  0.2777622695673827  0.07516203354743568  0.4092070095672398  1.0000
  C   C5        1.0  0.6421273887103425  0.9272648389494124  0.8119014886819612  1.0000
  C   C6        1.0  0.6156497852331597  0.8301847738697532  0.688291757555227  1.0000
  C   C7        1.0  0.35787332506283315  0.07273906424900643  0.18810038381402447  1.0000
  C   C8        1.0  0.38435797631316854  0.1698095072694699  0.3117168500932692  1.0000
  C   C9        1.0  0.3323229170176773  0.6270494147080043  0.8079373857900194  1.0000
  C   C10       1.0  0.3191248114734222  0.5243455077556121  0.6919947681497263  1.0000
  C   C11       1.0  0.6676696546152954  0.3729529824659395  0.19205667771154816  1.0000
  C   C12       1.0  0.6808672257953032  0.4756507209652909  0.3080050644110059  1.0000
  N   N1        1.0  0.4899174608632179  0.8263696734291556  0.8654168951421326  1.0000
  N   N2        1.0  0.4610303564872494  0.6244702793616311  0.6346191122618521  1.0000
  N   N3        1.0  0.5100805541611847  0.1736309586753606  0.13457854641735165  1.0000
  N   N4        1.0  0.5389718059287673  0.375524034176415  0.3653832631687308  1.0000
  O   O1        1.0  0.026499493417865925  0.2216488545568467  0.9086611864374704  1.0000
  O   O2        1.0  0.8133632736517382  0.11775412513805612  0.5916897529281755  1.0000
  O   O3        1.0  0.9735008160913877  0.7783518216815394  0.09133869731743965  1.0000
  O   O4        1.0  0.18663703276165225  0.8822306752723249  0.408311335414524  1.0000
  O   O5        1.0  0.785799928934949  0.19425856446893872  0.0006187798669471851  1.0000
  O   O6        1.0  0.6936747389546624  0.7851577149601139  0.4994877544402101  1.0000
  O   O7        1.0  0.21419544381110714  0.8057517544195958  0.9993777974496822  1.0000
  O   O8        1.0  0.3063216569165802  0.21483050960956257  0.5005161847940087  1.0000
  O   O9        1.0  0.2896461487417952  0.1268900566144779  0.8162666960789835  1.0000
  O   O10       1.0  0.8107227636025908  0.4734400586746829  0.6838199890024016  1.0000
  O   O11       1.0  0.7103679883418503  0.873122841694524  0.18373450226407323  1.0000
  O   O12       1.0  0.1892733676831782  0.5265527694298413  0.31617800614799313  1.0000
