data_image0
_chemical_formula_structural       Zr6H40C88Cl12O32
_chemical_formula_sum              "Zr6 H40 C88 Cl12 O32"
_cell_length_a       19.263091970773765
_cell_length_b       19.238663748400747
_cell_length_c       19.242959876140368
_cell_angle_alpha    59.24701703952088
_cell_angle_beta     59.949862430628656
_cell_angle_gamma    59.97438794956846

_space_group_name_H-M_alt    "P 1"
_space_group_IT_number       1

loop_
  _space_group_symop_operation_xyz
  'x, y, z'

loop_
  _atom_site_type_symbol
  _atom_site_label
  _atom_site_symmetry_multiplicity
  _atom_site_fract_x
  _atom_site_fract_y
  _atom_site_fract_z
  _atom_site_occupancy
  Zr  Zr1       1.0  0.9079393989313759  0.40698883008392533  0.5930449527915727  1.0000
  Zr  Zr2       1.0  0.0920586237522158  0.5925288052424449  0.4075011091724291  1.0000
  Zr  Zr3       1.0  0.09171182452548259  0.40650389445217877  0.5935016904697505  1.0000
  Zr  Zr4       1.0  0.9082890854382055  0.5929843506177478  0.4070467631878217  1.0000
  Zr  Zr5       1.0  0.9086514236681109  0.5911195301885144  0.5916107072701282  1.0000
  Zr  Zr6       1.0  0.09138684256198797  0.408389280903819  0.40885706492731794  1.0000
  H   H1        1.0  0.927658155066929  0.42553927527274027  0.7185183131097264  1.0000
  H   H2        1.0  0.9283413643501602  0.7179974867104734  0.42604207947236017  1.0000
  H   H3        1.0  0.21665158457547284  0.42746371727497495  0.42871593267131647  1.0000
  H   H4        1.0  0.9272047118262989  0.4281435880157716  0.42801979216405084  1.0000
  H   H5        1.0  0.3179072282513572  0.614073396425141  0.17791693404063114  1.0000
  H   H6        1.0  0.6783515444396713  0.38947395109595123  0.8187115010522419  1.0000
  H   H7        1.0  0.6781933526286815  0.6120837180315774  0.8188200842541348  1.0000
  H   H8        1.0  0.5535537916307119  0.6085402390491057  0.9458062637445295  1.0000
  H   H9        1.0  0.31860262585520605  0.39094423461785516  0.17829150408516625  1.0000
  H   H10       1.0  0.4460885726804377  0.39156292356666705  0.05429360539317691  1.0000
  H   H11       1.0  0.11348652340571144  0.8182932116793111  0.3897230709528827  1.0000
  H   H12       1.0  0.8901364388229283  0.17740497685876722  0.6144097165471932  1.0000
  H   H13       1.0  0.11210090644951974  0.1779795633576811  0.39115922186811497  1.0000
  H   H14       1.0  0.10776004061219882  0.05426870472956584  0.3914539535262732  1.0000
  H   H15       1.0  0.8907520344823467  0.8186176063478497  0.6121732067037655  1.0000
  H   H16       1.0  0.891763690325305  0.9458193473455907  0.608356844222662  1.0000
  H   H17       1.0  0.314877952791285  0.1806926636287471  0.3919797423599931  1.0000
  H   H18       1.0  0.6815919178829829  0.8152326480706124  0.6119986380148603  1.0000
  H   H19       1.0  0.6757872661131042  0.8223270473172378  0.38880762970966026  1.0000
  H   H20       1.0  0.5511868460029132  0.9491464139139651  0.39111380982001254  1.0000
  H   H21       1.0  0.321469302025072  0.17395333921877656  0.6146182234024308  1.0000
  H   H22       1.0  0.44935398026040474  0.05066998842458059  0.6086857799305605  1.0000
  H   H23       1.0  0.8913782241600856  0.6117751300444709  0.8154033276949803  1.0000
  H   H24       1.0  0.1124858665816219  0.3918075520555462  0.18101162236967377  1.0000
  H   H25       1.0  0.8900739949411332  0.6145005191701359  0.17424445787504092  1.0000
  H   H26       1.0  0.8915151079286331  0.6087608520128639  0.050782537276440116  1.0000
  H   H27       1.0  0.11330954306271918  0.3886457224770297  0.8226314626340211  1.0000
  H   H28       1.0  0.1088252486945363  0.39121294957058694  0.9492906963705038  1.0000
  H   H29       1.0  0.11322723417050884  0.8202020510224912  0.17677840629165323  1.0000
  H   H30       1.0  0.1764378467075713  0.9347574790774758  0.06549531059260254  1.0000
  H   H31       1.0  0.8905675337657467  0.8189348056633249  0.17777946229805527  1.0000
  H   H32       1.0  0.8896592884331583  0.17632613431773325  0.8205694999331854  1.0000
  H   H33       1.0  0.8231612611260033  0.06496731015421645  0.9351167411151522  1.0000
  H   H34       1.0  0.11244930132865952  0.17734685323340943  0.8195091181488223  1.0000
  H   H35       1.0  0.31701992987234456  0.388648199557977  0.6149779947611832  1.0000
  H   H36       1.0  0.6794477064859379  0.6143602011430573  0.38927675434177195  1.0000
  H   H37       1.0  0.6765670941519842  0.38894553260146136  0.6141814999966115  1.0000
  H   H38       1.0  0.5523463465199396  0.3903396898516931  0.6101119443542159  1.0000
  H   H39       1.0  0.32038397056444257  0.6135496427106447  0.3895405061541482  1.0000
  H   H40       1.0  0.4472682628388324  0.6095168859264816  0.39094866223263847  1.0000
  C   C1        1.0  0.7645516201233561  0.5008143278838733  0.7315550981396726  1.0000
  C   C2        1.0  0.003112230687051198  0.7311017744114923  0.5011705584081128  1.0000
  C   C3        1.0  0.2305564245710414  0.5038470111466111  0.2639208320170141  1.0000
  C   C4        1.0  0.001762331169530231  0.2634002725100473  0.5042736114749288  1.0000
  C   C5        1.0  0.0016253221143996892  0.26141333954115004  0.7342505761694866  1.0000
  C   C6        1.0  0.7642399633525585  0.5025186570993795  0.5021326551414661  1.0000
  C   C7        1.0  0.002631652715336793  0.733731102294577  0.26188072344910296  1.0000
  C   C8        1.0  0.2311473308189775  0.5015337449942194  0.5031671732284693  1.0000
  C   C9        1.0  0.0026025490750994336  0.5005438125682318  0.7319565342312372  1.0000
  C   C10       1.0  0.2301567698383733  0.2629427023816362  0.504502500047309  1.0000
  C   C11       1.0  0.0024051058728174284  0.5041779836287219  0.2633652466901423  1.0000
  C   C12       1.0  0.7649864749740513  0.7315219812529891  0.5009853655083205  1.0000
  C   C13       1.0  0.3083818156628837  0.5032910392750621  0.1868861424766237  1.0000
  C   C14       1.0  0.6873065463562255  0.5008287569509235  0.8091580201874606  1.0000
  C   C15       1.0  0.34640755610584506  0.5650275367346608  0.1500158117313859  1.0000
  C   C16       1.0  0.4201890987945516  0.5655578606690811  0.07875653956620708  1.0000
  C   C17       1.0  0.650388029201764  0.43795960288920804  0.8471832897059314  1.0000
  C   C18       1.0  0.5788608355430894  0.43512472719946504  0.920767711073907  1.0000
  C   C19       1.0  0.650660929979999  0.5622411785663958  0.8467368451366043  1.0000
  C   C20       1.0  0.5794246642530608  0.5593945759442749  0.9194392718708855  1.0000
  C   C21       1.0  0.3463545335282062  0.440544142016293  0.15064573662387917  1.0000
  C   C22       1.0  0.41931616590400705  0.44162899572943815  0.0797257797225442  1.0000
  C   C23       1.0  0.46088187235372396  0.5028626469003541  0.03874121422171586  1.0000
  C   C24       1.0  0.5385986428291358  0.49739943268910025  0.9611887095142464  1.0000
  C   C25       1.0  0.0026587236961927627  0.8088203836425977  0.5010289821908812  1.0000
  C   C26       1.0  0.0014441319945887494  0.18647729430366414  0.5035821531368255  1.0000
  C   C27       1.0  0.06441458110434421  0.8468522178766876  0.4381198419377341  1.0000
  C   C28       1.0  0.0651049115778402  0.92054028066557  0.43515604849761047  1.0000
  C   C29       1.0  0.9385298067596749  0.1496197144222792  0.5652585923907054  1.0000
  C   C30       1.0  0.9353651686359828  0.07849917621608428  0.5656260488189631  1.0000
  C   C31       1.0  0.062364542615121386  0.15036023734146653  0.4407165180016079  1.0000
  C   C32       1.0  0.05911926650001221  0.07959050234448736  0.44162903560143  1.0000
  C   C33       1.0  0.9402124997481206  0.8465221698516957  0.5623148390227186  1.0000
  C   C34       1.0  0.941495714166244  0.9193437863611184  0.5593255224588346  1.0000
  C   C35       1.0  0.0025836108663666872  0.9610627229623957  0.4973480381270645  1.0000
  C   C36       1.0  0.997295519838751  0.03859845776894828  0.502835612575268  1.0000
  C   C37       1.0  0.308195868376984  0.18613588978822557  0.5037292323357079  1.0000
  C   C38       1.0  0.6877308027142984  0.8091084777706924  0.5008762265206033  1.0000
  C   C39       1.0  0.3447409561130499  0.15138259072051607  0.4401904682906307  1.0000
  C   C40       1.0  0.4186892791313285  0.08050172097261306  0.4361505321771659  1.0000
  C   C41       1.0  0.6523613909400935  0.8451447471869714  0.5631442963752276  1.0000
  C   C42       1.0  0.5808396595441534  0.9185434067897802  0.5646171688218045  1.0000
  C   C43       1.0  0.6495119718738067  0.8486017357401252  0.4386798409851381  1.0000
  C   C44       1.0  0.5783057649321389  0.9212081822177824  0.44069712523806714  1.0000
  C   C45       1.0  0.34795775373707016  0.14810217760556546  0.5643687381289697  1.0000
  C   C46       1.0  0.42112659932029556  0.07755217096714515  0.5602378369253386  1.0000
  C   C47       1.0  0.46111603937863066  0.038601153172393834  0.4978348398900679  1.0000
  C   C48       1.0  0.5390181466567723  0.9609621312719128  0.5023266677706816  1.0000
  C   C49       1.0  0.0024554385337011474  0.5006406450542115  0.8093951041658015  1.0000
  C   C50       1.0  0.0020016654859345874  0.5035635552904125  0.18644473316283688  1.0000
  C   C51       1.0  0.9395420218585497  0.5629824385822741  0.8453410693546104  1.0000
  C   C52       1.0  0.9362182558124558  0.5645935935059683  0.9186594086123206  1.0000
  C   C53       1.0  0.06377585695179983  0.4400750238983662  0.15164471879391775  1.0000
  C   C54       1.0  0.06482300869033233  0.43614446500556886  0.08066979606360995  1.0000
  C   C55       1.0  0.939690615542702  0.5642818005395753  0.14835589956805265  1.0000
  C   C56       1.0  0.9412684382988912  0.5602597566578424  0.07770995935481304  1.0000
  C   C57       1.0  0.06342896820007839  0.4385548866687046  0.8488499029305174  1.0000
  C   C58       1.0  0.060033327748428005  0.4407180441614288  0.9213683149939698  1.0000
  C   C59       1.0  0.9979152478151575  0.5023710437427906  0.9610795724580611  1.0000
  C   C60       1.0  0.002650397140939653  0.4978780549324995  0.0387334419003196  1.0000
  C   C61       1.0  0.06452854376171743  0.8498048091376234  0.14751395688468702  1.0000
  C   C62       1.0  0.06457937405514243  0.9241295279435348  0.07445347211726286  1.0000
  C   C63       1.0  0.12788920347828978  0.9632546982438797  0.036322238064748456  1.0000
  C   C64       1.0  0.9384299340197867  0.8491671732361613  0.14801868028008877  1.0000
  C   C65       1.0  0.9361704914790674  0.92340121528796  0.07510763106807886  1.0000
  C   C66       1.0  0.8722080285120838  0.9640304959627386  0.035463983674972624  1.0000
  C   C67       1.0  0.9379721407120271  0.14704125814994728  0.8502336499269844  1.0000
  C   C68       1.0  0.9366415629972734  0.07396124777331177  0.9245513669765728  1.0000
  C   C69       1.0  0.8723581504933761  0.03580468243962542  0.9636546452329782  1.0000
  C   C70       1.0  0.06414696708691996  0.14755995991973947  0.8496988084584843  1.0000
  C   C71       1.0  0.06506011842118646  0.0746502466519061  0.923907190787503  1.0000
  C   C72       1.0  0.12802267885326285  0.03504315801259843  0.9645387176790335  1.0000
  C   C73       1.0  0.0021420464234578386  0.8126521133691043  0.18368000958437852  1.0000
  C   C74       1.0  0.00018838549073748508  0.9617883840803217  0.036945202435695955  1.0000
  C   C75       1.0  0.0013207402235975872  0.18321783083086982  0.8131548873194133  1.0000
  C   C76       1.0  0.0008336907979469301  0.03647196437961519  0.9622558099147154  1.0000
  C   C77       1.0  0.3087973345355548  0.5013497552616927  0.5028787794340558  1.0000
  C   C78       1.0  0.6870448729909168  0.5022558145488035  0.5019645913859636  1.0000
  C   C79       1.0  0.34597675585596477  0.43771885198956545  0.5654614807551752  1.0000
  C   C80       1.0  0.4194858346152869  0.43468349488607333  0.5663797930870089  1.0000
  C   C81       1.0  0.6509233733329226  0.564855679113208  0.4383309976206179  1.0000
  C   C82       1.0  0.5795278556409256  0.5657872685022908  0.43529648597286313  1.0000
  C   C83       1.0  0.6497000260815824  0.4391828484343776  0.5637904050281436  1.0000
  C   C84       1.0  0.5786374355239942  0.440694629503426  0.5606754082882119  1.0000
  C   C85       1.0  0.3474012645383977  0.5631708635089367  0.4397917786100862  1.0000
  C   C86       1.0  0.420066410691035  0.5600682159743329  0.4412965974507372  1.0000
  C   C87       1.0  0.46085164429855735  0.4974297225080305  0.5032739712587712  1.0000
  C   C88       1.0  0.5385166668897766  0.5026727648074214  0.498039093707213  1.0000
  Cl  Cl1       1.0  0.4522708449218057  0.650172655496249  0.049675217037432315  1.0000
  Cl  Cl2       1.0  0.5496330475555452  0.3475639592315647  0.9528008117273644  1.0000
  Cl  Cl3       1.0  0.1498487439663731  0.9525731602757688  0.34761290533793227  1.0000
  Cl  Cl4       1.0  0.8477147775900491  0.049442847614401  0.6502114174174878  1.0000
  Cl  Cl5       1.0  0.4487125274628527  0.054459876595942015  0.34778056407288466  1.0000
  Cl  Cl6       1.0  0.5536788389009426  0.947594726538206  0.6500462051723305  1.0000
  Cl  Cl7       1.0  0.8489482918155883  0.6500909973029608  0.9476225111691933  1.0000
  Cl  Cl8       1.0  0.1492744303283969  0.34781852235526867  0.05458663351893021  1.0000
  Cl  Cl9       1.0  0.45035616744722523  0.34608521569876427  0.6521481295215352  1.0000
  Cl  Cl10      1.0  0.5514922705197162  0.6515518623739283  0.3466993276712815  1.0000
  Cl  Cl11      1.0  0.20610629722596477  0.07985330552438083  0.9209005408577654  1.0000
  Cl  Cl12      1.0  0.7929281901956671  0.9204123627707971  0.08026590626469948  1.0000
  O   O1        1.0  0.7948334108992369  0.4413081271986599  0.7021595149884379  1.0000
  O   O2        1.0  0.06172604468777343  0.7016904837439811  0.44166608648205136  1.0000
  O   O3        1.0  0.20081174004379668  0.5627637501758613  0.2939280905678173  1.0000
  O   O4        1.0  0.9426776267426149  0.29330239019778037  0.5632880146652327  1.0000
  O   O5        1.0  0.06042478148049205  0.2923574970184005  0.7037299371637077  1.0000
  O   O6        1.0  0.7950135024294267  0.5619320168686743  0.44205927222896696  1.0000
  O   O7        1.0  0.943374524323914  0.703224814380505  0.2929154595024883  1.0000
  O   O8        1.0  0.20107645599822616  0.44141233410390174  0.5625429562665403  1.0000
  O   O9        1.0  0.9432858122302644  0.5594884978181014  0.7012677513255453  1.0000
  O   O10       1.0  0.1997262862295841  0.2943931117128075  0.44488057933853037  1.0000
  O   O11       1.0  0.06103070298379967  0.4445535649046448  0.29477574978072596  1.0000
  O   O12       1.0  0.7960118874617093  0.7008587525251927  0.5599543466382927  1.0000
  O   O13       1.0  0.2004316851898337  0.29256984762013627  0.5636701339415353  1.0000
  O   O14       1.0  0.9432615394731555  0.5632398568569955  0.29310845588389617  1.0000
  O   O15       1.0  0.7952106791163583  0.7023205579155772  0.4413762317080412  1.0000
  O   O16       1.0  0.06109650312401252  0.4408109379700207  0.7028950255661711  1.0000
  O   O17       1.0  0.9423463401842729  0.2923927281261526  0.7038181062022915  1.0000
  O   O18       1.0  0.20132640369648386  0.5611079554172349  0.4430079510241569  1.0000
  O   O19       1.0  0.06142698827427021  0.703278457969681  0.2927827601588717  1.0000
  O   O20       1.0  0.7947005555632384  0.4422871253400018  0.5616527455071676  1.0000
  O   O21       1.0  0.060497447893318596  0.29459391278587793  0.44456932851801406  1.0000
  O   O22       1.0  0.795506506508829  0.5597620071366549  0.7011314753425212  1.0000
  O   O23       1.0  0.9437088467524647  0.7006138597342826  0.56021271281778  1.0000
  O   O24       1.0  0.2003238519970694  0.4441687276213385  0.29506596089317594  1.0000
  O   O25       1.0  0.9479769772967398  0.44846047746008827  0.44848780444538505  1.0000
  O   O26       1.0  0.15509503919526665  0.447979188007082  0.4489976991568057  1.0000
  O   O27       1.0  0.948757880912673  0.6559223651016453  0.4470772575159074  1.0000
  O   O28       1.0  0.9482687342354764  0.4465673735261504  0.6564410768434286  1.0000
  O   O29       1.0  0.0384762174254118  0.5374661262675035  0.5383643108439529  1.0000
  O   O30       1.0  0.8857078624999271  0.5378492264851573  0.5380063325634269  1.0000
  O   O31       1.0  0.03799790138954491  0.5390227466598247  0.3853526217354926  1.0000
  O   O32       1.0  0.03764744202008051  0.3848767371801288  0.539508276141376  1.0000
