data_image0
_chemical_formula_structural       Cd2H12C16I4N8Cl4
_chemical_formula_sum              "Cd2 H12 C16 I4 N8 Cl4"
_cell_length_a       3.959406132385995
_cell_length_b       10.208801318916583
_cell_length_c       16.708628660192026
_cell_angle_alpha    89.99872493778587
_cell_angle_beta     89.61429211436855
_cell_angle_gamma    89.9991144468757

_space_group_name_H-M_alt    "P 1"
_space_group_IT_number       1

loop_
  _space_group_symop_operation_xyz
  'x, y, z'

loop_
  _atom_site_type_symbol
  _atom_site_label
  _atom_site_symmetry_multiplicity
  _atom_site_fract_x
  _atom_site_fract_y
  _atom_site_fract_z
  _atom_site_occupancy
  Cd  Cd1       1.0  0.49999722289010146  0.5000000904619668  0.5000004285969839  1.0000
  Cd  Cd2       1.0  0.999998716391481  2.7855343489999977e-06  3.98181882100705e-07  1.0000
  H   H1        1.0  0.2576730089304249  0.20353262987971726  0.5272620512109684  1.0000
  H   H2        1.0  0.24236153632872973  0.703530405233863  0.9727435246183093  1.0000
  H   H3        1.0  0.7423367454679948  0.7964665714928288  0.4727364434321189  1.0000
  H   H4        1.0  0.7576354738146306  0.29647467342756767  0.027256739288184003  1.0000
  H   H5        1.0  0.8348313793902304  0.256336543338854  0.7816007164271853  1.0000
  H   H6        1.0  0.6651537821612763  0.7563626387883532  0.7184140217713237  1.0000
  H   H7        1.0  0.16517837515789313  0.7436548216582466  0.21839777826912876  1.0000
  H   H8        1.0  0.334835456508486  0.2436404807492139  0.2815892188788638  1.0000
  H   H9        1.0  0.7679969838892118  0.4469005230888214  0.6860755384029461  1.0000
  H   H10       1.0  0.7320085978541897  0.9469188198101008  0.8139378658695551  1.0000
  H   H11       1.0  0.232007563511047  0.5530957396157772  0.3139253397362864  1.0000
  H   H12       1.0  0.2679908595346204  0.05308625882194209  0.18606360023434834  1.0000
  C   C1        1.0  0.3886342171816821  0.2145021198378672  0.5840592402941385  1.0000
  C   C2        1.0  0.11139217642249119  0.7145047256082008  0.9159485647478222  1.0000
  C   C3        1.0  0.611375615395012  0.7854951224623009  0.4159380573945058  1.0000
  C   C4        1.0  0.8886072809663261  0.2855003530238421  0.08405290135608112  1.0000
  C   C5        1.0  0.431580856043034  0.11038790984053289  0.6376491976689636  1.0000
  C   C6        1.0  0.0684141209969269  0.6103946854558515  0.8623605468198009  1.0000
  C   C7        1.0  0.5684239258171928  0.8896063938346473  0.3623480895803156  1.0000
  C   C8        1.0  0.9315778384112434  0.3896084341275241  0.13763970664066966  1.0000
  C   C9        1.0  0.7060517289509747  0.2444021983342566  0.7245045791628898  1.0000
  C   C10       1.0  0.7939415429797874  0.7444234659846032  0.7755091398965066  1.0000
  C   C11       1.0  0.2939605118568949  0.7555921052849897  0.2754945192270029  1.0000
  C   C12       1.0  0.20605274642515783  0.25558161263102613  0.22449411119969656  1.0000
  C   C13       1.0  0.66940881374898  0.34980447326634584  0.6720050836822153  1.0000
  C   C14       1.0  0.830590415422826  0.8498196905733478  0.8280090200859578  1.0000
  C   C15       1.0  0.33059324737283197  0.6501898303630327  0.3279951907567806  1.0000
  C   C16       1.0  0.16941156731486015  0.1501873471446515  0.17199245123430276  1.0000
  I   I1        1.0  0.2468125266138159  0.9225960293639869  0.6080211989281921  1.0000
  I   I2        1.0  0.2531755333626933  0.42259875717092393  0.8919849137387958  1.0000
  I   I3        1.0  0.7531873216289355  0.07740121300000878  0.3919742823901801  1.0000
  I   I4        1.0  0.7468190295539188  0.5774053419729555  0.10801414797693103  1.0000
  N   N1        1.0  0.5116710287892019  0.33341841761740193  0.6016500568719466  1.0000
  N   N2        1.0  0.9883468169453875  0.8334222695609838  0.8983595182854958  1.0000
  N   N3        1.0  0.4883335967331916  0.6665788246556091  0.39834962429287674  1.0000
  N   N4        1.0  0.011652640480853899  0.16658084997719408  0.10164194783171611  1.0000
  N   N5        1.0  0.5897140827026917  0.12432021643991217  0.7070545390657514  1.0000
  N   N6        1.0  0.9102638868922172  0.6243362132596602  0.7929559814214716  1.0000
  N   N7        1.0  0.41029322452511957  0.8756750667742921  0.2929427534065425  1.0000
  N   N8        1.0  0.0897228654616669  0.3756669062965514  0.20704665551517826  1.0000
  Cl  Cl1       1.0  0.9936902003245431  0.6251529369896076  0.5748794481858894  1.0000
  Cl  Cl2       1.0  0.5063011850927808  0.12515696811579602  0.9251185190584936  1.0000
  Cl  Cl3       1.0  0.006301681055070699  0.3748443052906936  0.4251220022822509  1.0000
  Cl  Cl4       1.0  0.49369582506928816  0.8748471309987021  0.07488174485465042  1.0000
