data_image0
_chemical_formula_structural       Zn4H43C80N20Cl5O16
_chemical_formula_sum              "Zn4 H43 C80 N20 Cl5 O16"
_cell_length_a       19.180566400904375
_cell_length_b       19.9423811813698
_cell_length_c       20.87114997970981
_cell_angle_alpha    107.1012502327419
_cell_angle_beta     102.81797880043213
_cell_angle_gamma    115.60815464426551

_space_group_name_H-M_alt    "P 1"
_space_group_IT_number       1

loop_
  _space_group_symop_operation_xyz
  'x, y, z'

loop_
  _atom_site_type_symbol
  _atom_site_label
  _atom_site_symmetry_multiplicity
  _atom_site_fract_x
  _atom_site_fract_y
  _atom_site_fract_z
  _atom_site_occupancy
  Zn  Zn1       1.0  0.8744463819839863  0.9052363716786829  0.5015068572552722  1.0000
  Zn  Zn2       1.0  0.1522417086521628  0.13143184238691666  0.5107405973557846  1.0000
  Zn  Zn3       1.0  0.10656172147514549  0.9965933462564253  0.591043673665034  1.0000
  Zn  Zn4       1.0  0.9323934935060478  0.03693796169915228  0.4221618037853431  1.0000
  H   H1        1.0  0.8393221925437473  0.9026420264475519  0.6352637112726711  1.0000
  H   H2        1.0  0.2274859598395623  0.1475415899320538  0.7651714336172972  1.0000
  H   H3        1.0  0.7539024067592167  0.05989961853465078  0.4014848681386809  1.0000
  H   H4        1.0  0.18812357852621628  0.2855219762945537  0.6513988785020928  1.0000
  H   H5        1.0  0.9209375039106718  0.18126946762988178  0.521066710686995  1.0000
  H   H6        1.0  0.1110408328910708  0.0245523004388843  0.7418776786009147  1.0000
  H   H7        1.0  0.7798169297925525  0.736539351729128  0.36544842386774684  1.0000
  H   H8        1.0  0.29384137613344313  0.07907949155633535  0.4650346565935736  1.0000
  H   H9        1.0  0.9154009293520315  0.9321718775279562  0.26312368814213016  1.0000
  H   H10       1.0  0.1885564937554634  0.06744462984421057  0.36299444289245736  1.0000
  H   H11       1.0  0.759638547615772  0.8975979118086741  0.27126179110322113  1.0000
  H   H12       1.0  0.09152831372742301  0.856440912586834  0.4512360603433265  1.0000
  H   H13       1.0  0.4806090297013128  0.009586810166418033  0.3645219903255423  1.0000
  H   H14       1.0  0.6263198867265701  0.04258076809578883  0.39982898309453674  1.0000
  H   H15       1.0  0.5368573575714919  0.7860278157219794  0.34692217100240436  1.0000
  H   H16       1.0  0.39083858582788633  0.7534333675334609  0.3123338524390817  1.0000
  H   H17       1.0  0.33121568397722  0.797419927984109  0.4000463394157166  1.0000
  H   H18       1.0  0.23441074670508755  0.8268687639226614  0.4456993508114024  1.0000
  H   H19       1.0  0.2376596537455029  0.9686198183344175  0.32448931133011877  1.0000
  H   H20       1.0  0.3360317098561154  0.9405963977936338  0.27997059969167276  1.0000
  H   H21       1.0  0.11884794527646389  0.41773005036701255  0.5175764108615155  1.0000
  H   H22       1.0  0.9715025550486586  0.3263164420831898  0.6348815450866779  1.0000
  H   H23       1.0  0.9421223687156726  0.43832003424120786  0.6542117173030491  1.0000
  H   H24       1.0  0.8912531267106447  0.5912996982272888  0.46665769641361265  1.0000
  H   H25       1.0  0.0328381343308806  0.7445354678434342  0.6992484411273878  1.0000
  H   H26       1.0  0.05493832791042762  0.6347155217340729  0.7109158119500378  1.0000
  H   H27       1.0  0.549008043179576  0.5105647598689629  0.12416202596705261  1.0000
  H   H28       1.0  0.6833033208974297  0.6245819986961577  0.2321736805507938  1.0000
  H   H29       1.0  0.355629481266547  0.39599002059964766  0.7948570869883937  1.0000
  H   H30       1.0  0.42010868888876024  0.5088937245196733  0.9220632632296812  1.0000
  H   H31       1.0  0.6008988425926844  0.7937494877905138  0.2261360062520339  1.0000
  H   H32       1.0  0.9267829252517998  0.7965483613581199  0.033262312647067915  1.0000
  H   H33       1.0  0.18012721379733423  0.0471234205039224  0.24525504289178462  1.0000
  H   H34       1.0  0.17871091904113  0.00798098952787289  0.1202146380329125  1.0000
  H   H35       1.0  0.079950545981923  0.9212542368056873  0.7789596470678077  1.0000
  H   H36       1.0  0.21292426263644157  0.8682828841671011  0.678625326357512  1.0000
  H   H37       1.0  0.7208189639020051  0.5876115425366919  0.5011859767826081  1.0000
  H   H38       1.0  0.1570496574788932  0.569387033687228  0.4697726686250547  1.0000
  H   H39       1.0  0.8356029531926055  0.40400836499676274  0.35873533913515837  1.0000
  H   H40       1.0  0.0636902425701251  0.12512180571042114  0.8266224516138935  1.0000
  H   H41       1.0  0.806068263111172  0.7106386174297157  0.1109399880430998  1.0000
  H   H42       1.0  0.7346069967140636  0.7762889185278325  0.8689978675232908  1.0000
  H   H43       1.0  0.7370769056142237  0.7692422899442659  0.4833134604781149  1.0000
  C   C1        1.0  0.9072463175762167  0.9356573892908813  0.6522377829475801  1.0000
  C   C2        1.0  0.11500428721075201  0.2788412451849922  0.5344382349030568  1.0000
  C   C3        1.0  0.21326401681157142  0.16951257278407897  0.7252145879936478  1.0000
  C   C4        1.0  0.7527627454326764  0.01486133376846509  0.4212078187091137  1.0000
  C   C5        1.0  0.1934006262556452  0.24031111770058544  0.6672799398527545  1.0000
  C   C6        1.0  0.720478927655975  0.9095081180333009  0.44880202289640875  1.0000
  C   C7        1.0  0.98466096547439  0.20565293555812744  0.52345490449526  1.0000
  C   C8        1.0  0.04590251300037809  0.9971707865223961  0.7057346814312239  1.0000
  C   C9        1.0  0.9712982530610577  0.9532046455688674  0.7148098076173782  1.0000
  C   C10       1.0  0.0497357934955005  0.2878720881620255  0.5479473913053496  1.0000
  C   C11       1.0  0.21722804395579226  0.2444649020695452  0.7372979088541315  1.0000
  C   C12       1.0  0.682273152748877  0.9428722053580854  0.412327911093861  1.0000
  C   C13       1.0  0.788675117409298  0.7865419974968547  0.3505704862086674  1.0000
  C   C14       1.0  0.23977505035035304  0.03308703519520145  0.4688792616387402  1.0000
  C   C15       1.0  0.03003762656179281  0.8203475254410862  0.5795598113071563  1.0000
  C   C16       1.0  0.9822511100562252  0.9733841856368884  0.2981499934866463  1.0000
  C   C17       1.0  0.12172499889559421  0.04280427817369771  0.3490658631520276  1.0000
  C   C18       1.0  0.8906772404051609  0.7427191779332389  0.5253683461639014  1.0000
  C   C19       1.0  0.7775596090725398  0.8696042199660566  0.3039528740643648  1.0000
  C   C20       1.0  0.13742947454303336  0.9188719776481875  0.4617681738291565  1.0000
  C   C21       1.0  0.7349053642944697  0.7865302751764747  0.2926664948437932  1.0000
  C   C22       1.0  0.2015392498133579  0.9463266622580305  0.4365303751079992  1.0000
  C   C23       1.0  0.9612606632687957  0.7440261462214225  0.566531518971722  1.0000
  C   C24       1.0  0.052146516457121095  0.9808971563874991  0.282319634645539  1.0000
  C   C25       1.0  0.49249861544064544  0.9597798790024187  0.3586316140406893  1.0000
  C   C26       1.0  0.5750384117310791  0.978360433872624  0.3788556347138155  1.0000
  C   C27       1.0  0.593691911048623  0.9173450744957706  0.3790034154955393  1.0000
  C   C28       1.0  0.5249626958953827  0.8352899293140152  0.35054213921357297  1.0000
  C   C29       1.0  0.4423316950917382  0.8171045194584889  0.3313256745794461  1.0000
  C   C30       1.0  0.4248112373477895  0.8797506201596761  0.33860949156306924  1.0000
  C   C31       1.0  0.3091665329165707  0.8334690082662204  0.3818704882898842  1.0000
  C   C32       1.0  0.2546980903223925  0.8502947803159555  0.40782237027956814  1.0000
  C   C33       1.0  0.23401936530708414  0.9051254552975863  0.3927619969247615  1.0000
  C   C34       1.0  0.2591277671951957  0.9318210080605099  0.34183478737967476  1.0000
  C   C35       1.0  0.31395904774587535  0.9156433805938703  0.31646568030101446  1.0000
  C   C36       1.0  0.3451117628287221  0.8713630642803735  0.340681189185581  1.0000
  C   C37       1.0  0.0677316265441803  0.4876080091410202  0.5620615714874972  1.0000
  C   C38       1.0  0.08110122421436469  0.42226715767492357  0.5486342912421663  1.0000
  C   C39       1.0  0.044504867152483  0.36165069708291486  0.5720756221517362  1.0000
  C   C40       1.0  0.9980097073485084  0.37106463714142973  0.613690276065263  1.0000
  C   C41       1.0  0.9828596976706265  0.43517145492297976  0.6258922616174445  1.0000
  C   C42       1.0  0.014226217095206602  0.49224371891202173  0.5978939197674507  1.0000
  C   C43       1.0  0.9356287095926562  0.537235764751216  0.5271396251676279  1.0000
  C   C44       1.0  0.9265723024755985  0.6009014645462116  0.5205425650262185  1.0000
  C   C45       1.0  0.9637893361959586  0.6772276781356867  0.5812496053024675  1.0000
  C   C46       1.0  0.005739617377280104  0.6867601303431314  0.6505857455937373  1.0000
  C   C47       1.0  0.016900666021534505  0.6241411563964832  0.657439870593997  1.0000
  C   C48       1.0  0.9863591395715334  0.5507215843686738  0.5959442462980462  1.0000
  C   C49       1.0  0.6530192130465622  0.7179644931971582  0.23526513089186812  1.0000
  C   C50       1.0  0.5903646881907746  0.7317388615305376  0.2045216809087903  1.0000
  C   C51       1.0  0.5131535363590202  0.6668070212387391  0.14706780684845455  1.0000
  C   C52       1.0  0.498625680085361  0.5861073710196009  0.11628676457642226  1.0000
  C   C53       1.0  0.5612324573767894  0.5729974567024031  0.14922888931965872  1.0000
  C   C54       1.0  0.6356526113059929  0.6363748574885763  0.20852559629430803  1.0000
  C   C55       1.0  0.2392067191179308  0.37114847410375523  0.9247352583162397  1.0000
  C   C56       1.0  0.20413647561645126  0.30652022109642013  0.854437688171032  1.0000
  C   C57       1.0  0.3192696914414413  0.44252659709759024  0.9501129337142871  1.0000
  C   C58       1.0  0.2473972828757525  0.3141993462523445  0.8079314309074661  1.0000
  C   C59       1.0  0.32329093446641377  0.38922435455879173  0.8315286631195704  1.0000
  C   C60       1.0  0.3592658356177694  0.45182918691074997  0.901892470609269  1.0000
  C   C61       1.0  0.9674598481827914  0.9245707834251106  0.7714462924053508  1.0000
  C   C62       1.0  0.0323403318161652  0.9127006378917671  0.8014433272158429  1.0000
  C   C63       1.0  0.0376804956253523  0.8893239286684816  0.8578464620668171  1.0000
  C   C64       1.0  0.9758735234970075  0.8758979963201626  0.8872040908161624  1.0000
  C   C65       1.0  0.9064418170947447  0.8797739027034626  0.853138884416886  1.0000
  C   C66       1.0  0.9026635230960522  0.9047975753171114  0.7972981341244533  1.0000
  C   C67       1.0  0.9820610482922661  0.851306992135271  0.08016296858983202  1.0000
  C   C68       1.0  0.9845600435875925  0.8689461598976679  0.15082276995475058  1.0000
  C   C69       1.0  0.050446891394187815  0.9038587733777702  0.06880456747500568  1.0000
  C   C70       1.0  0.05406680433151221  0.9444376180846136  0.2116862001109823  1.0000
  C   C71       1.0  0.1253799196447218  0.9903940971575051  0.1994402654311712  1.0000
  C   C72       1.0  0.12484184607329499  0.9698044425169245  0.1297999981577505  1.0000
  C   C73       1.0  0.12026783993616874  0.8684136080621772  0.6242438012699267  1.0000
  C   C74       1.0  0.8005922955780846  0.6842019070161457  0.50094966285981  1.0000
  C   C75       1.0  0.1113343591201925  0.5522533007321826  0.5387363338433033  1.0000
  C   C76       1.0  0.8897945932788928  0.45548369399094196  0.4617362580257946  1.0000
  C   C77       1.0  0.11851620120761915  0.2296219417638312  0.8261224102071907  1.0000
  C   C78       1.0  0.9168382573751047  0.8050128686221075  0.16134741937784008  1.0000
  C   C79       1.0  0.8394401191297405  0.8634928517420588  0.8832316548924837  1.0000
  C   C80       1.0  0.6871456636623847  0.8314358789225336  0.4549297205811626  1.0000
  N   N1        1.0  0.9419473281466041  0.964235129465486  0.6090812883547868  1.0000
  N   N2        1.0  0.0912647098867438  0.19900701294068307  0.5046912855868797  1.0000
  N   N3        1.0  0.1892993231992719  0.12427332390723934  0.6534277223324594  1.0000
  N   N4        1.0  0.8261727451886288  0.024072803928319866  0.4593150232939466  1.0000
  N   N5        1.0  0.1759864754072993  0.16785270968694016  0.6174646284429386  1.0000
  N   N6        1.0  0.8062748849058182  0.9606938260024055  0.47721083207330395  1.0000
  N   N7        1.0  0.009727442472438999  0.15332698104592168  0.4974179806598329  1.0000
  N   N8        1.0  0.027523879446427195  0.0026981036421104983  0.6422328331329084  1.0000
  N   N9        1.0  0.8573663243514957  0.8642184175408617  0.3940912540477014  1.0000
  N   N10       1.0  0.20209693559778688  0.05594834666705139  0.5099618364285874  1.0000
  N   N11       1.0  0.001105597225219391  0.8582768881478131  0.5459814874559754  1.0000
  N   N12       1.0  0.0084660532222074  0.0272311109216545  0.3676613398550685  1.0000
  N   N13       1.0  0.09503059321509973  0.0693634443045923  0.3995643713292766  1.0000
  N   N14       1.0  0.9177116262306982  0.812778035026419  0.5139247891095664  1.0000
  N   N15       1.0  0.8499367375854235  0.9144228965867144  0.36389826195809866  1.0000
  N   N16       1.0  0.1377191175095547  0.9848128767592712  0.505107658604139  1.0000
  N   N17       1.0  0.43693449370532284  0.519401024549836  0.04880832989080367  1.0000
  N   N18       1.0  0.3623570514291004  0.5040548421748526  0.024261461434818388  1.0000
  N   N19       1.0  0.9760065167348343  0.8640316416677792  0.9504468580635786  1.0000
  N   N20       1.0  0.0494763960924942  0.9026320307070036  0.0010224155692881987  1.0000
  Cl  Cl1       1.0  0.215840355069389  0.35402382031227114  0.5541693709734901  1.0000
  Cl  Cl2       1.0  0.1869888985023991  0.3606111297149824  0.9821594357656381  1.0000
  Cl  Cl3       1.0  0.4401216818601482  0.6892431189651802  0.11211741805946218  1.0000
  Cl  Cl4       1.0  0.8180877347561265  0.9137336362440679  0.7625403948089087  1.0000
  Cl  Cl5       1.0  0.1172695451324017  0.8717143378353993  0.8858499538546453  1.0000
  O   O1        1.0  0.1662672610717806  0.9435034321094237  0.6403325548330088  1.0000
  O   O2        1.0  0.15210150123403576  0.8287075938437098  0.649299106682811  1.0000
  O   O3        1.0  0.7421753826184413  0.6889477102630366  0.4671421336939972  1.0000
  O   O4        1.0  0.7825761886404056  0.6206129861105866  0.5189260657387607  1.0000
  O   O5        1.0  0.134609466493913  0.6253972055456175  0.5689669916561684  1.0000
  O   O6        1.0  0.1258771385990585  0.521628788498134  0.47863699241040786  1.0000
  O   O7        1.0  0.8699216753151616  0.388695884299004  0.46240729903352923  1.0000
  O   O8        1.0  0.8676745208730736  0.46116531656416987  0.39723651707975444  1.0000
  O   O9        1.0  0.0534132195367576  0.2177353197945209  0.7859139513316293  1.0000
  O   O10       1.0  0.12185814293101768  0.1735270439946248  0.8492080875239408  1.0000
  O   O11       1.0  0.9239215791158132  0.7959970792319383  0.21740692905426331  1.0000
  O   O12       1.0  0.8437266130175232  0.7522696498326127  0.09886428260292487  1.0000
  O   O13       1.0  0.8400754626953102  0.9161619256109786  0.9314303473770593  1.0000
  O   O14       1.0  0.776262878991929  0.7820531930544162  0.8475196635897504  1.0000
  O   O15       1.0  0.6146579815949879  0.7724339915323598  0.42742090286973433  1.0000
  O   O16       1.0  0.752682056345698  0.8284832837482767  0.49673481542772896  1.0000
