data_image0
_chemical_formula_structural       Ag8H48C48N24O16
_chemical_formula_sum              "Ag8 H48 C48 N24 O16"
_cell_length_a       12.074892795098853
_cell_length_b       12.072638081543326
_cell_length_c       13.256928432494558
_cell_angle_alpha    117.12757108851548
_cell_angle_beta     117.10968606729267
_cell_angle_gamma    89.98499896100606

_space_group_name_H-M_alt    "P 1"
_space_group_IT_number       1

loop_
  _space_group_symop_operation_xyz
  'x, y, z'

loop_
  _atom_site_type_symbol
  _atom_site_label
  _atom_site_symmetry_multiplicity
  _atom_site_fract_x
  _atom_site_fract_y
  _atom_site_fract_z
  _atom_site_occupancy
  Ag  Ag1       1.0  0.4963818876167139  0.5879843739957024  0.9107213234546806  1.0000
  Ag  Ag2       1.0  0.5880833654780063  0.41404482604418297  0.41081008076586306  1.0000
  Ag  Ag3       1.0  0.8230250076416752  0.49655349787077074  0.4106386485469287  1.0000
  Ag  Ag4       1.0  0.41408312189034285  0.8229640405158701  0.910596111312394  1.0000
  Ag  Ag5       1.0  0.5036220332344357  0.41202188460076866  0.08928186628286036  1.0000
  Ag  Ag6       1.0  0.4119124196633166  0.585951794222282  0.5891871870199594  1.0000
  Ag  Ag7       1.0  0.17697401421510514  0.5034518127386534  0.5893613426584068  1.0000
  Ag  Ag8       1.0  0.5859156588264726  0.17704031916753848  0.08940111850355961  1.0000
  H   H1        1.0  0.46355566784061614  0.6593302125787872  0.11332653677179391  1.0000
  H   H2        1.0  0.6595631750400274  0.649522224006027  0.6133264417393391  1.0000
  H   H3        1.0  0.9537408283880354  0.4634822158346665  0.6131216372344996  1.0000
  H   H4        1.0  0.6494321645016826  0.9537373482500371  0.11318396181795999  1.0000
  H   H5        1.0  0.5364430718638928  0.3406741067880644  0.8866774480651574  1.0000
  H   H6        1.0  0.34043395541913674  0.3504724582918186  0.38667133247637514  1.0000
  H   H7        1.0  0.046261148029003586  0.5365201921616246  0.38687837543056247  1.0000
  H   H8        1.0  0.3505642197559098  0.046265060585227495  0.88681597661045  1.0000
  H   H9        1.0  0.7834014598102146  0.6950359768447497  0.030919120045126543  1.0000
  H   H10       1.0  0.6953128802934857  0.24717690966922848  0.5310362043302206  1.0000
  H   H11       1.0  0.8361020210038248  0.7837783099822174  0.5312145147772757  1.0000
  H   H12       1.0  0.24719118086579062  0.8356694824553866  0.030657133310995646  1.0000
  H   H13       1.0  0.2165988709090172  0.30496735995910745  0.9690873820532105  1.0000
  H   H14       1.0  0.30469197030284784  0.7528187448340801  0.468960677467635  1.0000
  H   H15       1.0  0.16389883756455967  0.21622697346982986  0.4687900045209474  1.0000
  H   H16       1.0  0.7528092666868673  0.16432713935173382  0.9693398210597624  1.0000
  H   H17       1.0  0.9871379845893887  0.8125739053099535  0.256125997329214  1.0000
  H   H18       1.0  0.8126142141684697  0.26880643660808085  0.7562609482790137  1.0000
  H   H19       1.0  0.9438256626113245  0.9874005995481878  0.756595009033873  1.0000
  H   H20       1.0  0.2686772346374654  0.9435124072958346  0.2558292097616005  1.0000
  H   H21       1.0  0.012860491190537003  0.18742944073279938  0.7438789789077945  1.0000
  H   H22       1.0  0.18738436477411108  0.7311901809990856  0.2437367319040789  1.0000
  H   H23       1.0  0.05617840077112389  0.012602741175967899  0.2434107919976825  1.0000
  H   H24       1.0  0.731322443926075  0.05648131693708789  0.7441669660198899  1.0000
  H   H25       1.0  0.9654969158697783  0.8601874275039447  0.4518927741635325  1.0000
  H   H26       1.0  0.8598716653650911  0.4863285897953132  0.9519047972570648  1.0000
  H   H27       1.0  0.09249819652393403  0.9655901683027325  0.9520824024576059  1.0000
  H   H28       1.0  0.4860561636974481  0.0918938291861764  0.45161921456276144  1.0000
  H   H29       1.0  0.03450088497276481  0.13981688528330946  0.5481123241374775  1.0000
  H   H30       1.0  0.14012732459029562  0.5136660877432604  0.04809375226209057  1.0000
  H   H31       1.0  0.9075001897611871  0.03440931790094481  0.04792092256825248  1.0000
  H   H32       1.0  0.5139415522042866  0.9080960265280921  0.5483767863778085  1.0000
  H   H33       1.0  0.4315632715804867  0.7353582504814326  0.28453513761364485  1.0000
  H   H34       1.0  0.7355774539790262  0.8529131462306765  0.7844876367050589  1.0000
  H   H35       1.0  0.04871510490703915  0.43122269841475713  0.784111019266625  1.0000
  H   H36       1.0  0.8527509148077854  0.04860632503698531  0.28422768760692924  1.0000
  H   H37       1.0  0.5684352087563626  0.26464510004093705  0.7154690880654757  1.0000
  H   H38       1.0  0.26442432522069487  0.14708152416897488  0.2155120757692544  1.0000
  H   H39       1.0  0.9512905055645576  0.5687758447035163  0.21588814223627395  1.0000
  H   H40       1.0  0.14724954185871297  0.9513903057293758  0.7157677656480459  1.0000
  H   H41       1.0  0.5918969557305971  0.8364809998744462  0.3948401826515991  1.0000
  H   H42       1.0  0.8365196401934512  0.8029391393549757  0.8949163795740774  1.0000
  H   H43       1.0  0.05786074873903861  0.591529325648878  0.8944764557954912  1.0000
  H   H44       1.0  0.8028749108552589  0.05797143515583508  0.3946368584050149  1.0000
  H   H45       1.0  0.4081043047367459  0.1635223345497749  0.6051667070984622  1.0000
  H   H46       1.0  0.1634777268487397  0.1970564893892544  0.10508490658891388  1.0000
  H   H47       1.0  0.942142720084057  0.40846823098610235  0.10552592403558256  1.0000
  H   H48       1.0  0.19712792404570217  0.942037730253723  0.6053655840604648  1.0000
  C   C1        1.0  0.6629454315630028  0.7254932962278104  0.21778921160735362  1.0000
  C   C2        1.0  0.7256279647131123  0.5547080416147309  0.7178498895700473  1.0000
  C   C3        1.0  0.9924369237069259  0.6629657979407353  0.7177712044327367  1.0000
  C   C4        1.0  0.554621571711536  0.9922196632478942  0.21770345568110372  1.0000
  C   C5        1.0  0.3370542378896175  0.27451102075939815  0.7822151608813215  1.0000
  C   C6        1.0  0.2743732472717327  0.4452914732869714  0.28214859394786634  1.0000
  C   C7        1.0  0.007560640552583188  0.33703756840012733  0.2822303819210035  1.0000
  C   C8        1.0  0.4453756573562799  0.0077788878482678995  0.7822944686299849  1.0000
  C   C9        1.0  0.7820465321363699  0.7236795931419664  0.1211989776893603  1.0000
  C   C10       1.0  0.7238259692881712  0.338856977663994  0.6212882027132309  1.0000
  C   C11       1.0  0.8977190428550017  0.7822982334733267  0.6213965021399657  1.0000
  C   C12       1.0  0.3388444085192858  0.8973836450542121  0.12095508100294691  1.0000
  C   C13       1.0  0.2179536423807846  0.276326648095349  0.8788071647886398  1.0000
  C   C14       1.0  0.276175139531091  0.6611386639597753  0.37871088126719593  1.0000
  C   C15       1.0  0.10228333546098868  0.2177022254951239  0.3786058809769343  1.0000
  C   C16       1.0  0.6611574692890941  0.10261489414375548  0.8790447815667408  1.0000
  C   C17       1.0  0.8939870550816309  0.7879457218639558  0.24482393168971578  1.0000
  C   C18       1.0  0.7880188205515211  0.3506676891851156  0.7449400526670047  1.0000
  C   C19       1.0  0.9572248724987845  0.8941898918261585  0.7451320112585124  1.0000
  C   C20       1.0  0.350542353986853  0.9568256603586034  0.24456121324192268  1.0000
  C   C21       1.0  0.1060120956356769  0.2120566574343029  0.7551809224832978  1.0000
  C   C22       1.0  0.21198203801393592  0.6493269925534121  0.25505777103980876  1.0000
  C   C23       1.0  0.04277869037604629  0.10581152912752145  0.2548712692258235  1.0000
  C   C24       1.0  0.6494525059632821  0.043170966767114294  0.7554349163342948  1.0000
  C   C25       1.0  0.8812280028771653  0.8152090312684023  0.3525465836861912  1.0000
  C   C26       1.0  0.815094711105381  0.4712589205333159  0.8526088921519985  1.0000
  C   C27       1.0  0.03793835741709731  0.8813351869370575  0.8527223481188669  1.0000
  C   C28       1.0  0.4710386285475536  0.03740435843164389  0.3523151174988612  1.0000
  C   C29       1.0  0.118769538597725  0.1847943126743701  0.6474587554569878  1.0000
  C   C30       1.0  0.1849094463258751  0.5287376827960202  0.14739111394141002  1.0000
  C   C31       1.0  0.9620608024140579  0.1186672013204344  0.147281004938371  1.0000
  C   C32       1.0  0.5289582562147217  0.9625893684605769  0.6476806458853588  1.0000
  C   C33       1.0  0.5335041216365825  0.7373058440423107  0.3174971130410072  1.0000
  C   C34       1.0  0.7374290097894088  0.7839890764196082  0.8175056231243475  1.0000
  C   C35       1.0  0.0797977770160543  0.5332351140376514  0.817239265587098  1.0000
  C   C36       1.0  0.7839223658420594  0.07983426351823651  0.3173900713308912  1.0000
  C   C37       1.0  0.46649486832172476  0.26269943520978245  0.6825081320695574  1.0000
  C   C38       1.0  0.2625699847229015  0.2160056055985748  0.18249217583691998  1.0000
  C   C39       1.0  0.920204619527631  0.4667653628492728  0.18276011529824418  1.0000
  C   C40       1.0  0.21607817576232688  0.9201662226075835  0.6826077836931217  1.0000
  C   C41       1.0  0.5675074657651393  0.6537896647869273  0.38116371616118283  1.0000
  C   C42       1.0  0.6537757770276046  0.8138905045019486  0.8810192382622761  1.0000
  C   C43       1.0  0.22702605511960172  0.5672873924091489  0.8811564181609199  1.0000
  C   C44       1.0  0.8139572940824705  0.22707370725899523  0.3811813696159946  1.0000
  C   C45       1.0  0.4324890701375992  0.34620983513525516  0.618837332445466  1.0000
  C   C46       1.0  0.3462205450767186  0.18610807137194033  0.11897454560764946  1.0000
  C   C47       1.0  0.7729759349682084  0.432715029025985  0.11884134283047838  1.0000
  C   C48       1.0  0.1860458229678343  0.772925847679616  0.6188103836264602  1.0000
  N   N1        1.0  0.7680797777654577  0.7852404637309859  0.3408662787735042  1.0000
  N   N2        1.0  0.7851857326878787  0.5727403666226536  0.8408914028028677  1.0000
  N   N3        1.0  0.05604898076381913  0.7680716603034978  0.8408838967215929  1.0000
  N   N4        1.0  0.5725799900174166  0.05564312523463847  0.3407548627581036  1.0000
  N   N5        1.0  0.2319189528251968  0.21476384667662524  0.6591392071792299  1.0000
  N   N6        1.0  0.21481613600665384  0.42725816361608077  0.15910996088260285  1.0000
  N   N7        1.0  0.9439475688096979  0.23192785305754174  0.15911490021138538  1.0000
  N   N8        1.0  0.4274192456348517  0.9443525077095528  0.6592456975925459  1.0000
  N   N9        1.0  0.5474893530482063  0.6968732575325092  0.2043637889391761  1.0000
  N   N10       1.0  0.6970720833398545  0.656750142556369  0.7044091694814298  1.0000
  N   N11       1.0  0.007305240620390022  0.547395834128146  0.7042324255220009  1.0000
  N   N12       1.0  0.6566840913103678  0.007288073986075  0.2042975009808715  1.0000
  N   N13       1.0  0.4525091181747952  0.30313008403062  0.7956419378557271  1.0000
  N   N14       1.0  0.30292546268903214  0.3432426041525005  0.2955887235124592  1.0000
  N   N15       1.0  0.992693418703155  0.45260463435885595  0.2957684069880174  1.0000
  N   N16       1.0  0.3433155068751362  0.9927124010805246  0.7957022180650954  1.0000
  N   N17       1.0  0.6668315308419182  0.691484394281076  0.10607555438025432  1.0000
  N   N18       1.0  0.6916683932542967  0.438964974764069  0.6061442898648153  1.0000
  N   N19       1.0  0.9148072540060569  0.6670053515106034  0.6061157425124507  1.0000
  N   N20       1.0  0.43900279853735213  0.9145063118062566  0.1059558228729004  1.0000
  N   N21       1.0  0.3331669449380072  0.3085189517616769  0.893929421856761  1.0000
  N   N22       1.0  0.3083343293643069  0.5610297066948035  0.39385355858755133  1.0000
  N   N23       1.0  0.0851909988616129  0.33299706152461533  0.39388347010361713  1.0000
  N   N24       1.0  0.5610011981349033  0.0854931914769139  0.8940445741580519  1.0000
  O   O1        1.0  0.5543900285854589  0.533467343755582  0.30802012794078587  1.0000
  O   O2        1.0  0.5333978307553693  0.7542324302968025  0.8077043271807866  1.0000
  O   O3        1.0  0.2743029376359943  0.5544636282179097  0.808236749232954  1.0000
  O   O4        1.0  0.7542483530529154  0.2743190761718708  0.3081117756351476  1.0000
  O   O5        1.0  0.4456067621280085  0.4665331205314657  0.6919814303815741  1.0000
  O   O6        1.0  0.4665958583066897  0.24576324828254303  0.19228865335432502  1.0000
  O   O7        1.0  0.7256990843532095  0.4455494262880819  0.1917624534446248  1.0000
  O   O8        1.0  0.24574959652152725  0.7256785529759708  0.691878521033054  1.0000
  O   O9        1.0  0.6013445331745046  0.7086086245786518  0.5008962874381595  1.0000
  O   O10       1.0  0.7085798610794144  0.8996135641566099  0.0008442852328301998  1.0000
  O   O11       1.0  0.29187111676828437  0.6009263856308208  0.000832775790904296  1.0000
  O   O12       1.0  0.8998091739112439  0.2919586444445912  0.5009592418173626  1.0000
  O   O13       1.0  0.3986541215921164  0.2913918394287407  0.4991052956297537  1.0000
  O   O14       1.0  0.29141638064395176  0.1003811608374363  0.9991463463101624  1.0000
  O   O15       1.0  0.7081305335709089  0.3990712160799957  0.9991620737157305  1.0000
  O   O16       1.0  0.10020295555758446  0.7080467224422548  0.49903116535426756  1.0000
