data_image0
_chemical_formula_structural       Nd2Co2H32C32N20O12
_chemical_formula_sum              "Nd2 Co2 H32 C32 N20 O12"
_cell_length_a       10.268741234965267
_cell_length_b       10.676817067658236
_cell_length_c       12.351607014694942
_cell_angle_alpha    73.49748427719751
_cell_angle_beta     74.76161405647255
_cell_angle_gamma    70.57370652707237

_space_group_name_H-M_alt    "P 1"
_space_group_IT_number       1

loop_
  _space_group_symop_operation_xyz
  'x, y, z'

loop_
  _atom_site_type_symbol
  _atom_site_label
  _atom_site_symmetry_multiplicity
  _atom_site_fract_x
  _atom_site_fract_y
  _atom_site_fract_z
  _atom_site_occupancy
  Nd  Nd1       1.0  0.41590916104306075  0.3077536693885747  0.28207984606055436  1.0000
  Nd  Nd2       1.0  0.5840892487903204  0.6922436106351739  0.7179227371073224  1.0000
  Co  Co1       1.0  0.32221228559214415  0.30426403679376784  0.7411074598983305  1.0000
  Co  Co2       1.0  0.6777822785613452  0.6957392879201905  0.2588927928937962  1.0000
  H   H1        1.0  0.2905503962015032  0.76312994052401  0.535640807772424  1.0000
  H   H2        1.0  0.709441688927356  0.2368682430679385  0.46436208268092827  1.0000
  H   H3        1.0  0.31548128009163884  0.9047475180937352  0.04783060331187983  1.0000
  H   H4        1.0  0.6845285614530353  0.09525199945779407  0.952168981775294  1.0000
  H   H5        1.0  0.14409454260899682  0.5192183587273007  0.06199951598843256  1.0000
  H   H6        1.0  0.8559104914144768  0.480787140058979  0.9379947206626226  1.0000
  H   H7        1.0  0.46551254459866714  0.6593305476745002  0.08198423309472955  1.0000
  H   H8        1.0  0.5344955981456252  0.34066791897078025  0.9180159792571625  1.0000
  H   H9        1.0  0.02511562707231711  0.681029925469062  0.29576446707802956  1.0000
  H   H10       1.0  0.974876895893985  0.31897025092834497  0.7042337776722575  1.0000
  H   H11       1.0  0.37353596225868574  0.5549024667022451  0.4493586028039258  1.0000
  H   H12       1.0  0.6264565288907348  0.44509774456344786  0.5506420689495639  1.0000
  H   H13       1.0  0.9813116430893486  0.7593556817935009  0.021433549444744036  1.0000
  H   H14       1.0  0.018697055839638186  0.2406509483188941  0.9785628600580477  1.0000
  H   H15       1.0  0.9266293284703482  0.8946792192477346  0.3738196689189123  1.0000
  H   H16       1.0  0.07336328018364215  0.10532401342359782  0.6261769747556796  1.0000
  H   H17       1.0  0.4143163244071744  0.0830088641395292  0.16854416123297256  1.0000
  H   H18       1.0  0.5856835275274717  0.9169904256540848  0.8314535582879328  1.0000
  H   H19       1.0  0.3497323438453818  0.22714843490094694  0.0920402918706458  1.0000
  H   H20       1.0  0.6502670914630645  0.7728488388416963  0.9079604553511796  1.0000
  H   H21       1.0  0.7366386527586783  0.2450312790024398  0.23653011420640976  1.0000
  H   H22       1.0  0.26336156277402256  0.7549700849559643  0.7634686226189157  1.0000
  H   H23       1.0  0.721802504870567  0.09659180331871649  0.2429323699006432  1.0000
  H   H24       1.0  0.278196001256127  0.9034085213561979  0.7570678031904732  1.0000
  H   H25       1.0  0.4233185248634614  0.9949798712223907  0.3568378575365827  1.0000
  H   H26       1.0  0.5766716056085741  0.005021369582941294  0.6431662947320971  1.0000
  H   H27       1.0  0.3944032916883131  0.0435179389380664  0.4726291204511738  1.0000
  H   H28       1.0  0.6056771349050224  0.9564482400781312  0.5273792658365932  1.0000
  H   H29       1.0  0.16862487324330286  0.20203264928343861  0.2994687906676176  1.0000
  H   H30       1.0  0.8313700435386763  0.7979626335326769  0.7005423280393258  1.0000
  H   H31       1.0  0.09054035794365231  0.3510635410135449  0.32230116878694287  1.0000
  H   H32       1.0  0.9094555193582321  0.648935634431382  0.6776941865053203  1.0000
  C   C1        1.0  0.37692544467795847  0.30109797685241807  0.5860513792982898  1.0000
  C   C2        1.0  0.6230724419942392  0.6989043817773464  0.4139484110390227  1.0000
  C   C3        1.0  0.602813200065235  0.555137678169544  0.27163741620481824  1.0000
  C   C4        1.0  0.39718290211888546  0.44486057328004586  0.7283646024729008  1.0000
  C   C5        1.0  0.26796776205767253  0.29758935999777947  0.8986464150200743  1.0000
  C   C6        1.0  0.7320287673582726  0.7024108958800283  0.1013517669556521  1.0000
  C   C7        1.0  0.35789068330977597  0.6898551370189453  0.06902742415173439  1.0000
  C   C8        1.0  0.6421171709185174  0.3101443233582444  0.9309709788211149  1.0000
  C   C9        1.0  0.4920528980055537  0.1729073289306484  0.7600564275982078  1.0000
  C   C10       1.0  0.507947402008213  0.8270838143602648  0.23994487682789156  1.0000
  C   C11       1.0  0.2766304457228799  0.6341294707450872  0.4373822168402909  1.0000
  C   C12       1.0  0.7233606245365322  0.36586870750521433  0.5626217005580328  1.0000
  C   C13       1.0  0.24951262806099087  0.1595501777631227  0.7581681290947199  1.0000
  C   C14       1.0  0.7504806327070596  0.8404541353410905  0.2418313412633424  1.0000
  C   C15       1.0  0.15455783116473037  0.43752393910246923  0.7147401242991261  1.0000
  C   C16       1.0  0.845441668620154  0.5624764141596189  0.2852606398491559  1.0000
  C   C17       1.0  0.22851041291955457  0.7485755176251913  0.4833054980789907  1.0000
  C   C18       1.0  0.7714827621608011  0.2514257392050964  0.5166955733547594  1.0000
  C   C19       1.0  0.13683904763767887  0.8508405965996457  0.03210881519900249  1.0000
  C   C20       1.0  0.8631702283233056  0.1491640460489521  0.9678912130618752  1.0000
  C   C21       1.0  0.10147225462790738  0.8448679161456241  0.46189103475665383  1.0000
  C   C22       1.0  0.89851553553531  0.15513118169781853  0.5381101090922157  1.0000
  C   C23       1.0  0.17324382595442245  0.610360950329813  0.05613962307113946  1.0000
  C   C24       1.0  0.8267617744954237  0.3896425726154291  0.9438590413390668  1.0000
  C   C25       1.0  0.27424108372821365  0.8225232394603311  0.04940280060549174  1.0000
  C   C26       1.0  0.7257697726859079  0.1774762834328527  0.9505957575367031  1.0000
  C   C27       1.0  0.08760122929681552  0.7415708185786088  0.03410883139059704  1.0000
  C   C28       1.0  0.9124034949994096  0.25843569718509224  0.9658852138835456  1.0000
  C   C29       1.0  0.07651508998284119  0.7079583602333558  0.34870599772008126  1.0000
  C   C30       1.0  0.9234784054304014  0.292041867996737  0.651294456089502  1.0000
  C   C31       1.0  0.025254289870190384  0.8223806351837551  0.39317481394932924  1.0000
  C   C32       1.0  0.9747411495942445  0.17761654745572034  0.6068251870459915  1.0000
  N   N1        1.0  0.3062179819306792  0.5857440751376615  0.07436900772384546  1.0000
  N   N2        1.0  0.6937875646483607  0.41425635666536204  0.9256288307588388  1.0000
  N   N3        1.0  0.20097209106216948  0.6152206481103591  0.37075977812958155  1.0000
  N   N4        1.0  0.7990217891603849  0.38478163103900437  0.6292400749822916  1.0000
  N   N5        1.0  0.4131965820036144  0.2894456965259026  0.4902885795714978  1.0000
  N   N6        1.0  0.586802362803205  0.7105597702104872  0.5097118187494158  1.0000
  N   N7        1.0  0.5577415842198832  0.4661870575276482  0.2753838295447223  1.0000
  N   N8        1.0  0.4422595180720705  0.5338113019895232  0.7246187174155946  1.0000
  N   N9        1.0  0.05878732901305033  0.9587871358450284  0.5105644292906674  1.0000
  N   N10       1.0  0.9412030891323013  0.041209961972391795  0.4894366614241932  1.0000
  N   N11       1.0  0.052907189745923226  0.525037475253903  0.6962002456443767  1.0000
  N   N12       1.0  0.9470874062244481  0.4749658145917691  0.30379758014454683  1.0000
  N   N13       1.0  0.5970579272699935  0.08416821087834592  0.7642798997985094  1.0000
  N   N14       1.0  0.40292935033765787  0.9158359539483527  0.2357176422187236  1.0000
  N   N15       1.0  0.21513038663180595  0.06299879351434612  0.764770394916354  1.0000
  N   N16       1.0  0.7848641024396273  0.9370014633029271  0.23523064995039525  1.0000
  N   N17       1.0  0.23606315366858865  0.2938028455517525  0.9977704865900346  1.0000
  N   N18       1.0  0.7639310044643322  0.7061984514884686  0.002231984901946878  1.0000
  N   N19       1.0  0.056359181405106526  0.9878421845060216  0.01793354388465219  1.0000
  N   N20       1.0  0.9436490046043743  0.012159384904237  0.9820683033958201  1.0000
  O   O1        1.0  0.41913495665702544  0.17866407359937136  0.14495377498975157  1.0000
  O   O2        1.0  0.5808672029268821  0.8213342447684012  0.8550445090213113  1.0000
  O   O3        1.0  0.3836247139391348  0.4589626835466448  0.09909067533757104  1.0000
  O   O4        1.0  0.6163788347178923  0.5410377027048056  0.900906790031868  1.0000
  O   O5        1.0  0.24395366033485297  0.5087032364581319  0.3253465503351904  1.0000
  O   O6        1.0  0.7560381362780004  0.49129594086571865  0.6746545307391187  1.0000
  O   O7        1.0  0.6692416082331505  0.19354862193023342  0.25166609671042994  1.0000
  O   O8        1.0  0.3307579021573659  0.806451719709095  0.74833385843678  1.0000
  O   O9        1.0  0.17872770464762064  0.271775768598296  0.33037057389641683  1.0000
  O   O10       1.0  0.8212702677122578  0.728229646305394  0.6696276153651934  1.0000
  O   O11       1.0  0.43961838429392947  0.0593572965450591  0.39196013205952324  1.0000
  O   O12       1.0  0.5603803992644031  0.9406490244500887  0.6080287488695146  1.0000
