data_image0
_chemical_formula_structural       Cd4H24C32N20Cl4O8
_chemical_formula_sum              "Cd4 H24 C32 N20 Cl4 O8"
_cell_length_a       7.148909652328855
_cell_length_b       8.990491791335879
_cell_length_c       17.28733226636415
_cell_angle_alpha    90.0001603270008
_cell_angle_beta     90.00067780742567
_cell_angle_gamma    102.10128696835092

_space_group_name_H-M_alt    "P 1"
_space_group_IT_number       1

loop_
  _space_group_symop_operation_xyz
  'x, y, z'

loop_
  _atom_site_type_symbol
  _atom_site_label
  _atom_site_symmetry_multiplicity
  _atom_site_fract_x
  _atom_site_fract_y
  _atom_site_fract_z
  _atom_site_occupancy
  Cd  Cd1       1.0  0.20520529358523026  0.7193681724798326  0.6828866070489139  1.0000
  Cd  Cd2       1.0  0.2947893550326697  0.28063188532119915  0.18288744333537466  1.0000
  Cd  Cd3       1.0  0.7947975796907656  0.28062831757129203  0.3171129654749548  1.0000
  Cd  Cd4       1.0  0.7052094068345127  0.719370283809738  0.8171127076407527  1.0000
  H   H1        1.0  0.7241705991301118  0.9128167548758341  0.5680762041369718  1.0000
  H   H2        1.0  0.7758303665488951  0.08718602013307473  0.0680766681720044  1.0000
  H   H3        1.0  0.27583596460195986  0.08718315223049443  0.431923368398408  1.0000
  H   H4        1.0  0.22416699592131561  0.9128161468108761  0.9319229043424424  1.0000
  H   H5        1.0  0.8845607586945478  0.6942995712926251  0.36270467130427864  1.0000
  H   H6        1.0  0.6154415512814354  0.3057029173095246  0.8627027975677634  1.0000
  H   H7        1.0  0.11543681423844282  0.30569804757919883  0.6372937442909004  1.0000
  H   H8        1.0  0.38455411457411515  0.6942981098880594  0.13729677494170284  1.0000
  H   H9        1.0  0.8042034886942772  0.6828801169469049  0.5047373697374906  1.0000
  H   H10       1.0  0.6957951948418425  0.3171208460562056  0.0047360377227363  1.0000
  H   H11       1.0  0.19579548364474422  0.31711750411498235  0.4952622027776242  1.0000
  H   H12       1.0  0.30420216762836827  0.6828813208877523  0.9952635347917105  1.0000
  H   H13       1.0  0.5222413828878204  0.500771016642922  0.6236392188652573  1.0000
  H   H14       1.0  0.9777615344730249  0.4992278019327615  0.12363895435620975  1.0000
  H   H15       1.0  0.4777595832835503  0.4992288817247256  0.3763597751981393  1.0000
  H   H16       1.0  0.022241128331131746  0.5007732361874135  0.8763611966286786  1.0000
  H   H17       1.0  0.5202280267374348  0.33052629846971376  0.6764280341926039  1.0000
  H   H18       1.0  0.9797731516827214  0.6694708027145285  0.17642860375789124  1.0000
  H   H19       1.0  0.4797757382188196  0.6694736042688094  0.3235715383359121  1.0000
  H   H20       1.0  0.02023400649378711  0.33053137951366557  0.8235703903223452  1.0000
  H   H21       1.0  0.8918817658783668  0.9398943539879174  0.29132427516661596  1.0000
  H   H22       1.0  0.608119112161745  0.06010510161979712  0.7913237463757523  1.0000
  H   H23       1.0  0.1081155098278757  0.060102127321435744  0.708674140427014  1.0000
  H   H24       1.0  0.39187036169773404  0.9398936417203251  0.20867640457512238  1.0000
  C   C1        1.0  0.7871454016878019  0.5010255455038007  0.6821746377066873  1.0000
  C   C2        1.0  0.7128371700971174  0.4989693132787496  0.1821609257442702  1.0000
  C   C3        1.0  0.21285556450169454  0.4989743528700005  0.31782551327321323  1.0000
  C   C4        1.0  0.2871646878179562  0.501033997797862  0.8178421175315406  1.0000
  C   C5        1.0  0.7225363943655057  0.18152409686801016  0.49540916828102155  1.0000
  C   C6        1.0  0.7774680804355256  0.8184775274748619  0.995408829496334  1.0000
  C   C7        1.0  0.2774698721488775  0.8184746726789315  0.5045909827110648  1.0000
  C   C8        1.0  0.22253038420490867  0.18152350409360454  0.0045913214782516  1.0000
  C   C9        1.0  0.766858541136962  0.04356523878507802  0.46227508875479356  1.0000
  C   C10       1.0  0.7331431987332876  0.9564348930079094  0.962276467069131  1.0000
  C   C11       1.0  0.23314742814160644  0.956432393196316  0.5377244837774882  1.0000
  C   C12       1.0  0.26684996558226  0.04356726738741661  0.03772368389326888  1.0000
  C   C13       1.0  0.7618106186279832  0.9134596411081835  0.5069523488294791  1.0000
  C   C14       1.0  0.7381915275567295  0.086543624975242  0.006951470391051398  1.0000
  C   C15       1.0  0.23819314632827124  0.08654026163033991  0.49304722369903686  1.0000
  C   C16       1.0  0.2618016367497519  0.9134585354170073  0.9930481021130928  1.0000
  C   C17       1.0  0.8519450519340169  0.7923088035924836  0.3928446507973859  1.0000
  C   C18       1.0  0.6480573108861307  0.20769059325682093  0.8928433740290912  1.0000
  C   C19       1.0  0.14805362316919007  0.2076876799038488  0.6071543432579245  1.0000
  C   C20       1.0  0.3519369555815076  0.7923104317568601  0.10715619847693598  1.0000
  C   C21       1.0  0.8060121670329823  0.7860892445068901  0.4714425486096799  1.0000
  C   C22       1.0  0.6939904545482278  0.2139132600166108  0.9714420845908122  1.0000
  C   C23       1.0  0.19398930683698273  0.21390724335417133  0.5285558669942532  1.0000
  C   C24       1.0  0.3060055085340707  0.7860889047434371  0.028557487920203097  1.0000
  C   C25       1.0  0.606653243129884  0.41648349555217845  0.6392658362730967  1.0000
  C   C26       1.0  0.8933464734893521  0.5835120723655793  0.139266436280181  1.0000
  C   C27       1.0  0.3933480202954272  0.5835175403871703  0.360734893166601  1.0000
  C   C28       1.0  0.10665589211524211  0.416487828201369  0.8607354500779039  1.0000
  C   C29       1.0  0.8549538540154631  0.9273721736256423  0.3526083565825714  1.0000
  C   C30       1.0  0.6450492417242585  0.07262907209106832  0.8526062916384374  1.0000
  C   C31       1.0  0.1450465177114708  0.0726254496201477  0.6473912159359827  1.0000
  C   C32       1.0  0.3549419287408143  0.9273708109923434  0.14739328085917686  1.0000
  N   N1        1.0  0.6809317052434453  0.20135651328233456  0.5696946892446916  1.0000
  N   N2        1.0  0.819068419466994  0.798642866270207  0.06969465697831369  1.0000
  N   N3        1.0  0.3190731618830257  0.7986422540807043  0.4303054617439628  1.0000
  N   N4        1.0  0.1809289430122831  0.20135930067682756  0.9303054939943887  1.0000
  N   N5        1.0  0.7175315964029922  0.3078727336292531  0.4530088358024215  1.0000
  N   N6        1.0  0.7824743484370273  0.6921284435975184  0.953007760730017  1.0000
  N   N7        1.0  0.28247297348766415  0.6921248961682382  0.5469907367264283  1.0000
  N   N8        1.0  0.2175272121969059  0.30787372989814094  0.04699181179472589  1.0000
  N   N9        1.0  0.6715953816374736  0.4093464753462542  0.5001913221391019  1.0000
  N   N10       1.0  0.8284022677815486  0.5906510265716421  0.00019161388984659998  1.0000
  N   N11       1.0  0.328404692862705  0.5906500103370648  0.49980825037789595  1.0000
  N   N12       1.0  0.17159759625585744  0.40935000718380377  0.9998091155464194  1.0000
  N   N13       1.0  0.6498405195614652  0.3420137088785041  0.569218643367357  1.0000
  N   N14       1.0  0.8501572991800118  0.6579822507396714  0.06921971748164418  1.0000
  N   N15       1.0  0.3501612515624402  0.6579839165542652  0.4307815076128775  1.0000
  N   N16       1.0  0.14984256486645364  0.3420187830188582  0.9307815904128699  1.0000
  N   N17       1.0  0.81383068205389  0.050833702785944  0.38654866101011004  1.0000
  N   N18       1.0  0.6861725856639396  0.9491644916577688  0.8865497984266495  1.0000
  N   N19       1.0  0.18617138629676336  0.9491650602092894  0.6134514899716732  1.0000
  N   N20       1.0  0.3138210863683284  0.05083425823713841  0.11345093099278358  1.0000
  Cl  Cl1       1.0  0.07905844357160426  0.830218727244109  0.8045546586729769  1.0000
  Cl  Cl2       1.0  0.42094251938002003  0.16978149288661373  0.30455537528253973  1.0000
  Cl  Cl3       1.0  0.9209386216537254  0.16978230213121756  0.19544375692341726  1.0000
  Cl  Cl4       1.0  0.5790570474034382  0.8302184032971314  0.6954436187774247  1.0000
  O   O1        1.0  0.9277634241733781  0.560572892650292  0.6400644217541611  1.0000
  O   O2        1.0  0.5722428934939287  0.43943179083742484  0.1400678663462287  1.0000
  O   O3        1.0  0.0722377524970241  0.43942245765754256  0.3599357292229682  1.0000
  O   O4        1.0  0.4277553607199778  0.5605737888154964  0.8599357553806328  1.0000
  O   O5        1.0  0.7724162960949243  0.5053864601819458  0.7550013417081942  1.0000
  O   O6        1.0  0.7275945521583367  0.49460694054499055  0.2550090987238391  1.0000
  O   O7        1.0  0.22758187131875476  0.494613433824057  0.2449988092648354  1.0000
  O   O8        1.0  0.27241990024791113  0.5053963901867321  0.7449939445828733  1.0000
