data_image0
_chemical_formula_structural       Cd2Fe2P4H56C52Br4O6
_chemical_formula_sum              "Cd2 Fe2 P4 H56 C52 Br4 O6"
_cell_length_a       11.16810273097282
_cell_length_b       11.350419532211964
_cell_length_c       13.081034294262624
_cell_angle_alpha    70.4308545729713
_cell_angle_beta     78.87589324919426
_cell_angle_gamma    61.10173180693549

_space_group_name_H-M_alt    "P 1"
_space_group_IT_number       1

loop_
  _space_group_symop_operation_xyz
  'x, y, z'

loop_
  _atom_site_type_symbol
  _atom_site_label
  _atom_site_symmetry_multiplicity
  _atom_site_fract_x
  _atom_site_fract_y
  _atom_site_fract_z
  _atom_site_occupancy
  Cd  Cd1       1.0  0.47858323922470447  0.4890786895341463  0.8538867521996777  1.0000
  Cd  Cd2       1.0  0.5214164698022613  0.51092089206783  0.14611217737557775  1.0000
  Fe  Fe1       1.0  0.20491866335114386  0.6339798436717742  0.5560729349483039  1.0000
  Fe  Fe2       1.0  0.795081523082679  0.3660165910843887  0.44392759283745414  1.0000
  P   P1        1.0  0.2627918468038357  0.4610916929371103  0.365335513222817  1.0000
  P   P2        1.0  0.7372042217979098  0.5389078856960978  0.634667081811699  1.0000
  P   P3        1.0  0.7292718117398779  0.2803961124222241  0.23929990697422446  1.0000
  P   P4        1.0  0.27072788238462653  0.7196055673243577  0.7606976516724158  1.0000
  H   H1        1.0  0.9859612968681547  0.6316221662822628  0.4836435078809059  1.0000
  H   H2        1.0  0.014038886008506779  0.3683784484505209  0.5163611586261679  1.0000
  H   H3        1.0  0.9915308939759552  0.6001460387179945  0.6972273870107627  1.0000
  H   H4        1.0  0.008472031205663158  0.3998524819092708  0.30277513682175067  1.0000
  H   H5        1.0  0.2550783452435539  0.4267795740131035  0.759365772410689  1.0000
  H   H6        1.0  0.7449204598303252  0.5732179141395974  0.24063315093180646  1.0000
  H   H7        1.0  0.40929119536630765  0.3539517872745606  0.5874412457008942  1.0000
  H   H8        1.0  0.5907076275264628  0.6460436009210255  0.41255981307894257  1.0000
  H   H9        1.0  0.4581039345944902  0.626081540016898  0.5605667954762622  1.0000
  H   H10       1.0  0.5418985102638558  0.37392012926869717  0.4394333656370221  1.0000
  H   H11       1.0  0.3417258550282084  0.7246087813930019  0.3644010308255615  1.0000
  H   H12       1.0  0.6582766079694051  0.275388698853412  0.6355988141100324  1.0000
  H   H13       1.0  0.06981734799594368  0.8838766496155087  0.3931727343072776  1.0000
  H   H14       1.0  0.9301851091688319  0.11612083425593059  0.606825581610863  1.0000
  H   H15       1.0  0.018223811442027216  0.8841206221648009  0.6040891504991064  1.0000
  H   H16       1.0  0.9817758855988927  0.1158810557692789  0.3959091726562676  1.0000
  H   H17       1.0  0.6449580811527652  0.22439092834434862  0.070845866776402  1.0000
  H   H18       1.0  0.3550370656770028  0.775608656796706  0.9291545865880193  1.0000
  H   H19       1.0  0.5953236059278879  0.03557279170022549  0.0697636973147766  1.0000
  H   H20       1.0  0.4046710871467455  0.9644278367045088  0.9302388222939295  1.0000
  H   H21       1.0  0.6211126917884683  0.8388201652518957  0.23673735009543861  1.0000
  H   H22       1.0  0.37888475234039015  0.16117836360978544  0.7632653203648869  1.0000
  H   H23       1.0  0.699730953499639  0.8314442585209676  0.4065240289778628  1.0000
  H   H24       1.0  0.3002733413762612  0.16855321595978975  0.5934770412630072  1.0000
  H   H25       1.0  0.7477445337480404  0.022491036393745396  0.4083530442048087  1.0000
  H   H26       1.0  0.2522606592481153  0.9775085351613058  0.5916465032513613  1.0000
  H   H27       1.0  0.8633686725489014  0.4585637356717457  0.12694770138924835  1.0000
  H   H28       1.0  0.13663012345534745  0.5414358470005496  0.8730513800420993  1.0000
  H   H29       1.0  0.10142462603089798  0.4049190109388833  0.05606946372506626  1.0000
  H   H30       1.0  0.8985750677732298  0.595084757889765  0.9439305465365991  1.0000
  H   H31       1.0  0.27021471886283877  0.1605782317972171  0.05697425717403347  1.0000
  H   H32       1.0  0.729787275156795  0.8394244789395486  0.9430287346922556  1.0000
  H   H33       1.0  0.20156388973306572  0.9687343422031917  0.13126398256927974  1.0000
  H   H34       1.0  0.798439020546084  0.031266276568679495  0.8687371703346257  1.0000
  H   H35       1.0  0.9637937928442781  0.021566406382731905  0.20630313247956164  1.0000
  H   H36       1.0  0.03620819306685519  0.978432131627443  0.7936926626305121  1.0000
  H   H37       1.0  0.4187390939796741  0.2154941591107189  0.2820990599233396  1.0000
  H   H38       1.0  0.5812560405436641  0.7845096114444912  0.7179032386362247  1.0000
  H   H39       1.0  0.24906787792373558  0.30248608312562913  0.23587455584436873  1.0000
  H   H40       1.0  0.7509304643253785  0.697514542810346  0.764126591831257  1.0000
  H   H41       1.0  0.3663198123585545  0.034329958948489996  0.4266851181018366  1.0000
  H   H42       1.0  0.6336771456141931  0.9656717221965394  0.5733136606218066  1.0000
  H   H43       1.0  0.329209206435813  0.0432208189051195  0.2974785231427504  1.0000
  H   H44       1.0  0.6707873006982152  0.9567819036910734  0.7025230863338904  1.0000
  H   H45       1.0  0.19318435340344559  0.12415084405376578  0.38548487969552525  1.0000
  H   H46       1.0  0.8068158119747011  0.8758497815540807  0.6145151997591964  1.0000
  H   H47       1.0  0.20631515997038713  0.710536980252691  0.1973633572935255  1.0000
  H   H48       1.0  0.7936863812552489  0.2894605065015766  0.802634345971981  1.0000
  H   H49       1.0  0.06513787104947254  0.7706607349326262  0.29007988145903596  1.0000
  H   H50       1.0  0.9348636462040573  0.2293409444858341  0.7099166089667007  1.0000
  H   H51       1.0  0.056406355250082536  0.7011284354787505  0.08419271069146107  1.0000
  H   H52       1.0  0.9435970120209942  0.2988690491348791  0.9158046888618684  1.0000
  H   H53       1.0  0.9824067559499526  0.872201095297207  0.10071687877343974  1.0000
  H   H54       1.0  0.017594776206053098  0.12779848597664056  0.8992809825809045  1.0000
  H   H55       1.0  0.9153816944409386  0.7543672702576599  0.17875587768211415  1.0000
  H   H56       1.0  0.08461892177592029  0.24563231389902282  0.8212413710195959  1.0000
  C   C1        1.0  0.2126574925049524  0.4873295880991861  0.4961664318622426  1.0000
  C   C2        1.0  0.7873408322456539  0.5126710487118443  0.5038301287610237  1.0000
  C   C3        1.0  0.07516253633414045  0.5683486337579138  0.5333292737308071  1.0000
  C   C4        1.0  0.9248362564333091  0.4316530398089498  0.4666714948068315  1.0000
  C   C5        1.0  0.07825309292266516  0.5509408026618559  0.6461825073080262  1.0000
  C   C6        1.0  0.9217443333873092  0.4490598261569474  0.3538180277149579  1.0000
  C   C7        1.0  0.21616273007249726  0.4602126094927569  0.6793512940562181  1.0000
  C   C8        1.0  0.7838374353056422  0.5397880161150895  0.32064878539850367  1.0000
  C   C9        1.0  0.2998178724717063  0.42139056362581323  0.5875408903863643  1.0000
  C   C10       1.0  0.7001813951065614  0.5786058758256871  0.4124582602380328  1.0000
  C   C11       1.0  0.7542568103124977  0.25096688144915896  0.37926554398286066  1.0000
  C   C12       1.0  0.24574424994910513  0.7490379321275498  0.6207346997934592  1.0000
  C   C13       1.0  0.3516292587197469  0.6963573909929366  0.5415930753502421  1.0000
  C   C14       1.0  0.6483713571767352  0.3036442822458056  0.4584066249664929  1.0000
  C   C15       1.0  0.28960726823961364  0.7483521988256854  0.43963031065320707  1.0000
  C   C16       1.0  0.7103947293371887  0.25164633193445246  0.5603685424917657  1.0000
  C   C17       1.0  0.1456714675339583  0.8322174570356681  0.4547899181964749  1.0000
  C   C18       1.0  0.8543323502554614  0.1677810752088504  0.5452071022188747  1.0000
  C   C19       1.0  0.11769871645745408  0.8327918986119086  0.5661342405826203  1.0000
  C   C20       1.0  0.8823023412081097  0.16721082769525003  0.4338627870699483  1.0000
  C   C21       1.0  0.7004710187712531  0.13541200697702754  0.24004137502211614  1.0000
  C   C22       1.0  0.29952776233051975  0.8645896738398735  0.7599563354806161  1.0000
  C   C23       1.0  0.6577549570363175  0.13828762141299936  0.14457975350018862  1.0000
  C   C24       1.0  0.3422424815800865  0.8617088219916484  0.8554189363276592  1.0000
  C   C25       1.0  0.6298476707629773  0.0313177962120221  0.14403243014270117  1.0000
  C   C26       1.0  0.37014700157634894  0.9686849339623366  0.8559671895199371  1.0000
  C   C27       1.0  0.6444603421096317  0.9210861665853116  0.23807194227072848  1.0000
  C   C28       1.0  0.35553664243126076  0.0789134091650681  0.761931265416429  1.0000
  C   C29       1.0  0.6876933646958816  0.9173668757266995  0.3329545532509285  1.0000
  C   C30       1.0  0.3123076894125063  0.0826400305570871  0.6670466131229559  1.0000
  C   C31       1.0  0.7153670989928499  0.0244098279143756  0.33416683409563314  1.0000
  C   C32       1.0  0.2846344419124023  0.975589747921944  0.6658333207848911  1.0000
  C   C33       1.0  0.8990144637012846  0.2427199328270859  0.17466556471120492  1.0000
  C   C34       1.0  0.10098660595032526  0.7572806971479693  0.8253320693612449  1.0000
  C   C35       1.0  0.9377323543204595  0.3507512170187539  0.12979441499368247  1.0000
  C   C36       1.0  0.0622691836683841  0.6492483606300753  0.8702049753781222  1.0000
  C   C37       1.0  0.07113896273683198  0.3208543357429079  0.08865391165774379  1.0000
  C   C38       1.0  0.9288598180445716  0.6791494341560522  0.9113462504600137  1.0000
  C   C39       1.0  0.1661518809383722  0.1833580749704495  0.08949437870395367  1.0000
  C   C40       1.0  0.8338505697528118  0.816643590690127  0.9105073114267765  1.0000
  C   C41       1.0  0.1272184319808574  0.07583331207767692  0.1311507034008628  1.0000
  C   C42       1.0  0.8727840128774885  0.9241683572079111  0.8688494577124144  1.0000
  C   C43       1.0  0.9943947489022449  0.10533618832744912  0.17374790143036012  1.0000
  C   C44       1.0  0.005608606382786233  0.8946633926182771  0.8262488917030877  1.0000
  C   C45       1.0  0.3125128634650308  0.23564855281244954  0.30698931845208927  1.0000
  C   C46       1.0  0.6874836734739419  0.764349973494532  0.6930150328817746  1.0000
  C   C47       1.0  0.2993778623808581  0.1016393761216534  0.35765752750000246  1.0000
  C   C48       1.0  0.700620032266336  0.8983602003709165  0.6423447638223364  1.0000
  C   C49       1.0  0.10870507616273521  0.7091019390972306  0.23100065621320445  1.0000
  C   C50       1.0  0.8912969214140675  0.29089659166290005  0.7689981969317684  1.0000
  C   C51       1.0  0.009873062224265464  0.761594429243992  0.1436002910166464  1.0000
  C   C52       1.0  0.990128929519706  0.23840410514116428  0.8563970331108804  1.0000
  Br  Br1       1.0  0.5309599211988284  0.24284003716374514  0.8485549543110265  1.0000
  Br  Br2       1.0  0.4690388926243115  0.757157445551428  0.1514462625576555  1.0000
  Br  Br3       1.0  0.3376156347140408  0.4885982767285456  0.05811597927622357  1.0000
  Br  Br4       1.0  0.6623831642066234  0.5114013041312405  0.9418838666638436  1.0000
  O   O1        1.0  0.39343141371879403  0.4679244486387049  0.3194666950688684  1.0000
  O   O2        1.0  0.6065651264569779  0.5320719867737083  0.6805359691587042  1.0000
  O   O3        1.0  0.2658659467436592  0.31290369382700334  0.3887291663720517  1.0000
  O   O4        1.0  0.7341296655069129  0.687094840800327  0.6112722787829978  1.0000
  O   O5        1.0  0.13525750478697757  0.5648867646978674  0.29027785185643035  1.0000
  O   O6        1.0  0.8647426813264757  0.435111759140348  0.7097251275443524  1.0000
