data_image0
_chemical_formula_structural       La2H18C14N20O10
_chemical_formula_sum              "La2 H18 C14 N20 O10"
_cell_length_a       8.9746811502984
_cell_length_b       10.104138583769716
_cell_length_c       10.104154735772404
_cell_angle_alpha    78.08143936507761
_cell_angle_beta     63.63089332851583
_cell_angle_gamma    63.631222022706844

_space_group_name_H-M_alt    "P 1"
_space_group_IT_number       1

loop_
  _space_group_symop_operation_xyz
  'x, y, z'

loop_
  _atom_site_type_symbol
  _atom_site_label
  _atom_site_symmetry_multiplicity
  _atom_site_fract_x
  _atom_site_fract_y
  _atom_site_fract_z
  _atom_site_occupancy
  La  La1       1.0  0.24999818860892015  0.5403496024108492  0.9596488048982796  1.0000
  La  La2       1.0  0.7500068006982732  0.9596362478869409  0.5403593521688494  1.0000
  H   H1        1.0  0.42875093253027075  0.34084587087920676  0.6048334018389812  1.0000
  H   H2        1.0  0.07122964898870547  0.8951703659305962  0.15915552212038628  1.0000
  H   H3        1.0  0.3753142731245092  0.15893450836069423  0.895017189682733  1.0000
  H   H4        1.0  0.12468294816479654  0.6049918908675805  0.3410620790947193  1.0000
  H   H5        1.0  0.37870120762107023  0.37067721641628276  0.3708094033005268  1.0000
  H   H6        1.0  0.12128528785149938  0.12918928886947606  0.12932647037914086  1.0000
  H   H7        1.0  0.35338022545669645  0.23627319508710795  0.17147816210191996  1.0000
  H   H8        1.0  0.14663084604839594  0.32850740528122907  0.2637140838959199  1.0000
  H   H9        1.0  0.7611189493259118  0.2637173667305033  0.32854583553770317  1.0000
  H   H10       1.0  0.7388134621169585  0.17150440845811216  0.2363186103796765  1.0000
  H   H11       1.0  0.48876758518634517  0.5762224676879342  0.10629956437296782  1.0000
  H   H12       1.0  0.01122976280464624  0.3936998815007298  0.923773361419173  1.0000
  H   H13       1.0  0.1712533723523539  0.9237340202023815  0.3937569946577498  1.0000
  H   H14       1.0  0.3287556568091929  0.10624438128223086  0.5762584631241838  1.0000
  H   H15       1.0  0.6128657521253376  0.44337344953113694  0.9854608369659845  1.0000
  H   H16       1.0  0.8871313086118775  0.5145369894552799  0.05662503193450873  1.0000
  H   H17       1.0  0.04170774362862059  0.0565994134279961  0.5145366584649979  1.0000
  H   H18       1.0  0.4583030105026328  0.985462425974461  0.443396961894159  1.0000
  C   C1        1.0  0.9745206567702883  0.7756463990177735  0.7755182917857655  1.0000
  C   C2        1.0  0.5254771374150526  0.7244818717923492  0.7243607402679973  1.0000
  C   C3        1.0  0.0871755442272716  0.6628566312960585  0.6627694404626754  1.0000
  C   C4        1.0  0.4128210431806496  0.8372328211010113  0.8371484203078768  1.0000
  C   C5        1.0  0.32196244973947347  0.4383856425667431  0.583919973253181  1.0000
  C   C6        1.0  0.17803839196090365  0.9160811536632709  0.06161213356606511  1.0000
  C   C7        1.0  0.34490495241133334  0.06151608574565154  0.9159739139206454  1.0000
  C   C8        1.0  0.15509662209731115  0.5840328449359902  0.4384832051507318  1.0000
  C   C9        1.0  0.2944553761055176  0.45518843566217976  0.45521330647704183  1.0000
  C   C10       1.0  0.20554748232601844  0.04479082997727348  0.044816797600105915  1.0000
  C   C11       1.0  0.8158789987639994  0.24990778834335714  0.7499140536103897  1.0000
  C   C12       1.0  0.6841246449993226  0.7500769733185134  0.2500941036597696  1.0000
  C   C13       1.0  0.650714561004058  0.2499694767549058  0.7498877688535474  1.0000
  C   C14       1.0  0.8492883028526708  0.750106087062406  0.25003024558323267  1.0000
  N   N1        1.0  0.007568259668801152  0.777379380352613  0.8919363077663153  1.0000
  N   N2        1.0  0.49242670180218084  0.6080649065120979  0.7226203969010927  1.0000
  N   N3        1.0  0.6767569074795505  0.7226182079903865  0.6079402144292774  1.0000
  N   N4        1.0  0.8232470491696944  0.8920649914051425  0.7773790660790142  1.0000
  N   N5        1.0  0.8720416482278279  0.899525660128411  0.9674871447478924  1.0000
  N   N6        1.0  0.6279542763048698  0.5325166172258022  0.6004727948292301  1.0000
  N   N7        1.0  0.738898811809108  0.6003984812881669  0.532515529374301  1.0000
  N   N8        1.0  0.7611019593934572  0.9674869288211735  0.8996020426056648  1.0000
  N   N9        1.0  0.21833691117228668  0.5421774111109982  0.6887748066625294  1.0000
  N   N10       1.0  0.2816635868779616  0.8112160113472623  0.9578177093068235  1.0000
  N   N11       1.0  0.44957142257242616  0.9577823612209924  0.811067042959543  1.0000
  N   N12       1.0  0.050425555283119684  0.6889388098528924  0.54221971619522  1.0000
  N   N13       1.0  0.8158095865700618  0.32433894049477613  0.8462195277633742  1.0000
  N   N14       1.0  0.684190493319605  0.6537701604612207  0.17566543859163636  1.0000
  N   N15       1.0  0.9865894624819804  0.17548619000857008  0.6536927523917273  1.0000
  N   N16       1.0  0.5134136431825667  0.8462978597908017  0.3245175862998907  1.0000
  N   N17       1.0  0.9902237617705509  0.2949967406710599  0.8077374526357135  1.0000
  N   N18       1.0  0.5097747875255083  0.6922536076146313  0.20500906150082449  1.0000
  N   N19       1.0  0.09308845003476308  0.20481528807221128  0.6923094035746831  1.0000
  N   N20       1.0  0.4069151204129471  0.8076795258335066  0.29518837732086217  1.0000
  O   O1        1.0  0.49901645619603135  0.3149389857574435  0.8540022311757841  1.0000
  O   O2        1.0  0.0009876276166665354  0.6459928271275645  0.18506112247521142  1.0000
  O   O3        1.0  0.6680387359585398  0.18507414427720892  0.6457892655485794  1.0000
  O   O4        1.0  0.8319601304570131  0.8542065328364001  0.3149276080493594  1.0000
  O   O5        1.0  0.2500071531133302  0.327454895406504  0.17254153374560136  1.0000
  O   O6        1.0  0.7500451133805158  0.17252008044592768  0.3274577306960111  1.0000
  O   O7        1.0  0.48602156469963426  0.5039732660901562  0.05406249941924562  1.0000
  O   O8        1.0  0.01397435767069046  0.4459409034597996  0.9960221408407794  1.0000
  O   O9        1.0  0.044034068652038676  0.9960562727908879  0.4459105042245284  1.0000
  O   O10       1.0  0.45597637740890906  0.05409591694412787  0.5039362682121294  1.0000
