data_image0
_chemical_formula_structural       Cd2B4H28C24N36
_chemical_formula_sum              "Cd2 B4 H28 C24 N36"
_cell_length_a       8.738690874576115
_cell_length_b       8.73869951996254
_cell_length_c       15.614539154370181
_cell_angle_alpha    102.31116165205735
_cell_angle_beta     102.31119280406271
_cell_angle_gamma    100.96667144596918

_space_group_name_H-M_alt    "P 1"
_space_group_IT_number       1

loop_
  _space_group_symop_operation_xyz
  'x, y, z'

loop_
  _atom_site_type_symbol
  _atom_site_label
  _atom_site_symmetry_multiplicity
  _atom_site_fract_x
  _atom_site_fract_y
  _atom_site_fract_z
  _atom_site_occupancy
  Cd  Cd1       1.0  0.49999997582879263  9.186540949999866e-08  0.5000000618066096  1.0000
  Cd  Cd2       1.0  0.9999995294514648  0.49999970050260595  0.999999992236333  1.0000
  B   B1        1.0  0.13873714735663611  0.41508414400968974  0.6514923704271567  1.0000
  B   B2        1.0  0.5849169954219846  0.8612634434676212  0.848507904123025  1.0000
  B   B3        1.0  0.8612619598887149  0.5849150732647033  0.3485074904322972  1.0000
  B   B4        1.0  0.4150835815632306  0.1387369828204683  0.15149291668998197  1.0000
  H   H1        1.0  0.0665667736382147  0.3557050453817396  0.4537783341883568  1.0000
  H   H2        1.0  0.6442944248271018  0.9334315983767145  0.04622141095408959  1.0000
  H   H3        1.0  0.9334323336071294  0.6442941718926535  0.5462215266710971  1.0000
  H   H4        1.0  0.3557043842678098  0.06656641033683292  0.9537789106119379  1.0000
  H   H5        1.0  0.7546932756255913  0.15176449136392733  0.36686424865649064  1.0000
  H   H6        1.0  0.848235353028542  0.2453062727165047  0.1331357614724951  1.0000
  H   H7        1.0  0.2453061299074832  0.8482359346084394  0.6331357919578908  1.0000
  H   H8        1.0  0.1517649253943745  0.7546929445993416  0.8668635986625761  1.0000
  H   H9        1.0  0.103516338999313  0.15316963723243052  0.8861697888294986  1.0000
  H   H10       1.0  0.8468325946096655  0.8964838091074796  0.6138293026992089  1.0000
  H   H11       1.0  0.8964845358617664  0.8468319973422354  0.11382929035392664  1.0000
  H   H12       1.0  0.1531691534158384  0.10351661708492804  0.3861703769279146  1.0000
  H   H13       1.0  0.17706412327255797  0.12939805519469164  0.7164426670555812  1.0000
  H   H14       1.0  0.8706019525165376  0.8229350262993977  0.7835573296592673  1.0000
  H   H15       1.0  0.8229361552876497  0.8706011622582823  0.28355733354099766  1.0000
  H   H16       1.0  0.1293994973585271  0.17706419133217116  0.21644281067442964  1.0000
  H   H17       1.0  0.6521388748791779  0.43172646659733266  0.5936557590581018  1.0000
  H   H18       1.0  0.5682730540328294  0.34786091317074863  0.9063436307862318  1.0000
  H   H19       1.0  0.34786053051660554  0.5682739592378996  0.40634364109477883  1.0000
  H   H20       1.0  0.4317263513629542  0.6521395126644834  0.09365576936664874  1.0000
  H   H21       1.0  0.4441933719765672  0.6200321758512148  0.6493910077855105  1.0000
  H   H22       1.0  0.37996794206370044  0.5558083163865248  0.8506099252793435  1.0000
  H   H23       1.0  0.5558063318442309  0.37996945881912586  0.35060921258379113  1.0000
  H   H24       1.0  0.6200311651816434  0.4441909008878612  0.14938993558011054  1.0000
  H   H25       1.0  0.1455117511511901  0.5576692695906048  0.6663083943724503  1.0000
  H   H26       1.0  0.44233078908766293  0.854487187203077  0.8336915419702893  1.0000
  H   H27       1.0  0.8544873560941538  0.44232994768378836  0.3336914664870037  1.0000
  H   H28       1.0  0.5576683180204043  0.14551202993418147  0.16630767842766403  1.0000
  C   C1        1.0  0.9735654694794604  0.2966384196556575  0.48022555053785965  1.0000
  C   C2        1.0  0.7033611088279415  0.026432999756799802  0.019774299831645695  1.0000
  C   C3        1.0  0.02643480921803135  0.703360797934451  0.5197750905202199  1.0000
  C   C4        1.0  0.2966391697322663  0.973566217696181  0.9802257007649333  1.0000
  C   C5        1.0  0.8215776318953089  0.19629808717503042  0.4378518184448979  1.0000
  C   C6        1.0  0.8037017901459151  0.17842084810586561  0.06214807018435662  1.0000
  C   C7        1.0  0.17842147535004224  0.8037011300993628  0.5621480424145489  1.0000
  C   C8        1.0  0.1962984884142926  0.8215783693471153  0.9378519304122153  1.0000
  C   C9        1.0  0.1059771835865106  0.23534096666481472  0.843147004623056  1.0000
  C   C10       1.0  0.7646616157957169  0.8940218367391853  0.6568532679104564  1.0000
  C   C11       1.0  0.8940228186592947  0.7646618768406342  0.15685403596268097  1.0000
  C   C12       1.0  0.235340132504362  0.10597858972748501  0.3431476926396685  1.0000
  C   C13       1.0  0.1409116034947857  0.22200378754511266  0.760151619713497  1.0000
  C   C14       1.0  0.7779983606009253  0.859089168851135  0.7398481738997092  1.0000
  C   C15       1.0  0.8590889733531455  0.777996638605842  0.2398485606380022  1.0000
  C   C16       1.0  0.22200221610971477  0.1409112571626849  0.2601513659902893  1.0000
  C   C17       1.0  0.5308123648421129  0.3974929341791054  0.6009954732410137  1.0000
  C   C18       1.0  0.6025060293443047  0.46918996070681374  0.8990041450122774  1.0000
  C   C19       1.0  0.4691867424032311  0.6025062830952878  0.39900438761844015  1.0000
  C   C20       1.0  0.397494249215903  0.5308092567461672  0.10099585558429422  1.0000
  C   C21       1.0  0.43056781684354206  0.4906588640136036  0.6290773651891757  1.0000
  C   C22       1.0  0.509342374246735  0.569434540220172  0.8709244320892823  1.0000
  C   C23       1.0  0.5694327601416732  0.5093415622744857  0.37092345562383144  1.0000
  C   C24       1.0  0.4906567328613249  0.4305646769170862  0.12907478830867095  1.0000
  N   N1        1.0  0.75574763898981  0.1577320146742593  0.5043373051253752  1.0000
  N   N2        1.0  0.8422677796950779  0.2442525439283188  0.9956628387800636  1.0000
  N   N3        1.0  0.2442514682555412  0.8422672026001337  0.4956625557340787  1.0000
  N   N4        1.0  0.1577316258379895  0.7557478820440481  0.004337201834317717  1.0000
  N   N5        1.0  0.4500102750059797  0.2397028195035631  0.5824337538134685  1.0000
  N   N6        1.0  0.7602969749407861  0.5499885631498386  0.9175655544806745  1.0000
  N   N7        1.0  0.5499900035542282  0.7602963979494107  0.4175662467831104  1.0000
  N   N8        1.0  0.2397021323045578  0.45001065412455443  0.08243430637877225  1.0000
  N   N9        1.0  0.0679281979524475  0.3798669006130525  0.866489692799938  1.0000
  N   N10       1.0  0.6201355530074508  0.932071285013734  0.6335099627395169  1.0000
  N   N11       1.0  0.9320718041560736  0.620135942755262  0.13351070732429804  1.0000
  N   N12       1.0  0.3798658968676135  0.0679279326178346  0.3664901775941801  1.0000
  N   N13       1.0  0.9920806071431302  0.31308772248024047  0.5706907234608067  1.0000
  N   N14       1.0  0.6869130188555275  0.0079185874143093  0.929308782344002  1.0000
  N   N15       1.0  0.007918500102221154  0.6869114947941527  0.42930913739864723  1.0000
  N   N16       1.0  0.3130872597046804  0.9920806300386646  0.07069121825256999  1.0000
  N   N17       1.0  0.12212722270129457  0.36041755587992697  0.7374248528891982  1.0000
  N   N18       1.0  0.6395820367046381  0.8778729493565508  0.7625751906149107  1.0000
  N   N19       1.0  0.8778727575711897  0.6395804528750804  0.26257496795245333  1.0000
  N   N20       1.0  0.3604182417182855  0.12212626795929543  0.23742416952016046  1.0000
  N   N21       1.0  0.07747522681439281  0.45583445179330795  0.8026871409681676  1.0000
  N   N22       1.0  0.5441654950623799  0.9225247734900677  0.6973116308817993  1.0000
  N   N23       1.0  0.9225238802936744  0.5441647653439504  0.19731207942977855  1.0000
  N   N24       1.0  0.45583508151097607  0.07747565238661741  0.3026872685466984  1.0000
  N   N25       1.0  0.2933338457267425  0.3835085863600655  0.6260986948035241  1.0000
  N   N26       1.0  0.6164911359263243  0.7066660083803241  0.8739006991068196  1.0000
  N   N27       1.0  0.7066652615186086  0.6164906309143277  0.3739011660559227  1.0000
  N   N28       1.0  0.38350797131902686  0.2933332088940689  0.12609916175263444  1.0000
  N   N29       1.0  0.8587196042667243  0.22862259449608763  0.5848291137791437  1.0000
  N   N30       1.0  0.7713775726509694  0.1412807577161814  0.915171098829177  1.0000
  N   N31       1.0  0.14128067429348334  0.7713766229568865  0.4151708868174283  1.0000
  N   N32       1.0  0.2286227059092383  0.8587184597367995  0.08482890176740204  1.0000
  N   N33       1.0  0.30629509431572893  0.23082376226923176  0.5974511738048421  1.0000
  N   N34       1.0  0.7691762562972997  0.6937036732041548  0.9025481406992883  1.0000
  N   N35       1.0  0.69370518438177  0.7691754553208769  0.40254946725323765  1.0000
  N   N36       1.0  0.23082285094804436  0.3062955440702383  0.09745172016016575  1.0000
