data_image0
_chemical_formula_structural       Cd4H24C48O16
_chemical_formula_sum              "Cd4 H24 C48 O16"
_cell_length_a       4.070022645002096
_cell_length_b       7.2871551866943935
_cell_length_c       31.711373780505994
_cell_angle_alpha    95.60995455824701
_cell_angle_beta     90.00001563248529
_cell_angle_gamma    90.00011223050629

_space_group_name_H-M_alt    "P 1"
_space_group_IT_number       1

loop_
  _space_group_symop_operation_xyz
  'x, y, z'

loop_
  _atom_site_type_symbol
  _atom_site_label
  _atom_site_symmetry_multiplicity
  _atom_site_fract_x
  _atom_site_fract_y
  _atom_site_fract_z
  _atom_site_occupancy
  Cd  Cd1       1.0  0.12110628857660541  0.7450564659459574  0.01425478798053351  1.0000
  Cd  Cd2       1.0  0.6211064722578002  0.7549440537857917  0.48574528883811047  1.0000
  Cd  Cd3       1.0  0.8788909298694281  0.2549449663832632  0.9857457367032227  1.0000
  Cd  Cd4       1.0  0.378895660164801  0.24505736541625825  0.5142542895228033  1.0000
  H   H1        1.0  0.3808719074757079  0.9559069482491154  0.12223891089429632  1.0000
  H   H2        1.0  0.8808785032507913  0.5440924813610978  0.3777608363674006  1.0000
  H   H3        1.0  0.6191203969896509  0.044093096449110206  0.8777609529333006  1.0000
  H   H4        1.0  0.1191334571279654  0.4559089509764435  0.6222396883168104  1.0000
  H   H5        1.0  0.6317953163868282  0.06075790468383249  0.19198770372499044  1.0000
  H   H6        1.0  0.13179887781461022  0.4392408853275356  0.3080120485402064  1.0000
  H   H7        1.0  0.36820681602915073  0.9392393866467329  0.8080124155958758  1.0000
  H   H8        1.0  0.8682106255673931  0.5607564016305346  0.6919877553398879  1.0000
  H   H9        1.0  0.89706212584656  0.30382277669342966  0.23915474926074862  1.0000
  H   H10       1.0  0.3970672000658837  0.19618044927767636  0.2608451091202326  1.0000
  H   H11       1.0  0.10293263560791391  0.6961772723828331  0.7608454300079189  1.0000
  H   H12       1.0  0.6029300183829138  0.803822366303116  0.7391557609785411  1.0000
  H   H13       1.0  0.13341091749576617  0.6196284126013224  0.25155341472878945  1.0000
  H   H14       1.0  0.6334233279786333  0.8803776321452617  0.2484464672964536  1.0000
  H   H15       1.0  0.8665740160087625  0.38037439859589034  0.7484471399286079  1.0000
  H   H16       1.0  0.36658371843301313  0.11963067268090552  0.7515526300526931  1.0000
  H   H17       1.0  0.12315820659688377  0.828398702991997  0.19402340414498556  1.0000
  H   H18       1.0  0.6231626394929252  0.6716045680541569  0.30597610186509183  1.0000
  H   H19       1.0  0.8768390118463857  0.17160134608565167  0.8059767751237603  1.0000
  H   H20       1.0  0.3768419499195446  0.32839821251762674  0.69402224470592  1.0000
  H   H21       1.0  0.8823576632904563  0.7260493414138267  0.12463460762423043  1.0000
  H   H22       1.0  0.38236078988715866  0.7739487022427626  0.37536447887204366  1.0000
  H   H23       1.0  0.11764446912694382  0.2739493156617172  0.8753645953476552  1.0000
  H   H24       1.0  0.6176462564998463  0.22604580945748148  0.6246340032959525  1.0000
  C   C1        1.0  0.610267654097008  0.38727690268130033  0.10112938172257203  1.0000
  C   C2        1.0  0.11027272560220781  0.11272462954168108  0.3988710600584966  1.0000
  C   C3        1.0  0.38973202133537654  0.6127231507743788  0.8988711129872443  1.0000
  C   C4        1.0  0.8897269498274128  0.8872740406624189  0.6011290892363094  1.0000
  C   C5        1.0  0.47707397786501826  0.2103968931996718  0.0950542316024041  1.0000
  C   C6        1.0  0.9770790277119873  0.28960228643413194  0.4049455417409932  1.0000
  C   C7        1.0  0.5229232405785852  0.7896031602546217  0.904946263107334  1.0000
  C   C8        1.0  0.0229231047085108  0.7103977582696358  0.5950543220869025  1.0000
  C   C9        1.0  0.4841401093550886  0.09369669275045568  0.1284460150329565  1.0000
  C   C10       1.0  0.9841454957228349  0.4063024992337958  0.3715540741828178  1.0000
  C   C11       1.0  0.5158571090860845  0.9063019818289105  0.8715544497027707  1.0000
  C   C12       1.0  0.0158615506755808  0.593697549849395  0.6284461050862262  1.0000
  C   C13       1.0  0.6221714246293928  0.15245253229632283  0.16681864802778534  1.0000
  C   C14       1.0  0.122177176408627  0.3475476213547068  0.33318081818298145  1.0000
  C   C15       1.0  0.3778282507974637  0.8475447546562053  0.8331811558520033  1.0000
  C   C16       1.0  0.8778274130009933  0.6524524277270984  0.6668193610859847  1.0000
  C   C17       1.0  0.7550628984942095  0.33255388758259125  0.17447527653027356  1.0000
  C   C18       1.0  0.2550704645362671  0.16744642915766414  0.325525144116142  1.0000
  C   C19       1.0  0.2449367769357522  0.6674447869981607  0.8255251882055249  1.0000
  C   C20       1.0  0.7449267539052402  0.832552249798347  0.6744756360605778  1.0000
  C   C21       1.0  0.8944185412319998  0.3965646480866596  0.21415635590818746  1.0000
  C   C22       1.0  0.3944258017983557  0.10343720040431491  0.2858437877784611  1.0000
  C   C23       1.0  0.10558113419762802  0.6034340221174476  0.7858437933866187  1.0000
  C   C24       1.0  0.6055714166445725  0.896562844296689  0.7141560760492922  1.0000
  C   C25       1.0  0.024418779530499497  0.5715821662796543  0.22105315640816062  1.0000
  C   C26       1.0  0.5244265068159424  0.928422376599741  0.2789466889893077  1.0000
  C   C27       1.0  0.9755784389124289  0.42841787842134244  0.7789467074195855  1.0000
  C   C28       1.0  0.47557562560942307  0.07158042585388101  0.7210532347866236  1.0000
  C   C29       1.0  0.018165915923035007  0.6904734941155296  0.1884112789965968  1.0000
  C   C30       1.0  0.5181708405083469  0.8095296628314658  0.3115885360450505  1.0000
  C   C31       1.0  0.9818337595059107  0.3095251673352806  0.81158823941621  1.0000
  C   C32       1.0  0.48183129191324536  0.19047174324065  0.6884100959928717  1.0000
  C   C33       1.0  0.882735903651977  0.6330532220360469  0.14948966794685256  1.0000
  C   C34       1.0  0.38274175906656893  0.8669475929286964  0.35051042484362693  1.0000
  C   C35       1.0  0.11726377177764392  0.36694544816805325  0.8505104813479536  1.0000
  C   C36       1.0  0.6172554593718332  0.1330496983990912  0.6494896944770902  1.0000
  C   C37       1.0  0.7485471390735088  0.45292744593088224  0.14126520136178305  1.0000
  C   C38       1.0  0.24855435543278764  0.04707286345662712  0.3587352188868564  1.0000
  C   C39       1.0  0.2514549933449004  0.5470712242746103  0.8587349479330941  1.0000
  C   C40       1.0  0.75144531999684  0.9529258067474796  0.6412649304079424  1.0000
  C   C41       1.0  0.6084668776927629  0.5202445309459378  0.06755544750148351  1.0000
  C   C42       1.0  0.10846838250258631  0.9797545956489911  0.4324445985715998  1.0000
  C   C43       1.0  0.39153034075050647  0.47975551813171075  0.9324447317672624  1.0000
  C   C44       1.0  0.8915312929294714  0.0202454534300429  0.5675555806972241  1.0000
  C   C45       1.0  0.3124162458361753  0.1357452093059024  0.05513237874541231  1.0000
  C   C46       1.0  0.8124240956894441  0.36425791239682326  0.44486684358629  1.0000
  C   C47       1.0  0.687573601643159  0.8642562186425168  0.944867830497117  1.0000
  C   C48       1.0  0.18757803673315018  0.6357435068052267  0.555132734774624  1.0000
  O   O1        1.0  0.8258808332567683  0.49871491547259705  0.03807814401665151  1.0000
  O   O2        1.0  0.32588319139142646  0.0012868600524882012  0.4619223109268304  1.0000
  O   O3        1.0  0.17412129916893093  0.501287891357677  0.9619220952002723  1.0000
  O   O4        1.0  0.6741238550094126  0.9987145679056298  0.5380778983162245  1.0000
  O   O5        1.0  0.40953701575776347  0.6528289828231308  0.0718446410016114  1.0000
  O   O6        1.0  0.9095398573406613  0.8471718623829999  0.4281554534248926  1.0000
  O   O7        1.0  0.5904651166634096  0.34717107063393376  0.9281558537082832  1.0000
  O   O8        1.0  0.09046964604653601  0.15282818670157639  0.5718447258442225  1.0000
  O   O9        1.0  0.3757501277006484  0.20396339919884096  0.019833682975686905  1.0000
  O   O10       1.0  0.8757651847041431  0.2960439393536518  0.48016626402661444  1.0000
  O   O11       1.0  0.6242372628023958  0.7960449274994656  0.9801669915778463  1.0000
  O   O12       1.0  0.12423940470305442  0.7039547308532262  0.5198338852683406  1.0000
  O   O13       1.0  0.10173415254206472  0.008616793786338001  0.05742384853459011  1.0000
  O   O14       1.0  0.6017375260510464  0.4913819623031088  0.4425759018954595  1.0000
  O   O15       1.0  0.8982630659015385  0.9913832596679555  0.942576646175148  1.0000
  O   O16       1.0  0.39826952034459856  0.5086167035285029  0.5574239319585744  1.0000
