data_image0
_chemical_formula_structural       Zn8H24C60N4O34
_chemical_formula_sum              "Zn8 H24 C60 N4 O34"
_cell_length_a       20.98427520364151
_cell_length_b       20.87572895088649
_cell_length_c       20.875589873160724
_cell_angle_alpha    103.54980657401255
_cell_angle_beta     112.44011292610782
_cell_angle_gamma    112.43961226289535

_space_group_name_H-M_alt    "P 1"
_space_group_IT_number       1

loop_
  _space_group_symop_operation_xyz
  'x, y, z'

loop_
  _atom_site_type_symbol
  _atom_site_label
  _atom_site_symmetry_multiplicity
  _atom_site_fract_x
  _atom_site_fract_y
  _atom_site_fract_z
  _atom_site_occupancy
  Zn  Zn1       1.0  0.9304479296076168  0.6357159596387661  0.20427750729363953  1.0000
  Zn  Zn2       1.0  0.06955597880383382  0.3642886898460276  0.7957263726040084  1.0000
  Zn  Zn3       1.0  0.06955661133341819  0.7957256623335028  0.364285604303717  1.0000
  Zn  Zn4       1.0  0.9304470444580418  0.2042766617379641  0.6357147631615448  1.0000
  Zn  Zn5       1.0  0.929474084605324  0.7913015113617163  0.22399968782795537  1.0000
  Zn  Zn6       1.0  0.07052567465657941  0.2086956143501979  0.7760003710587071  1.0000
  Zn  Zn7       1.0  0.07052473749993035  0.7760044516194  0.20869394331136698  1.0000
  Zn  Zn8       1.0  0.9294743597726621  0.22399615035712372  0.7913047551428678  1.0000
  H   H1        1.0  0.1347543892806938  0.5185380956463915  0.04964368791150508  1.0000
  H   H2        1.0  0.865239639397103  0.4814607920034674  0.9503555429983879  1.0000
  H   H3        1.0  0.8652107813461782  0.9503954960485003  0.4813715104285448  1.0000
  H   H4        1.0  0.13478826421871298  0.0496022071867657  0.5186264932798537  1.0000
  H   H5        1.0  0.8874289379046587  0.3840313403793943  0.07973568619785021  1.0000
  H   H6        1.0  0.8110993456570839  0.3812887662673462  0.0009325767663171234  1.0000
  H   H7        1.0  0.8012730359241473  0.2939397042604313  0.003927843125545483  1.0000
  H   H8        1.0  0.8435947861172791  0.31445900613908156  0.9097805478348493  1.0000
  H   H9        1.0  0.9204753215072045  0.31902399186424907  0.9886620191895549  1.0000
  H   H10       1.0  0.1888968150824227  0.6187083769029372  0.9990680231503718  1.0000
  H   H11       1.0  0.11256785922077481  0.6159669577292773  0.9202644684683464  1.0000
  H   H12       1.0  0.1987244002960011  0.7060597523594936  0.996073305248558  1.0000
  H   H13       1.0  0.07952108553177348  0.6809754683826912  0.011338735589930583  1.0000
  H   H14       1.0  0.15640169371812368  0.6855387156913509  0.09022030910939789  1.0000
  H   H15       1.0  0.11240404313289089  0.9201168689793348  0.6158962318499306  1.0000
  H   H16       1.0  0.18879138419438868  0.99893630457175  0.6187189493838546  1.0000
  H   H17       1.0  0.1985469508948228  0.9958687216052908  0.7060307289214904  1.0000
  H   H18       1.0  0.1563000921914437  0.0900741191281682  0.6855718472757744  1.0000
  H   H19       1.0  0.07936181751784939  0.0111789956934203  0.6809170471734235  1.0000
  H   H20       1.0  0.8112081067763909  0.0010631400303325012  0.38128106756828845  1.0000
  H   H21       1.0  0.8875962806214375  0.07988315127843042  0.38410375927427537  1.0000
  H   H22       1.0  0.8014528600747822  0.0041313028478882005  0.2939700247110012  1.0000
  H   H23       1.0  0.9206374752494355  0.9888210258094575  0.3190815910505692  1.0000
  H   H24       1.0  0.8436991996729118  0.9099259011837474  0.31442631129541354  1.0000
  C   C1        1.0  0.9995703486059496  0.889446509818896  0.388478090548908  1.0000
  C   C2        1.0  0.0004285014642420093  0.11055177389002321  0.6115199733897327  1.0000
  C   C3        1.0  0.00043663732584071853  0.6115202653817705  0.11056350649904796  1.0000
  C   C4        1.0  0.9995619516766823  0.3884803467449344  0.8894383527274742  1.0000
  C   C5        1.0  0.7798301338459408  0.6391429971947317  0.13929405946749523  1.0000
  C   C6        1.0  0.22016706632827973  0.3608494908993265  0.8607005856291536  1.0000
  C   C7        1.0  0.2201711036481272  0.8607087932869677  0.3608495237793719  1.0000
  C   C8        1.0  0.779834807806246  0.13929294543871862  0.6391525299504794  1.0000
  C   C9        1.0  2.4997921955216545e-06  0.8590796742778081  0.14092552068763087  1.0000
  C   C10       1.0  0.9999977547774318  0.1409220891602772  0.8590762868830171  1.0000
  C   C11       1.0  0.999998556028224  0.6408391784190856  0.3591560045953913  1.0000
  C   C12       1.0  4.782473205027794e-06  0.35916256937414204  0.6408450651479144  1.0000
  C   C13       1.0  4.101252670823708e-06  0.5970401533788207  0.40296059212385416  1.0000
  C   C14       1.0  5.313593327038901e-06  0.40296114641016345  0.5970454760153174  1.0000
  C   C15       1.0  6.706284132603062e-06  0.5596574542835456  0.44034405311666097  1.0000
  C   C16       1.0  9.616226798042683e-06  0.44035076663663386  0.5596614836089984  1.0000
  C   C17       1.0  9.045392196911421e-06  0.5188061413395743  0.4812013625277629  1.0000
  C   C18       1.0  9.609189802997452e-06  0.48119976058213604  0.5188078812384659  1.0000
  C   C19       1.0  0.02409890050798678  0.4939736564041581  0.06621455910865841  1.0000
  C   C20       1.0  0.9758963573603339  0.5060246530998073  0.9337874034296124  1.0000
  C   C21       1.0  0.9758203636808673  0.9337561470812336  0.5059679179238614  1.0000
  C   C22       1.0  0.024178805485220806  0.06624271528783511  0.4940304030423306  1.0000
  C   C23       1.0  0.07465233901358202  0.5108922357595348  0.026983231235824648  1.0000
  C   C24       1.0  0.925342914340085  0.4891060677896634  0.9730163330384445  1.0000
  C   C25       1.0  0.9253310831815185  0.9730412384304047  0.48906008495769987  1.0000
  C   C26       1.0  0.07466808508163332  0.026957622747716  0.5109377563556947  1.0000
  C   C27       1.0  0.998084329317976  0.44475578216140127  0.9470171214425919  1.0000
  C   C28       1.0  0.0019096993598211414  0.555243105488458  0.052982109467301024  1.0000
  C   C29       1.0  0.001900072533132404  0.05296890149744371  0.555244965339142  1.0000
  C   C30       1.0  0.9980990966329558  0.9470299608716247  0.44475335562705015  1.0000
  C   C31       1.0  0.9464000100326828  0.42679579455968764  0.9860209285089429  1.0000
  C   C32       1.0  0.05359433774100357  0.5732036717503278  0.013978559428501553  1.0000
  C   C33       1.0  0.0535303813626129  0.013909608138746402  0.5731978722546316  1.0000
  C   C34       1.0  0.946468787803468  0.9860892542303218  0.4268004487115605  1.0000
  C   C35       1.0  0.3072706759354988  0.9035813122271323  0.4044488022502933  1.0000
  C   C36       1.0  0.6927372376588609  0.09641751454849869  0.5955509456589712  1.0000
  C   C37       1.0  0.6927288989232211  0.5955363977465141  0.09642188335700301  1.0000
  C   C38       1.0  0.3072608789954785  0.40444917102986017  0.9035730963558424  1.0000
  C   C39       1.0  0.38151956902708417  0.9406263403587333  0.441244961925115  1.0000
  C   C40       1.0  0.6184847180539917  0.059372466955693384  0.5587404577773823  1.0000
  C   C41       1.0  0.6184837022176383  0.5587358448508652  0.05937892098648236  1.0000
  C   C42       1.0  0.3815201701572377  0.4412612615891761  0.9406207936674634  1.0000
  C   C43       1.0  0.4626640076460263  0.9812347094118297  0.48148719986850347  1.0000
  C   C44       1.0  0.537344204276792  0.0187646686320093  0.5185017730539203  1.0000
  C   C45       1.0  0.5373373518307715  0.5185003020714518  0.018764805218943123  1.0000
  C   C46       1.0  0.4626546453122701  0.4814892982707022  0.9812242992419727  1.0000
  C   C47       1.0  4.437977374230277e-06  0.9029285419392326  0.09707973864767891  1.0000
  C   C48       1.0  5.464656141007796e-07  0.0970722008433853  0.9029273760022607  1.0000
  C   C49       1.0  0.9999965618949461  0.9403243889221291  0.059673467574235556  1.0000
  C   C50       1.0  2.7068541190546724e-07  0.059676786490641114  0.9403187480873926  1.0000
  C   C51       1.0  1.6577610039625745e-06  0.9811954985493401  0.018809145873646477  1.0000
  C   C52       1.0  2.541091475901377e-06  0.018807561364084804  0.9811962910860647  1.0000
  C   C53       1.0  0.8877499522023127  0.34861257982290544  0.9725039933643984  1.0000
  C   C54       1.0  0.844701792538423  0.35248078139947847  0.016840614754734425  1.0000
  C   C55       1.0  0.1122463285266663  0.6513857177173678  0.027495005198893793  1.0000
  C   C56       1.0  0.1552958373705593  0.6475180923648834  0.983159514083525  1.0000
  C   C57       1.0  0.11212339553469519  0.027357673250826095  0.6513677188703612  1.0000
  C   C58       1.0  0.15515646910522923  0.9830041284660639  0.6474913331074816  1.0000
  C   C59       1.0  0.8878766073178709  0.9726417659648802  0.3486310559206913  1.0000
  C   C60       1.0  0.8448430209626137  0.0169953149450635  0.3525082041918638  1.0000
  N   N1        1.0  0.054552328590880036  0.4862546777324114  0.13809096618858518  1.0000
  N   N2        1.0  0.9454417719804127  0.5137424703099925  0.8619078872332652  1.0000
  N   N3        1.0  0.9452680926989032  0.8618517765320918  0.5136135260230787  1.0000
  N   N4        1.0  0.054730760983012786  0.13814651194064706  0.48638645652675905  1.0000
  O   O1        1.0  1.966785504335805e-06  0.7493511349439927  0.25064739737768343  1.0000
  O   O2        1.0  0.9999997052458907  0.25064946034689933  0.7493532443686917  1.0000
  O   O3        1.0  0.05737203849749762  0.877794379420429  0.41669789932726786  1.0000
  O   O4        1.0  0.9426284025375009  0.12220679163446137  0.5832990514851348  1.0000
  O   O5        1.0  0.9426283834423261  0.5833037091230511  0.12220725486501055  1.0000
  O   O6        1.0  0.05736929907729401  0.41669806457352376  0.8777940483718824  1.0000
  O   O7        1.0  0.8134466558566159  0.7118720736247256  0.16024098004382376  1.0000
  O   O8        1.0  0.18655028144407743  0.28812274050521586  0.8397565010351045  1.0000
  O   O9        1.0  0.18655140347509303  0.8397693004749627  0.28812195594746015  1.0000
  O   O10       1.0  0.8134505665634747  0.16023651063384398  0.7118795354075405  1.0000
  O   O11       1.0  0.9524543676111249  0.8504692123006805  0.1665389333180372  1.0000
  O   O12       1.0  0.04754659704379092  0.14953196885024772  0.8334630108196779  1.0000
  O   O13       1.0  0.04755188244708841  0.8334672585812088  0.14953156763465356  1.0000
  O   O14       1.0  0.95244689843841  0.1665327683080307  0.8504683127504225  1.0000
  O   O15       1.0  0.047723192597970934  0.7140872520155102  0.39834315855750896  1.0000
  O   O16       1.0  0.9522775693387899  0.2859145000814395  0.6016550085880468  1.0000
  O   O17       1.0  0.952269188073501  0.6016504076781998  0.28590733116020334  1.0000
  O   O18       1.0  0.0477295973266507  0.3983496251658067  0.7140949474888743  1.0000
  O   O19       1.0  0.8141931236558406  0.600766999539765  0.1516198655721013  1.0000
  O   O20       1.0  0.18580721306081927  0.3992283728416481  0.848375216095839  1.0000
  O   O21       1.0  0.18581235075525637  0.8483801493260757  0.39922951359684333  1.0000
  O   O22       1.0  0.8141946433938613  0.15162448689576993  0.6007745877790713  1.0000
  O   O23       1.0  0.9436958196436435  0.8582316941930017  0.31787036359478554  1.0000
  O   O24       1.0  0.05630053297882402  0.14176486373980882  0.6821282574804715  1.0000
  O   O25       1.0  0.05630399417418631  0.682125781420801  0.14177170361468674  1.0000
  O   O26       1.0  0.9436985897577086  0.3178736594459579  0.8582323720381169  1.0000
  O   O27       1.0  0.0627940955384858  0.42979722668358994  0.13310881382303558  1.0000
  O   O28       1.0  0.07063750440288181  0.5357577206707591  0.19753969368956353  1.0000
  O   O29       1.0  0.9372045554252822  0.5702016327351701  0.8668873917346503  1.0000
  O   O30       1.0  0.9293515477594028  0.4642330746962672  0.8024586199540809  1.0000
  O   O31       1.0  0.9369287030527005  0.8668112482170617  0.570019491137579  1.0000
  O   O32       1.0  0.9292258906509402  0.8024201842979579  0.46413031291528734  1.0000
  O   O33       1.0  0.0630695632422018  0.1331887804856819  0.42998019245018787  1.0000
  O   O34       1.0  0.07077470681210232  0.19757752421536887  0.5358725980602443  1.0000
