data_image0
_chemical_formula_structural       Zr6H44C59O32
_chemical_formula_sum              "Zr6 H44 C59 O32"
_cell_length_a       14.773750948442267
_cell_length_b       14.755979012748755
_cell_length_c       14.755263388473876
_cell_angle_alpha    60.06986886309993
_cell_angle_beta     60.02799018502462
_cell_angle_gamma    60.067406380779644

_space_group_name_H-M_alt    "P 1"
_space_group_IT_number       1

loop_
  _space_group_symop_operation_xyz
  'x, y, z'

loop_
  _atom_site_type_symbol
  _atom_site_label
  _atom_site_symmetry_multiplicity
  _atom_site_fract_x
  _atom_site_fract_y
  _atom_site_fract_z
  _atom_site_occupancy
  Zr  Zr1       1.0  0.878049065401463  0.8838776385397153  0.6153475414920208  1.0000
  Zr  Zr2       1.0  0.11863497872809596  0.1216424329193089  0.37988334940602897  1.0000
  Zr  Zr3       1.0  0.11671971747793436  0.8811719260489355  0.6191567966945399  1.0000
  Zr  Zr4       1.0  0.8801085721696892  0.12246134925457845  0.3767528056065854  1.0000
  Zr  Zr5       1.0  0.11996972301960088  0.883464769493493  0.3772861215537872  1.0000
  Zr  Zr6       1.0  0.8789950106369986  0.12227045958563568  0.6172453801946886  1.0000
  H   H1        1.0  0.09455880462139973  0.7197302141581974  0.5909318139674582  1.0000
  H   H2        1.0  0.09644250138566686  0.09634649136499718  0.21490531572666063  1.0000
  H   H3        1.0  0.09174719873030304  0.09370890433771006  0.5961182426630458  1.0000
  H   H4        1.0  0.7161633817669895  0.09822104156209133  0.5892617442811812  1.0000
  H   H5        1.0  0.8233063329288298  0.6302570015651343  0.5848052212524877  1.0000
  H   H6        1.0  0.17417179064155155  0.5454187137000162  0.4131691346966945  1.0000
  H   H7        1.0  0.8291562582863107  0.45686639397476386  0.5847599181883751  1.0000
  H   H8        1.0  0.596140108228951  0.8430770412067685  0.9313722439205421  1.0000
  H   H9        1.0  0.5806959559131571  0.1551484158614755  0.8996801553001887  1.0000
  H   H10       1.0  0.42589382132439346  0.8501986154498768  0.10124132103428701  1.0000
  H   H11       1.0  0.16697194374854987  0.889770361231754  0.051150937261375866  1.0000
  H   H12       1.0  0.8232778862989887  0.0892848510570446  0.13224240104511137  1.0000
  H   H13       1.0  0.15827619130895684  0.8923155751420354  0.8840416126399898  1.0000
  H   H14       1.0  0.5849967251993322  0.4241662520221966  0.6403143974745759  1.0000
  H   H15       1.0  0.6037729401372117  0.4290698805958544  0.33853261403476853  1.0000
  H   H16       1.0  0.414077834999091  0.593147956917946  0.6356183342470415  1.0000
  H   H17       1.0  0.02971430289300513  0.5641132571035783  0.7243510579859134  1.0000
  H   H18       1.0  0.07463594767804703  0.38500305651311345  0.7130845111870343  1.0000
  H   H19       1.0  0.037222241421702135  0.22670962081795656  0.0601170755454277  1.0000
  H   H20       1.0  0.078597313968409  0.21475978144496824  0.8825651187575403  1.0000
  H   H21       1.0  0.5920115445021494  0.13607511934144145  0.3370688232960646  1.0000
  H   H22       1.0  0.5925460682351797  0.8568228303308701  0.637119943299531  1.0000
  H   H23       1.0  0.42110771517062057  0.12865399784060125  0.34636679425965156  1.0000
  H   H24       1.0  0.2292417311208439  0.2633782524994502  0.45891372613190373  1.0000
  H   H25       1.0  0.2278943991593961  0.3520153712440433  0.3244230617983418  1.0000
  H   H26       1.0  0.2823770207446047  0.3742401396532742  0.39296468367840015  1.0000
  H   H27       1.0  0.4495867932650341  0.2516212937487269  0.013390042308110073  1.0000
  H   H28       1.0  0.31547323972629465  0.23772249787926109  0.0811507512807381  1.0000
  H   H29       1.0  0.40616830876781035  0.17056344085681724  0.15647707667272934  1.0000
  H   H30       1.0  0.7738966887407202  0.18439109225536757  0.9008242793229825  1.0000
  H   H31       1.0  0.7590623163876129  0.05565794319861803  0.9490467664748578  1.0000
  H   H32       1.0  0.7122401754137968  0.12134827796510454  0.04580241611809297  1.0000
  H   H33       1.0  0.3456464989402122  0.6078775129887929  0.3262315554918656  1.0000
  H   H34       1.0  0.4262135615463688  0.6941889561140187  0.2534919898921542  1.0000
  H   H35       1.0  0.48726970139739473  0.5581349442181391  0.24486540385488795  1.0000
  H   H36       1.0  0.4682459246507517  0.7695933473452429  0.7294113224019013  1.0000
  H   H37       1.0  0.32984466207684443  0.8546104974883234  0.7301153164060137  1.0000
  H   H38       1.0  0.4094106173342311  0.7659996240416335  0.6511880695543865  1.0000
  H   H39       1.0  0.8447385792425166  0.5771395578004287  0.2403082577365651  1.0000
  H   H40       1.0  0.9426442861173285  0.4442015547615553  0.2805838507913449  1.0000
  H   H41       1.0  0.9820011725260681  0.564164542908323  0.20805397874772058  1.0000
  H   H42       1.0  0.9842094804195228  0.7226669999521107  0.043161907225240236  1.0000
  H   H43       1.0  0.9209254396033798  0.7895782677760083  0.9408736953142662  1.0000
  H   H44       1.0  0.8441740457682911  0.7384387998723483  0.08300116815568968  1.0000
  C   C1        1.0  0.9973322067255951  0.701505076247443  0.4933173553267804  1.0000
  C   C2        1.0  0.3080524585913054  0.0020604062773089014  0.19726719028907516  1.0000
  C   C3        1.0  0.999627009938422  0.30685527221437786  0.49818885848100075  1.0000
  C   C4        1.0  0.6969645038780926  0.9998442317462447  0.8034864897766025  1.0000
  C   C5        1.0  0.989720410048207  0.702238821380142  0.8056479677350267  1.0000
  C   C6        1.0  0.6999206217127636  0.0003430684017972934  0.48864535020792477  1.0000
  C   C7        1.0  0.9946934394069374  0.3103748742392797  0.19743588851321173  1.0000
  C   C8        1.0  0.30683334938837675  0.9949241896991908  0.49752562401133815  1.0000
  C   C9        1.0  0.30862716767541104  0.7028867332740134  0.4920035122525589  1.0000
  C   C10       1.0  0.9911280019160529  0.9953605534907553  0.8096748192941374  1.0000
  C   C11       1.0  0.7012192582127382  0.3126183964469364  0.49268576727252616  1.0000
  C   C12       1.0  0.9986733148587564  0.9957029529329589  0.1970160707356853  1.0000
  C   C13       1.0  0.004392254231817102  0.4052598091875198  0.4987876291832052  1.0000
  C   C14       1.0  0.9985715301342708  0.5984598731640317  0.4962675226763549  1.0000
  C   C15       1.0  0.10490065637243622  0.42698861102719843  0.451123558455663  1.0000
  C   C16       1.0  0.9005707447872666  0.5736925958135756  0.5471541423391456  1.0000
  C   C17       1.0  0.09878227345851796  0.5251710891184516  0.450072131946733  1.0000
  C   C18       1.0  0.9041762065889782  0.47775366478963127  0.5473796592636331  1.0000
  C   C19       1.0  0.40930880573468187  0.00526868961667766  0.09633253069867455  1.0000
  C   C20       1.0  0.5978357733745338  0.999390075687032  0.9062328737733194  1.0000
  C   C21       1.0  0.4518617086833174  0.0940150804680755  0.04042483940641259  1.0000
  C   C22       1.0  0.5553885351080721  0.9120789689334433  0.9623746953243  1.0000
  C   C23       1.0  0.5460836412280939  0.08814149917079568  0.9456348860465056  1.0000
  C   C24       1.0  0.4617010574540926  0.9161542520079279  0.056318287806412376  1.0000
  C   C25       1.0  0.9866170947073057  0.9929228425304827  0.9142770305953503  1.0000
  C   C26       1.0  0.995410144821065  0.9917753215912838  0.09967788504617635  1.0000
  C   C27       1.0  0.8886895227699018  0.04798558082468682  0.9851220910232924  1.0000
  C   C28       1.0  0.09056862129745707  0.9339191418285964  0.0315223875990326  1.0000
  C   C29       1.0  0.8964195430870633  0.046745677652225516  0.07645060415480731  1.0000
  C   C30       1.0  0.08538576044674077  0.9354636795311534  0.9393699671342476  1.0000
  C   C31       1.0  0.41320555823737953  0.6054882281499233  0.48498330576047977  1.0000
  C   C32       1.0  0.6031477811131011  0.41649319600701784  0.48964072765259903  1.0000
  C   C33       1.0  0.46656980829948935  0.5609581249983293  0.3978658055391975  1.0000
  C   C34       1.0  0.5514140622007275  0.4628313107691326  0.5735751441979388  1.0000
  C   C35       1.0  0.5610438557298423  0.46639556180011243  0.40322315681438425  1.0000
  C   C36       1.0  0.45721892420566973  0.5563147421360811  0.5705510670560442  1.0000
  C   C37       1.0  0.9866233049839936  0.6020581747662489  0.9083085606225435  1.0000
  C   C38       1.0  0.011965749280442077  0.4996699179079159  0.8987418512710335  1.0000
  C   C39       1.0  0.9603190141580386  0.6108977300326117  0.00860403401192382  1.0000
  C   C40       1.0  0.03486279621527185  0.49006562118638913  0.7975419781852864  1.0000
  C   C41       1.0  0.05880173804607133  0.3897528929211589  0.7914531957485167  1.0000
  C   C42       1.0  0.9910221075211041  0.412699036696594  0.09697497080764338  1.0000
  C   C43       1.0  0.9630758420835973  0.5137921443537508  0.10521468793290006  1.0000
  C   C44       1.0  0.014001255155278473  0.402585327375725  0.995562750678971  1.0000
  C   C45       1.0  0.038982029724039156  0.3004856405761842  0.9863974234824083  1.0000
  C   C46       1.0  0.06095479511931497  0.293910341410637  0.8869378052756289  1.0000
  C   C47       1.0  0.41081266705053576  0.9895675322351137  0.49704066838657435  1.0000
  C   C48       1.0  0.601303888706056  0.9965271856806909  0.48772596295956533  1.0000
  C   C49       1.0  0.45867678766795444  0.9097275040267832  0.5811878439874858  1.0000
  C   C50       1.0  0.5544632837887206  0.07365554302899108  0.4041145229343924  1.0000
  C   C51       1.0  0.5538134976845582  0.9158827691614277  0.5736019702585934  1.0000
  C   C52       1.0  0.4600646162356766  0.06934574771664606  0.4096005324996596  1.0000
  C   C53       1.0  0.21702780158409493  0.3501185695986565  0.4045640149410374  1.0000
  C   C54       1.0  0.40312703590092974  0.1940385268577387  0.07445921624634606  1.0000
  C   C55       1.0  0.7774718408530534  0.10516654833382694  0.96960056474402  1.0000
  C   C56       1.0  0.42958153947509475  0.6075016865346542  0.3003030522335378  1.0000
  C   C57       1.0  0.41443810927503205  0.8199828494855484  0.6782229055550814  1.0000
  C   C58       1.0  0.9318566778419921  0.5245314627135187  0.21428832376157186  1.0000
  C   C59       1.0  0.9258591407288889  0.7211093528713377  0.018768906554661863  1.0000
  O   O1        1.0  0.9181544328451993  0.7432668512039554  0.5680235366283454  1.0000
  O   O2        1.0  0.2653950546650137  0.07756333858545623  0.2398318351115734  1.0000
  O   O3        1.0  0.07407922597061399  0.2676720880088936  0.42003969830074067  1.0000
  O   O4        1.0  0.7343286414419339  0.924272694481772  0.7628616160670986  1.0000
  O   O5        1.0  0.0687898243639181  0.7387027589610398  0.7664341150758461  1.0000
  O   O6        1.0  0.7374311853913511  0.07916481569161248  0.4133026592441664  1.0000
  O   O7        1.0  0.9192291067682136  0.26904446664806164  0.2365469522845911  1.0000
  O   O8        1.0  0.26320797753961506  0.9208759613297917  0.574643401622211  1.0000
  O   O9        1.0  0.2657487335842886  0.7441554836825833  0.41713476906647157  1.0000
  O   O10       1.0  0.9176520338362407  0.07429577751712903  0.7664132282724977  1.0000
  O   O11       1.0  0.738973580247574  0.2716386561345135  0.5714746595892776  1.0000
  O   O12       1.0  0.07852577173877509  0.9220098384680497  0.23354643153138707  1.0000
  O   O13       1.0  0.07035647810668172  0.9200031401657895  0.7685078558155212  1.0000
  O   O14       1.0  0.7389323662017943  0.2710445590125943  0.4177271164384919  1.0000
  O   O15       1.0  0.9222753475937466  0.07358338296312193  0.23544209112746017  1.0000
  O   O16       1.0  0.2669972489291438  0.737966169938126  0.5729199592534825  1.0000
  O   O17       1.0  0.9144424857905162  0.7422508049496981  0.7639894245020784  1.0000
  O   O18       1.0  0.26684489925641935  0.07463333855908875  0.42170881980100455  1.0000
  O   O19       1.0  0.07272547944526056  0.27113231210282857  0.23515450145707453  1.0000
  O   O20       1.0  0.7383787830520916  0.9249881542592108  0.5667972112130854  1.0000
  O   O21       1.0  0.7364556601637914  0.07726344385516634  0.7628913841743525  1.0000
  O   O22       1.0  0.07614971368887767  0.7389725673073785  0.4179893147779906  1.0000
  O   O23       1.0  0.26932241560771075  0.9249608481923703  0.2343517649560096  1.0000
  O   O24       1.0  0.9213830011302947  0.26903837967461197  0.5746214471554935  1.0000
  O   O25       1.0  0.7964924095556115  0.07106965773829886  0.5631278332927961  1.0000
  O   O26       1.0  0.06537186067129132  0.06850395955069641  0.5673012956252351  1.0000
  O   O27       1.0  0.06769017335695787  0.0701454216176884  0.29529446287895667  1.0000
  O   O28       1.0  0.06570600082933728  0.8000893326035693  0.5649511915451199  1.0000
  O   O29       1.0  0.1477096705217279  0.9524914404240192  0.44943136852673854  1.0000
  O   O30       1.0  0.9503184808149496  0.9531834186592575  0.4463097714447031  1.0000
  O   O31       1.0  0.9495518254616897  0.15161696230629237  0.4481139681722936  1.0000
  O   O32       1.0  0.9477192254488781  0.9525474549153686  0.6469737669139016  1.0000
