data_image0
_chemical_formula_structural       CuH32C40N16Cl2O2
_chemical_formula_sum              "Cu1 H32 C40 N16 Cl2 O2"
_cell_length_a       7.966415610704943
_cell_length_b       7.891673568372996
_cell_length_c       16.82727740681947
_cell_angle_alpha    79.46422814635142
_cell_angle_beta     79.39000779124221
_cell_angle_gamma    68.9937549922039

_space_group_name_H-M_alt    "P 1"
_space_group_IT_number       1

loop_
  _space_group_symop_operation_xyz
  'x, y, z'

loop_
  _atom_site_type_symbol
  _atom_site_label
  _atom_site_symmetry_multiplicity
  _atom_site_fract_x
  _atom_site_fract_y
  _atom_site_fract_z
  _atom_site_occupancy
  Cu  Cu1       1.0  3.907655767005264e-06  0.9999953842151115  1.05058204981583e-06  1.0000
  H   H1        1.0  0.49073670607967296  0.33591894392713334  0.42678969785164617  1.0000
  H   H2        1.0  0.5092763859490931  0.6640853989473713  0.5732087137137328  1.0000
  H   H3        1.0  0.5898936021379556  0.23354958798043407  0.290008379645144  1.0000
  H   H4        1.0  0.4101162863980222  0.7664492193308092  0.7099908701689445  1.0000
  H   H5        1.0  0.08732906813607862  0.608885037127713  0.21102298215790682  1.0000
  H   H6        1.0  0.9126774762262286  0.39111235436388364  0.7889767121652655  1.0000
  H   H7        1.0  0.9871687862484464  0.7091567963062885  0.3472382447999821  1.0000
  H   H8        1.0  0.012824802177433987  0.29082260925075337  0.6527649997932414  1.0000
  H   H9        1.0  0.5550308702894853  0.2865840292464341  0.146876036825951  1.0000
  H   H10       1.0  0.4449847521960281  0.7134207113054744  0.8531280499409135  1.0000
  H   H11       1.0  0.3338772090898132  0.2835363386582728  0.139799891198173  1.0000
  H   H12       1.0  0.6661526931850331  0.7164600454161345  0.8601989627212067  1.0000
  H   H13       1.0  0.1317620681207501  0.5468547413430471  0.051440652174314  1.0000
  H   H14       1.0  0.8682665702100963  0.4531414073178013  0.9485547731294873  1.0000
  H   H15       1.0  0.4103704354465025  0.9195248319930371  0.0344357032046005  1.0000
  H   H16       1.0  0.5896310415086887  0.0804843281670387  0.9655769652235692  1.0000
  H   H17       1.0  0.723641684095327  0.9971556059294358  0.503283172459206  1.0000
  H   H18       1.0  0.2763157443910488  0.002839575574391505  0.49671764932841  1.0000
  H   H19       1.0  0.46129933114447413  0.2222282708198122  0.5765360080352125  1.0000
  H   H20       1.0  0.5386770198552073  0.7777715990675843  0.42346797704450984  1.0000
  H   H21       1.0  0.7126914558889865  0.029227651809002015  0.797173805137959  1.0000
  H   H22       1.0  0.28732296679940816  0.9707874057354998  0.20281867170511708  1.0000
  H   H23       1.0  0.9726860635782799  0.8065047982263707  0.724368548206563  1.0000
  H   H24       1.0  0.027315517339346177  0.19351378051930376  0.27561761745337077  1.0000
  H   H25       1.0  0.446805165561706  0.3378760058402435  0.7766904708402722  1.0000
  H   H26       1.0  0.5531875261913939  0.6621172365985969  0.22331327348988592  1.0000
  H   H27       1.0  0.3235528029351328  0.3760467061366555  0.6929141660744664  1.0000
  H   H28       1.0  0.6764386581958917  0.6239577310913446  0.30709215268804974  1.0000
  H   H29       1.0  0.05796021064027462  0.9100613049239427  0.8191540162327443  1.0000
  H   H30       1.0  0.9420423344935286  0.0899290208141608  0.18084436184195607  1.0000
  H   H31       1.0  0.26334746312356583  0.2507841527643109  0.90810425602308  1.0000
  H   H32       1.0  0.7366496563225268  0.7492036133229121  0.09189903070021904  1.0000
  C   C1        1.0  0.17953882785369746  0.589467830027438  0.47595747452883336  1.0000
  C   C2        1.0  0.8204477014853637  0.41053202127585564  0.5240432067038938  1.0000
  C   C3        1.0  0.2321887319830793  0.5274267827053549  0.3964321438184585  1.0000
  C   C4        1.0  0.7678230319548052  0.47256677234944516  0.603571020439553  1.0000
  C   C5        1.0  0.40152659036009186  0.39235942702219256  0.3796317661807365  1.0000
  C   C6        1.0  0.5984680832543389  0.6076502897450667  0.6203695772291982  1.0000
  C   C7        1.0  0.45787717029871544  0.3377430675662366  0.302284830724922  1.0000
  C   C8        1.0  0.5421339834656321  0.662255938583705  0.6977172566899058  1.0000
  C   C9        1.0  0.34631812055718575  0.41591191935874144  0.24057891000334308  1.0000
  C   C10       1.0  0.6536860724886752  0.5840922386151347  0.75941914184655  1.0000
  C   C11       1.0  0.17589918268482319  0.5475300269126818  0.258358616796194  1.0000
  C   C12       1.0  0.8241113224465623  0.4524631464291248  0.7416387547868768  1.0000
  C   C13       1.0  0.11851097395398112  0.6040454811631902  0.33516207092480244  1.0000
  C   C14       1.0  0.8814847460047234  0.3959460229546607  0.6648350293839372  1.0000
  C   C15       1.0  0.40935086079202426  0.36387398342301214  0.15510838707274394  1.0000
  C   C16       1.0  0.5906696781447421  0.6361234008028802  0.8448870599682295  1.0000
  C   C17       1.0  0.22703738055894007  0.6127920127347934  0.05737421701235953  1.0000
  C   C18       1.0  0.772979810351032  0.3872040653960269  0.9426234475822144  1.0000
  C   C19       1.0  0.37562412170861154  0.7957054621012245  0.04881284305286472  1.0000
  C   C20       1.0  0.6243890062108334  0.2043102378262844  0.9511903895307725  1.0000
  C   C21       1.0  0.01812672638814674  0.7533919181634089  0.5699919738813579  1.0000
  C   C22       1.0  0.9818502989319525  0.24661305303498446  0.4300049067333377  1.0000
  C   C23       1.0  0.8653806725474452  0.8887803649700743  0.6094228426506307  1.0000
  C   C24       1.0  0.13459902391028328  0.11122088416210833  0.3905801069051692  1.0000
  C   C25       1.0  0.7204993195825153  0.005105326246180701  0.5675788356182423  1.0000
  C   C26       1.0  0.27947686768933977  0.9948869405832567  0.43241402455520733  1.0000
  C   C27       1.0  0.5731270053704662  0.1290444584571091  0.6086130260965704  1.0000
  C   C28       1.0  0.4268426983100396  0.8709637905445647  0.39139430496022953  1.0000
  C   C29       1.0  0.5681709166972694  0.139083597343614  0.6912800403005337  1.0000
  C   C30       1.0  0.43181547966715067  0.8609201542541598  0.3087167011035348  1.0000
  C   C31       1.0  0.7137498228827964  0.024041193804336614  0.7326380750955794  1.0000
  C   C32       1.0  0.28624565417357656  0.9759698337040207  0.26736187672249667  1.0000
  C   C33       1.0  0.8609460399342912  0.8994317257635985  0.6922690606531675  1.0000
  C   C34       1.0  0.139056574483881  0.1005690060812299  0.307718772053967  1.0000
  C   C35       1.0  0.40587564663287173  0.270620962364795  0.7357376749671405  1.0000
  C   C36       1.0  0.5941169506050059  0.7293874642718022  0.26426576852293954  1.0000
  C   C37       1.0  0.1302186838069161  0.0029272428143798136  0.8201073302347057  1.0000
  C   C38       1.0  0.8697797085737805  0.9970605026624  0.1798952480002924  1.0000
  C   C39       1.0  0.23365374777398526  0.1738346616518101  0.8683754073589114  1.0000
  C   C40       1.0  0.7663470485106814  0.8261571989225589  0.13162595117471915  1.0000
  N   N1        1.0  0.26604563460225716  0.5308468126625526  0.5402178249798197  1.0000
  N   N2        1.0  0.7339566701979621  0.4691629633163501  0.4597822225745389  1.0000
  N   N3        1.0  0.16269712504179515  0.6371042052963746  0.600666906879191  1.0000
  N   N4        1.0  0.8372915345457201  0.36290778114258876  0.3993282210838844  1.0000
  N   N5        1.0  0.2901800773437486  0.17423492155204906  0.7879349514186701  1.0000
  N   N6        1.0  0.7098190265324219  0.8257692457138787  0.21206475235471348  1.0000
  N   N7        1.0  0.2253465388418974  0.0666115633660596  0.7561087666396986  1.0000
  N   N8        1.0  0.7746503505455922  0.9333953603630999  0.24389146144454096  1.0000
  N   N9        1.0  0.13179133855828698  0.06538862714959491  0.8903742432370267  1.0000
  N   N10       1.0  0.8682056427756706  0.9346031855315289  0.10962746771697605  1.0000
  N   N11       1.0  0.3745177677050648  0.5291927801155225  0.09612001315652921  1.0000
  N   N12       1.0  0.6255037025107909  0.4708021608564294  0.9038803461806001  1.0000
  N   N13       1.0  0.4707529381421907  0.6442739834263378  0.0914363539586418  1.0000
  N   N14       1.0  0.5292667780870417  0.3557226386813068  0.9085693498967801  1.0000
  N   N15       1.0  0.2237970974379521  0.7830729435548067  0.027208162648342683  1.0000
  N   N16       1.0  0.7762135842649798  0.21692746709639005  0.9727944236926122  1.0000
  Cl  Cl1       1.0  0.8770637150483083  0.7729633959141111  0.9335880964184042  1.0000
  Cl  Cl2       1.0  0.12294536362386306  0.2270342835303154  0.06641550006173703  1.0000
  O   O1        1.0  0.01986419041934781  0.7308556354626178  0.4907462929115526  1.0000
  O   O2        1.0  0.9801253235284051  0.26913133991582316  0.5092464693705239  1.0000
