data_image0
_chemical_formula_structural       Zn4H32C60S8N4O16
_chemical_formula_sum              "Zn4 H32 C60 S8 N4 O16"
_cell_length_a       13.872038351661665
_cell_length_b       14.180711327250151
_cell_length_c       14.102
_cell_angle_alpha    86.93691411260349
_cell_angle_beta     70.52848928223867
_cell_angle_gamma    70.86108576114039

_space_group_name_H-M_alt    "P 1"
_space_group_IT_number       1

loop_
  _space_group_symop_operation_xyz
  'x, y, z'

loop_
  _atom_site_type_symbol
  _atom_site_label
  _atom_site_symmetry_multiplicity
  _atom_site_fract_x
  _atom_site_fract_y
  _atom_site_fract_z
  _atom_site_occupancy
  Zn  Zn1       1.0  0.13728672961548938  0.17403875230584734  0.8641374932584257  1.0000
  Zn  Zn2       1.0  0.3626204050964787  0.136040252743534  0.8261118770518154  1.0000
  Zn  Zn3       1.0  0.8627142108333458  0.8259614019139434  0.13586204825553233  1.0000
  Zn  Zn4       1.0  0.6373807665953491  0.8639613973035054  0.17388750826064855  1.0000
  H   H1        1.0  0.45266906483745106  0.09142570926655941  0.2955122945583355  1.0000
  H   H2        1.0  0.047377937959041126  0.7022505052560035  0.9084419404985837  1.0000
  H   H3        1.0  0.5473321422920563  0.908573697039607  0.7044843632214893  1.0000
  H   H4        1.0  0.9526207086767755  0.2977496489637872  0.0915583531620569  1.0000
  H   H5        1.0  0.49030179932201184  0.0897197182910503  0.4669607403487888  1.0000
  H   H6        1.0  0.010591170797511023  0.5313028799566339  0.910072985274006  1.0000
  H   H7        1.0  0.5097018974258205  0.9102834275832309  0.5330341910191194  1.0000
  H   H8        1.0  0.9894095384083312  0.4686957784359081  0.08992600332216942  1.0000
  H   H9        1.0  0.0171489157021085  0.18045285954212895  0.22692336997251772  1.0000
  H   H10       1.0  0.4816569137975577  0.774833278688746  0.8198658444389223  1.0000
  H   H11       1.0  0.982848166287354  0.8195495384185351  0.773078025294062  1.0000
  H   H12       1.0  0.5183399015112328  0.2251698671855422  0.18013701632324344  1.0000
  H   H13       1.0  0.0586079891850488  0.1719206609237176  0.39794983912921833  1.0000
  H   H14       1.0  0.44110775143517605  0.6043717972447382  0.8281271002250606  1.0000
  H   H15       1.0  0.9413891636797728  0.8280772495552  0.602051774026279  1.0000
  H   H16       1.0  0.5588911264436335  0.39562985280230123  0.1718723281148158  1.0000
  H   H17       1.0  0.7834159720956677  0.3024996483874816  0.7868027683380561  1.0000
  H   H18       1.0  0.7172533168390984  0.21364377033172843  0.6967156993351155  1.0000
  H   H19       1.0  0.216582674540156  0.6975005058323092  0.21319752532258457  1.0000
  H   H20       1.0  0.2827460944010553  0.7863563838880625  0.3032850527292368  1.0000
  H   H21       1.0  0.9559675287606949  0.30929444365818887  0.8028224246922733  1.0000
  H   H22       1.0  0.5446778158088037  0.19774686626139734  0.69008463118724  1.0000
  H   H23       1.0  0.04403161579878662  0.6907064584752192  0.19717766550984092  1.0000
  H   H24       1.0  0.4553223600356943  0.8022532879583864  0.30991587016155364  1.0000
  H   H25       1.0  0.016231475632295704  0.0332941228696626  0.9247685188556858  1.0000
  H   H26       1.0  0.4832810944474274  0.0747352688415575  0.9672223206565108  1.0000
  H   H27       1.0  0.9837694648165396  0.9667060313501281  0.07523173177754927  1.0000
  H   H28       1.0  0.5167188147163911  0.9252656332918577  0.03277822794931501  1.0000
  H   H29       1.0  0.8463010034223615  0.0144609099129482  0.9176371794445116  1.0000
  H   H30       1.0  0.6529947803018812  0.0818957938742244  0.986125639327817  1.0000
  H   H31       1.0  0.15369967034580156  0.98553999222046  0.08236382756502539  1.0000
  H   H32       1.0  0.34700539554261667  0.9181043603455663  0.013874862020969776  1.0000
  C   C1        1.0  0.1992475708801322  0.1598635453971227  0.04144989438213289  1.0000
  C   C2        1.0  0.2999364864365005  0.9583899797689528  0.8401487100691585  1.0000
  C   C3        1.0  0.8007579571947262  0.840136608822661  0.9585495610769923  1.0000
  C   C4        1.0  0.7000651831789924  0.0416124181917112  0.15985118090404873  1.0000
  C   C5        1.0  0.3012499205431992  0.1475476517567529  0.6510921779111386  1.0000
  C   C6        1.0  0.1997000957796898  0.3490453048406792  0.8523834104331415  1.0000
  C   C7        1.0  0.6987650494643987  0.8524517545494064  0.3489042217042027  1.0000
  C   C8        1.0  0.8003039030864941  0.6509548493791115  0.14761654645710823  1.0000
  C   C9        1.0  0.3161512780348942  0.1421589340984752  0.5431754471440728  1.0000
  C   C10       1.0  0.18479585503552437  0.45658630895566443  0.8576230124856823  1.0000
  C   C11       1.0  0.6838535208733063  0.8578389763804426  0.4568229497365266  1.0000
  C   C12       1.0  0.8152035562046291  0.5434138452641264  0.14237632134012304  1.0000
  C   C13       1.0  0.27881868258617  0.1455492265544081  0.3828946264342862  1.0000
  C   C14       1.0  0.2214019744531939  0.6169285190719123  0.85426963148916  1.0000
  C   C15       1.0  0.721181830814352  0.8544456922700194  0.6171053364271091  1.0000
  C   C16       1.0  0.7785964055019503  0.3830723830614957  0.1457292911899657  1.0000
  C   C17       1.0  0.18652565029842802  0.1629247558586542  0.14876286590324383  1.0000
  C   C18       1.0  0.3125239933419621  0.8514772230978168  0.837113526106741  1.0000
  C   C19       1.0  0.8134714671287142  0.8370753983611297  0.851238638307798  1.0000
  C   C20       1.0  0.6874715594388191  0.1485251748628471  0.16289120706806412  1.0000
  C   C21       1.0  0.3892949004028807  0.1145781233997525  0.36881702662739  1.0000
  C   C22       1.0  0.11107272426686167  0.6298158187207434  0.8852074969622523  1.0000
  C   C23       1.0  0.6107073734493155  0.8854182912519164  0.6311808603628465  1.0000
  C   C24       1.0  0.8889274515776294  0.3701843354990473  0.11479229526726438  1.0000
  C   C25       1.0  0.41004766251365504  0.1129080322781775  0.46026314101465726  1.0000
  C   C26       1.0  0.09078720546495594  0.5385000527568522  0.8868346872262195  1.0000
  C   C27       1.0  0.5899568697138803  0.8870906261143645  0.5397324666458873  1.0000
  C   C28       1.0  0.9092127391365497  0.46149860563568984  0.11316526120479146  1.0000
  C   C29       1.0  0.22649250009995112  0.1550200567704749  0.30855154400455836  1.0000
  C   C30       1.0  0.2732784494571731  0.6915875007238627  0.8448919555578274  1.0000
  C   C31       1.0  0.7735064840918966  0.8449748620539453  0.6914496294072381  1.0000
  C   C32       1.0  0.7267199304979712  0.3084134014095525  0.1551076762405756  1.0000
  C   C33       1.0  0.09589649166517229  0.17180623013930332  0.23268900584389485  1.0000
  C   C34       1.0  0.4030887738546767  0.7685687541771955  0.828348488618552  1.0000
  C   C35       1.0  0.9041001278382979  0.828193176166863  0.7673119927063966  1.0000
  C   C36       1.0  0.5969088414961303  0.23143214795621966  0.17165423037251068  1.0000
  C   C37       1.0  0.11828833049641219  0.1675206850758855  0.3234595173257803  1.0000
  C   C38       1.0  0.38118339829761533  0.6779253625609556  0.8325299869186438  1.0000
  C   C39       1.0  0.8817108849384281  0.8324757295757905  0.676540790765252  1.0000
  C   C40       1.0  0.6188144482961846  0.3220770353997082  0.16747044851310733  1.0000
  C   C41       1.0  0.8326980013362757  0.240874557454589  0.817676587728272  1.0000
  C   C42       1.0  0.6677786713196098  0.18249316790739561  0.7586657157737734  1.0000
  C   C43       1.0  0.16730167658455028  0.7591248488515774  0.18232340795977825  1.0000
  C   C44       1.0  0.3322230337335626  0.817506986312388  0.24133428414388902  1.0000
  C   C45       1.0  0.9276718585948486  0.24574422305806823  0.8266783872873092  1.0000
  C   C46       1.0  0.5727431341010458  0.1735570959322246  0.7538276195642625  1.0000
  C   C47       1.0  0.07232755264531217  0.7542559311617225  0.17332165565776594  1.0000
  C   C48       1.0  0.4272565438197872  0.8264423103739347  0.24617308524305775  1.0000
  C   C49       1.0  0.9605294073447936  0.09152592969212492  0.8967346540074105  1.0000
  C   C50       1.0  0.5392137995475607  0.10298396640618533  0.9086644719547365  1.0000
  C   C51       1.0  0.03947076849970448  0.9084742245276658  0.10326513822210613  1.0000
  C   C52       1.0  0.4607858783732651  0.8970154398999739  0.09133623285258358  1.0000
  C   C53       1.0  0.8660638062388626  0.081699092591208  0.8916745715786832  1.0000
  C   C54       1.0  0.6336735309363347  0.1080024668207713  0.9185139937243394  1.0000
  C   C55       1.0  0.13393663628630748  0.9183003137149583  0.1083258825130784  1.0000
  C   C56       1.0  0.3663276761931725  0.891996939485395  0.0814862096518567  1.0000
  C   C57       1.0  0.8002249486597818  0.15738495964840385  0.8506564809458084  1.0000
  C   C58       1.0  0.6999137032319851  0.1492356928052985  0.8424648949895399  1.0000
  C   C59       1.0  0.19977625846972566  0.8426144466577625  0.14934372243038752  1.0000
  C   C60       1.0  0.300085974688848  0.8507637135008679  0.1575351006985102  1.0000
  S   S1        1.0  0.2989028267347535  0.1505983914275575  0.18185458324746412  1.0000
  S   S2        1.0  0.20068870206025483  0.8172138041719279  0.8492514094109539  1.0000
  S   S3        1.0  0.7010951261720848  0.8493972753104941  0.818146179017653  1.0000
  S   S4        1.0  0.7993089132905523  0.18278709796148726  0.1507506004608387  1.0000
  S   S5        1.0  0.20200396665423173  0.17254741254032524  0.5089547142520773  1.0000
  S   S6        1.0  0.29857118398480503  0.4918997986091327  0.8272645518391216  1.0000
  S   S7        1.0  0.7979993739206535  0.8274460104568533  0.49104652930638787  1.0000
  S   S8        1.0  0.7014289918596859  0.508100355610658  0.172733822151848  1.0000
  N   N1        1.0  0.9907017180667451  0.1719363671098151  0.8651320161847311  1.0000
  N   N2        1.0  0.5093620470183211  0.1348428430320965  0.8279529205892402  1.0000
  N   N3        1.0  0.009298955701417807  0.8280645350236001  0.13486757258625912  1.0000
  N   N4        1.0  0.490638893430514  0.8651573111876943  0.17204591180544074  1.0000
  O   O1        1.0  0.11695047868594338  0.1654743934016238  0.0168800900188018  1.0000
  O   O2        1.0  0.38226668307594747  0.9829409923783388  0.8347370708120253  1.0000
  O   O3        1.0  0.8830479721445599  0.834522021250045  0.9831183414299717  1.0000
  O   O4        1.0  0.6177258112874853  0.0170614055823251  0.16526228315156288  1.0000
  O   O5        1.0  0.3857863843277798  0.12261445528569233  0.6768530570421093  1.0000
  O   O6        1.0  0.11495723572245  0.3232407889980777  0.8774217829252678  1.0000
  O   O7        1.0  0.6142211000040659  0.877390934329462  0.3231419300420769  1.0000
  O   O8        1.0  0.8850401483853645  0.6767586173080816  0.12258109226728922  1.0000
  O   O9        1.0  0.29441240769163096  0.14988189017611833  0.9806651763102465  1.0000
  O   O10       1.0  0.20515956005952768  0.0187733798668219  0.8499106794614449  1.0000
  O   O11       1.0  0.7055841409364872  0.8501220036117944  0.019337731708958427  1.0000
  O   O12       1.0  0.794833200984577  0.9812282701802177  0.1500886272451112  1.0000
  O   O13       1.0  0.20310029330150312  0.1762017185053963  0.7103042701778506  1.0000
  O   O14       1.0  0.2976770034890493  0.2903228666811088  0.8238728546438168  1.0000
  O   O15       1.0  0.7969062306206922  0.8237999315416431  0.28969761484131623  1.0000
  O   O16       1.0  0.7023203451810857  0.7096787833659306  0.1761292024850008  1.0000
