data_image0
_chemical_formula_structural       Zn3P4H30C24N4O16
_chemical_formula_sum              "Zn3 P4 H30 C24 N4 O16"
_cell_length_a       6.498345481967578
_cell_length_b       11.313987224851436
_cell_length_c       13.715472212731981
_cell_angle_alpha    109.39946130551438
_cell_angle_beta     90.02211437592152
_cell_angle_gamma    106.65804715958821

_space_group_name_H-M_alt    "P 1"
_space_group_IT_number       1

loop_
  _space_group_symop_operation_xyz
  'x, y, z'

loop_
  _atom_site_type_symbol
  _atom_site_label
  _atom_site_symmetry_multiplicity
  _atom_site_fract_x
  _atom_site_fract_y
  _atom_site_fract_z
  _atom_site_occupancy
  Zn  Zn1       1.0  0.7043020270080832  0.785777480575476  0.7241766410627689  1.0000
  Zn  Zn2       1.0  0.9184396468936811  0.21432148052736008  0.2759046372741095  1.0000
  Zn  Zn3       1.0  0.4044705884602919  0.9998815329463255  0.9999839967019284  1.0000
  P   P1        1.0  0.23526103039795745  0.8565401689424093  0.7735666234208834  1.0000
  P   P2        1.0  0.3787354374974258  0.1434311932813088  0.22637649140619936  1.0000
  P   P3        1.0  0.6547384989289711  0.08385491305279659  0.8269369824912473  1.0000
  P   P4        1.0  0.5711760177872663  0.9159485088208043  0.1729631359556193  1.0000
  H   H1        1.0  0.542144065396549  0.45091508814888204  0.34923372564383465  1.0000
  H   H2        1.0  0.09129878241625988  0.5491544939036288  0.6508793509123691  1.0000
  H   H3        1.0  0.7706452730956456  0.9236968150770366  0.5537927861007502  1.0000
  H   H4        1.0  0.8472325008862852  0.07637225483092891  0.4461870919361813  1.0000
  H   H5        1.0  0.7463652811242485  0.8517910876288114  0.357167717961147  1.0000
  H   H6        1.0  0.8940107513151859  0.14820755652006312  0.642836843473546  1.0000
  H   H7        1.0  0.6229588615468346  0.6110632159218525  0.25530167122805375  1.0000
  H   H8        1.0  0.01136616060252753  0.3889394401883237  0.7447840346886565  1.0000
  H   H9        1.0  0.6031234694140863  0.5589063861151545  0.812273171119614  1.0000
  H   H10       1.0  0.043768984966355624  0.44116324817210983  0.18784626422822015  1.0000
  H   H11       1.0  0.38787841634165693  0.19769945080393825  0.5473514308515277  1.0000
  H   H12       1.0  0.19024726285471885  0.8025057147555688  0.45269089778103216  1.0000
  H   H13       1.0  0.4559007618636386  0.30935651334485936  0.7411781429429495  1.0000
  H   H14       1.0  0.14619544853666613  0.6907250619290578  0.25885810727763203  1.0000
  H   H15       1.0  0.4523039212622066  0.33086784285270443  0.433777097407244  1.0000
  H   H16       1.0  0.12159122422090711  0.6693275914447908  0.5663109729146214  1.0000
  H   H17       1.0  0.6950643150787954  0.8396850431452165  0.9418993250190725  1.0000
  H   H18       1.0  0.8546726553179981  0.16013990237072312  0.05808406439030019  1.0000
  H   H19       1.0  0.92248837327427  0.8331805373754195  0.8983931251443522  1.0000
  H   H20       1.0  0.08872979003417925  0.16673956812005036  0.10158396400964878  1.0000
  H   H21       1.0  0.6733146948998937  0.28891460674882546  0.8806672019099577  1.0000
  H   H22       1.0  0.3844315484378953  0.7110225909601765  0.11932551664299498  1.0000
  H   H23       1.0  0.2059406888196095  0.9842780046380426  0.6168061681062013  1.0000
  H   H24       1.0  0.2220479310060099  0.015566147719695798  0.3830383092613445  1.0000
  H   H25       1.0  0.4325842136307472  0.9238777176102319  0.6049258748414202  1.0000
  H   H26       1.0  0.5089696591386499  0.0759985195647701  0.3949742009305409  1.0000
  H   H27       1.0  0.4742478587348912  0.0957850694850251  0.6387099660075248  1.0000
  H   H28       1.0  0.3790081986631791  0.9040944211623911  0.3610968395385612  1.0000
  H   H29       1.0  0.11240251502921692  0.0785674398662195  0.7996079018629699  1.0000
  H   H30       1.0  0.03416966593023559  0.9214796106386058  0.20030742490333603  1.0000
  C   C1        1.0  0.58872790537162  0.5562644582063784  0.3923140617569628  1.0000
  C   C2        1.0  0.03243357121176877  0.4438117163563434  0.6078026409767787  1.0000
  C   C3        1.0  0.7177942944794397  0.8200942181719739  0.5045197842587327  1.0000
  C   C4        1.0  0.897830592997771  0.1799748122522615  0.4954956020098109  1.0000
  C   C5        1.0  0.5650731217992656  0.516445496663401  0.5634863352834855  1.0000
  C   C6        1.0  0.04857157064824242  0.4837271867232361  0.43665153986753313  1.0000
  C   C7        1.0  0.7041673217839064  0.7801128330551207  0.3965509640764181  1.0000
  C   C8        1.0  0.923798073368225  0.21988930534990916  0.6034731156344009  1.0000
  C   C9        1.0  0.60673961862976  0.6045634949747836  0.5013769022651502  1.0000
  C   C10       1.0  0.002103402850139042  0.3955528585710297  0.49873895566036447  1.0000
  C   C11       1.0  0.6361405224827977  0.6453819899525542  0.33987995855128617  1.0000
  C   C12       1.0  0.9904769308919014  0.35463261327259943  0.660199247892038  1.0000
  C   C13       1.0  0.5674035746977637  0.5028960353940023  0.7291002099466652  1.0000
  C   C14       1.0  0.06431078951852245  0.4972436845804823  0.2710264743319186  1.0000
  C   C15       1.0  0.4505793833696927  0.3042679215523805  0.5818239469758949  1.0000
  C   C16       1.0  0.1463545993317723  0.6959165279099295  0.4182551579298987  1.0000
  C   C17       1.0  0.4887075370266346  0.36612978437960214  0.689407956859263  1.0000
  C   C18       1.0  0.12244915694507351  0.6340189393725952  0.31069382838291654  1.0000
  C   C19       1.0  0.4883188780532706  0.37918167378154527  0.517618075670299  1.0000
  C   C20       1.0  0.10923918274539089  0.6210075357093884  0.4824697082132585  1.0000
  C   C21       1.0  0.3733815966468299  0.020932560128841305  0.7640181612187648  1.0000
  C   C22       1.0  0.352723061207101  0.979007361139438  0.23584265696152326  1.0000
  C   C23       1.0  0.3729623803581816  0.0055455649190961015  0.6486946487346684  1.0000
  C   C24       1.0  0.3678128445012946  0.9943433755032132  0.35112921467132446  1.0000
  N   N1        1.0  0.6049948571158694  0.5754038764666021  0.667504502692239  1.0000
  N   N2        1.0  0.029354465022556994  0.424730566972947  0.33262022092853977  1.0000
  N   N3        1.0  0.6673987202023002  0.7349164917512427  0.5555799511474717  1.0000
  N   N4        1.0  0.9326031145675701  0.26520055695014116  0.4444860566242639  1.0000
  O   O1        1.0  0.7971867412009958  0.011771545186327599  0.7604312126956927  1.0000
  O   O2        1.0  0.7857866859813926  0.9879524566668184  0.23942058104184133  1.0000
  O   O3        1.0  0.022878357574334915  0.801783247368384  0.7037789444258493  1.0000
  O   O4        1.0  0.22094621276617232  0.19808503998606133  0.29609758287030985  1.0000
  O   O5        1.0  0.3864331158253053  0.7732891443371628  0.7383780556157972  1.0000
  O   O6        1.0  0.6130142842453024  0.22674468164506575  0.2617347210428207  1.0000
  O   O7        1.0  0.18780375839656227  0.8802328921165099  0.888926067413216  1.0000
  O   O8        1.0  0.30777119696063693  0.11978658274158255  0.11099769791848497  1.0000
  O   O9        1.0  0.7621953434927776  0.7960831905634863  0.8815856928452418  1.0000
  O   O10       1.0  0.9654110923425423  0.20373779997841976  0.11840789074484087  1.0000
  O   O11       1.0  0.7417632767660437  0.23425966908764212  0.8287864982317855  1.0000
  O   O12       1.0  0.5076426259754143  0.765536051075877  0.17116540209411815  1.0000
  O   O13       1.0  0.6528106897663406  0.0912673198926086  0.9404590383515767  1.0000
  O   O14       1.0  0.5617577621667281  0.9084835444004896  0.05942826297865613  1.0000
  O   O15       1.0  0.27045029828290973  0.11725527969799288  0.8188996781162529  1.0000
  O   O16       1.0  0.15351139383645337  0.8827649629083967  0.18094915996690727  1.0000
