data_image0
_chemical_formula_structural       Zn2H28C44S2N6O8
_chemical_formula_sum              "Zn2 H28 C44 S2 N6 O8"
_cell_length_a       10.057816258032206
_cell_length_b       11.268929362529956
_cell_length_c       11.213311787487122
_cell_angle_alpha    83.05013579940865
_cell_angle_beta     63.33762249850662
_cell_angle_gamma    63.46320162417433

_space_group_name_H-M_alt    "P 1"
_space_group_IT_number       1

loop_
  _space_group_symop_operation_xyz
  'x, y, z'

loop_
  _atom_site_type_symbol
  _atom_site_label
  _atom_site_symmetry_multiplicity
  _atom_site_fract_x
  _atom_site_fract_y
  _atom_site_fract_z
  _atom_site_occupancy
  Zn  Zn1       1.0  0.18481278979178492  0.49978119763421347  0.4998526183731898  1.0000
  Zn  Zn2       1.0  0.9787504898404578  0.00018772778488339892  0.9999938794974312  1.0000
  H   H1        1.0  0.3570765470365206  0.31263510158552776  0.22056740587514395  1.0000
  H   H2        1.0  0.8899294567718387  0.6880508891370168  0.7795839975557401  1.0000
  H   H3        1.0  0.3317092994343442  0.547509265520766  0.06489913063195019  1.0000
  H   H4        1.0  0.9439697145665277  0.45316168354889186  0.9348504161127948  1.0000
  H   H5        1.0  0.5134149509950207  0.6321560201143726  0.8865757107796952  1.0000
  H   H6        1.0  0.03206929071065909  0.36814032087982435  0.11322910034323289  1.0000
  H   H7        1.0  0.8200148221332028  0.48987138614071324  0.766513457568422  1.0000
  H   H8        1.0  0.07600621517079273  0.510311610539283  0.23349402069653993  1.0000
  H   H9        1.0  0.9499554052343413  0.25939993294766583  0.8255137049519091  1.0000
  H   H10       1.0  0.03421235690181872  0.7407756425269055  0.17478213998122527  1.0000
  H   H11       1.0  0.6670754786824062  0.1386980062907668  0.35509234289908426  1.0000
  H   H12       1.0  0.1605258600057628  0.8609339895096183  0.6446906956599107  1.0000
  H   H13       1.0  0.44475494033684265  0.2044124230568727  0.4331894269245353  1.0000
  H   H14       1.0  0.08108673012974807  0.7959490235066012  0.5670156284074038  1.0000
  H   H15       1.0  0.834642564343554  0.8961096150048176  0.37028706769501685  1.0000
  H   H16       1.0  0.10055637829046306  0.10377233623557908  0.629711494130099  1.0000
  H   H17       1.0  0.6139291724138191  0.7485478323637835  0.7458021423394997  1.0000
  H   H18       1.0  0.10866478678838828  0.2512856753569821  0.2539309962658862  1.0000
  H   H19       1.0  0.31134583971039115  0.101473022485095  0.6265468552805232  1.0000
  H   H20       1.0  0.039499402509463384  0.8986618296783888  0.3729743518256329  1.0000
  H   H21       1.0  0.2737215525940899  0.6796663124337883  0.2612370842048008  1.0000
  H   H22       1.0  0.2142919687604419  0.3201159776245319  0.7387723941108177  1.0000
  H   H23       1.0  0.4848085408298672  0.7684331173078363  0.16159799108935854  1.0000
  H   H24       1.0  0.4140697693416656  0.23147691227478623  0.8389343673210448  1.0000
  H   H25       1.0  0.695094834411414  0.705990432979803  0.2498019792461363  1.0000
  H   H26       1.0  0.650433730878973  0.2937182369498217  0.750730240999502  1.0000
  H   H27       1.0  0.8104500908971705  0.5744347126945825  0.40936767048939493  1.0000
  H   H28       1.0  0.7939769961772357  0.42491746746625125  0.5914046003017006  1.0000
  C   C1        1.0  0.6059082376374931  0.163230210785855  0.1357502006405369  1.0000
  C   C2        1.0  0.9043805380117292  0.8373669061651371  0.8645176083037283  1.0000
  C   C3        1.0  0.5396792290262625  0.3578128557428358  0.049669367531471685  1.0000
  C   C4        1.0  0.9468736155334129  0.64272308470413  0.9503949551458177  1.0000
  C   C5        1.0  0.4652074780119337  0.4862638109052285  0.015951660171388864  1.0000
  C   C6        1.0  0.9673154504505916  0.5142133234969039  0.9838879234635979  1.0000
  C   C7        1.0  0.569674094401549  0.5318365499249821  0.913935984111717  1.0000
  C   C8        1.0  0.015429446829294619  0.46841539978090213  0.0858202790528679  1.0000
  C   C9        1.0  0.7423892137057067  0.45104275292921164  0.8466595897597458  1.0000
  C   C10       1.0  0.0398352453322418  0.5491639909812206  0.15328563226798045  1.0000
  C   C11       1.0  0.8169751822927793  0.3221722884188337  0.8786460932995368  1.0000
  C   C12       1.0  0.01738798276377208  0.6780528453305834  0.12146958955070628  1.0000
  C   C13       1.0  0.7134661335321653  0.2762042772785733  0.9827417010472814  1.0000
  C   C14       1.0  0.9720068679752747  0.7242320865857649  0.017413637013177736  1.0000
  C   C15       1.0  0.5622590709719333  0.11403309887679569  0.39112020614495435  1.0000
  C   C16       1.0  0.06671511203651927  0.8861033698035422  0.6088987788943641  1.0000
  C   C17       1.0  0.5726390831437413  0.0120193391269794  0.4897404222949221  1.0000
  C   C18       1.0  0.07410003424720948  0.9880044027517483  0.5101345925744312  1.0000
  C   C19       1.0  0.7267175547339875  0.9052599904582409  0.4633087369568899  1.0000
  C   C20       1.0  0.09513670307634922  0.09462517290237568  0.536558139911314  1.0000
  C   C21       1.0  0.7432948939711395  0.8115113512709515  0.5559823500740536  1.0000
  C   C22       1.0  0.11084969989287428  0.1883174507688423  0.4438280231641798  1.0000
  C   C23       1.0  0.6034433718868971  0.8213121019706549  0.6732331834358405  1.0000
  C   C24       1.0  0.09821278432185923  0.17859274352060334  0.3265275362084523  1.0000
  C   C25       1.0  0.44674348075264475  0.9232558702621387  0.6968838195969909  1.0000
  C   C26       1.0  0.06701541331385392  0.07679654674459609  0.30289919230754947  1.0000
  C   C27       1.0  0.43269844922981815  0.019680324040997694  0.6057932359467202  1.0000
  C   C28       1.0  0.05812075448861982  0.9803905075377698  0.39398120873610043  1.0000
  C   C29       1.0  0.9114174290897242  0.7019243163628417  0.522811610652873  1.0000
  C   C30       1.0  0.13620995945940714  0.29781519848891236  0.4769867037412893  1.0000
  C   C31       1.0  0.29611066706046807  0.924811979368968  0.8177960008655418  1.0000
  C   C32       1.0  0.03918119602901272  0.0752055994430307  0.1818430898246532  1.0000
  C   C33       1.0  0.36694882136458085  0.6541372694257815  0.29658203470703626  1.0000
  C   C34       1.0  0.3175043436343828  0.3454290635676073  0.703439507512698  1.0000
  C   C35       1.0  0.47158620692214737  0.5411844586265459  0.4456718176374821  1.0000
  C   C36       1.0  0.45881498309535124  0.4579555680129559  0.5541779169912361  1.0000
  C   C37       1.0  0.48583000373548685  0.703723093360729  0.24188275481824914  1.0000
  C   C38       1.0  0.43100456315839625  0.2959424659095831  0.7584421188910467  1.0000
  C   C39       1.0  0.6010571166896459  0.6693700948506489  0.2907280561221197  1.0000
  C   C40       1.0  0.5608375430021582  0.33015889453442077  0.7096549484802565  1.0000
  C   C41       1.0  0.5975798057464065  0.5846837538233273  0.39498869186024876  1.0000
  C   C42       1.0  0.5772823332349617  0.414584405031043  0.6051912730229673  1.0000
  C   C43       1.0  0.713603567165265  0.5410467335257678  0.4502291377283711  1.0000
  C   C44       1.0  0.7048613099578206  0.45825791151232664  0.5502635950442424  1.0000
  S   S1        1.0  0.580678092715445  0.040873643269669906  0.2422462252594216  1.0000
  S   S2        1.0  0.8632835613347473  0.9597842225724803  0.7580538433394252  1.0000
  N   N1        1.0  0.750377939686267  0.15595590300861772  0.03908311821605542  1.0000
  N   N2        1.0  0.9448969953785854  0.8445504511903932  0.9611742710969434  1.0000
  N   N3        1.0  0.4764161911315412  0.2823120541892337  0.14389572065258704  1.0000
  N   N4        1.0  0.9023154749325145  0.7182941196886719  0.8562200884441964  1.0000
  N   N5        1.0  0.3595713416657988  0.5755876963148268  0.39611189365994204  1.0000
  N   N6        1.0  0.33154049072298636  0.42368093133590873  0.6036647403215126  1.0000
  O   O1        1.0  0.023990254474057445  0.6773500966303061  0.404349244503102  1.0000
  O   O2        1.0  0.10600514539582664  0.3221762125544103  0.595390580834092  1.0000
  O   O3        1.0  0.9418450645158386  0.6313489365111524  0.6168894307351778  1.0000
  O   O4        1.0  0.18985949641685818  0.3685963046293566  0.38301736683450827  1.0000
  O   O5        1.0  0.313156060038743  0.8404858406824547  0.8998751736262919  1.0000
  O   O6        1.0  0.05456244203518424  0.15926897875283433  0.09959500261711436  1.0000
  O   O7        1.0  0.15325529016926248  0.015172406312863996  0.827040833858689  1.0000
  O   O8        1.0  0.9955627790065694  0.9851191873173163  0.1727362915615344  1.0000
