data_image0
_chemical_formula_structural       Cr2H18C16N2O8
_chemical_formula_sum              "Cr2 H18 C16 N2 O8"
_cell_length_a       7.1973855741437
_cell_length_b       8.017187578819454
_cell_length_c       8.394632792932518
_cell_angle_alpha    103.92456767639537
_cell_angle_beta     99.35664616888391
_cell_angle_gamma    101.37727976930245

_space_group_name_H-M_alt    "P 1"
_space_group_IT_number       1

loop_
  _space_group_symop_operation_xyz
  'x, y, z'

loop_
  _atom_site_type_symbol
  _atom_site_label
  _atom_site_symmetry_multiplicity
  _atom_site_fract_x
  _atom_site_fract_y
  _atom_site_fract_z
  _atom_site_occupancy
  Cr  Cr1       1.0  0.401137064637389  0.9207147145869214  0.41202975821116883  1.0000
  Cr  Cr2       1.0  0.5988488213756896  0.07927941010419197  0.5879663054486457  1.0000
  H   H1        1.0  0.9543606726808989  0.8761734297854886  0.289532904720609  1.0000
  H   H2        1.0  0.0456400124797725  0.12382899390534868  0.7104457416974128  1.0000
  H   H3        1.0  0.71581076242699  0.48775227639417557  0.4058090084612189  1.0000
  H   H4        1.0  0.2841776613580507  0.5122455330987137  0.5942037913491021  1.0000
  H   H5        1.0  0.9386284991424462  0.653521192142904  0.5100040607650627  1.0000
  H   H6        1.0  0.061366268397868864  0.3464850847109202  0.4899830804681286  1.0000
  H   H7        1.0  0.780628872598804  0.5661252282254168  0.6282828026552423  1.0000
  H   H8        1.0  0.2193783292280926  0.4338900232732499  0.3717225132099031  1.0000
  H   H9        1.0  0.7125863952258766  0.08113173212677792  0.025041115366953175  1.0000
  H   H10       1.0  0.287437601068028  0.9188726295426974  0.974974495120854  1.0000
  H   H11       1.0  0.8171813738708947  0.29144633199765474  0.1775535618422595  1.0000
  H   H12       1.0  0.18282617777594368  0.7085646267074637  0.8224674240204449  1.0000
  H   H13       1.0  0.937936473147495  0.12005539534047929  0.17445727072857406  1.0000
  H   H14       1.0  0.06209297081409202  0.8799633467908095  0.8255733338164717  1.0000
  H   H15       1.0  0.3870259439399745  0.5452204722028713  0.1481553214960059  1.0000
  H   H16       1.0  0.6129753315471972  0.45476849773231004  0.851829623206278  1.0000
  H   H17       1.0  0.6372251672274415  0.7320314672173892  0.08450128661468169  1.0000
  H   H18       1.0  0.3627727132946887  0.26797090221957376  0.9154805444988271  1.0000
  C   C1        1.0  0.6822222417094534  0.7487850936465321  0.508430990271556  1.0000
  C   C2        1.0  0.31776259189576456  0.2512104512494275  0.49156051616708396  1.0000
  C   C3        1.0  0.6858369648494789  0.0909359534203844  0.2786434328739844  1.0000
  C   C4        1.0  0.31415989773720543  0.9090618201604102  0.7213704901029699  1.0000
  C   C5        1.0  0.08795074047662874  0.5465780949705065  0.061421344545699724  1.0000
  C   C6        1.0  0.9120512901355938  0.45341332813112706  0.9385750282477902  1.0000
  C   C7        1.0  0.9397506393993141  0.7559095329835869  0.1891390980889867  1.0000
  C   C8        1.0  0.06024824228464351  0.24408608450801952  0.8108471621253202  1.0000
  C   C9        1.0  0.7855710069479541  0.6049224248345483  0.5118895978558412  1.0000
  C   C10       1.0  0.21442337740814568  0.39507692946042994  0.4881112761753315  1.0000
  C   C11       1.0  0.7933558751879983  0.1472414791450731  0.1545109019157493  1.0000
  C   C12       1.0  0.2066594473279224  0.8527720352488898  0.8455153298416318  1.0000
  C   C13       1.0  0.2538560639061131  0.47761910097154475  0.05312723118014869  1.0000
  C   C14       1.0  0.7461435133615241  0.5223737041705763  0.946866769920625  1.0000
  C   C15       1.0  0.7603657487336973  0.6735157545988526  0.07275933436844179  1.0000
  C   C16       1.0  0.23963173477864785  0.3264798026535374  0.9272302977357825  1.0000
  N   N1        1.0  0.09937039264514169  0.6976383519268125  0.18466864089106133  1.0000
  N   N2        1.0  0.9006239155789117  0.3023558693013442  0.8153214277666692  1.0000
  O   O1        1.0  0.5210794840571111  0.7174454581560497  0.40154076341523387  1.0000
  O   O2        1.0  0.47891063794747163  0.2825485161298928  0.5984629799966044  1.0000
  O   O3        1.0  0.522761199941101  0.9735045179338186  0.22815036343980205  1.0000
  O   O4        1.0  0.47723270574296345  0.026482935259466003  0.7718451334857477  1.0000
  O   O5        1.0  0.2459278363433697  0.0961468083670383  0.3878592192704815  1.0000
  O   O6        1.0  0.7540657901225669  0.9038501148363237  0.6121290403080408  1.0000
  O   O7        1.0  0.24228087402638468  0.8389163905338322  0.563255307761338  1.0000
  O   O8        1.0  0.7577135892268742  0.16108807475310982  0.4367575580047358  1.0000
