data_image0
_chemical_formula_structural       Cu4H20C38N14O16
_chemical_formula_sum              "Cu4 H20 C38 N14 O16"
_cell_length_a       8.819422222981743
_cell_length_b       11.013917200895657
_cell_length_c       11.240164959359273
_cell_angle_alpha    80.77398930754791
_cell_angle_beta     71.86545525893978
_cell_angle_gamma    67.79030499834387

_space_group_name_H-M_alt    "P 1"
_space_group_IT_number       1

loop_
  _space_group_symop_operation_xyz
  'x, y, z'

loop_
  _atom_site_type_symbol
  _atom_site_label
  _atom_site_symmetry_multiplicity
  _atom_site_fract_x
  _atom_site_fract_y
  _atom_site_fract_z
  _atom_site_occupancy
  Cu  Cu1       1.0  0.1247366048784997  0.2932192572103531  0.17089764108379063  1.0000
  Cu  Cu2       1.0  0.87526389094117  0.7067784810681773  0.8290982294288299  1.0000
  Cu  Cu3       1.0  0.5196827339948838  0.38763031736127845  0.1222727348240653  1.0000
  Cu  Cu4       1.0  0.4803238313516402  0.6123664593138544  0.8777264909946608  1.0000
  H   H1        1.0  0.07634557093604845  0.6426300463244133  0.40098186127053737  1.0000
  H   H2        1.0  0.9236564832111753  0.35736961682317064  0.5990133765370728  1.0000
  H   H3        1.0  0.14299571658074223  0.9274341080025297  0.015182307495784616  1.0000
  H   H4        1.0  0.8570035941674443  0.07256861008385582  0.9848165688880854  1.0000
  H   H5        1.0  0.17680991786371436  0.13358889538756102  0.4223538938010734  1.0000
  H   H6        1.0  0.8231793871196016  0.8664199167323974  0.5776496325296208  1.0000
  H   H7        1.0  0.52562485019817  0.31569894677502935  0.4124604730285811  1.0000
  H   H8        1.0  0.47438038245280006  0.6843007970602955  0.5875394407480953  1.0000
  H   H9        1.0  0.27841963831535577  0.9941892622217741  0.5741544264225523  1.0000
  H   H10       1.0  0.7215714904223275  0.005815578394667403  0.4258475813942654  1.0000
  H   H11       1.0  0.26816350338955136  0.9231934849972138  0.7988936438945871  1.0000
  H   H12       1.0  0.7318300104017581  0.07680635683747283  0.20110511299747455  1.0000
  H   H13       1.0  0.32792467161173994  0.058521068378667  0.9283069257934145  1.0000
  H   H14       1.0  0.6720660136294183  0.9414768904957785  0.07169361071210285  1.0000
  H   H15       1.0  0.4602992224811259  0.1560863115847155  0.0035559488719841244  1.0000
  H   H16       1.0  0.5396899889592675  0.8439138165207253  0.9964525617299459  1.0000
  H   H17       1.0  0.3829841641904537  0.4459941603529743  0.7102964631296302  1.0000
  H   H18       1.0  0.6170310742253803  0.5539994894487706  0.289698800700215  1.0000
  H   H19       1.0  0.0922217596818199  0.8129115017842283  0.6118443185888367  1.0000
  H   H20       1.0  0.9077748552296112  0.1870863851556166  0.38815589450405247  1.0000
  C   C1        1.0  0.14185768378990823  0.9023429663955657  0.20884035621273253  1.0000
  C   C2        1.0  0.8581450857994993  0.09765889683993828  0.7911650711490664  1.0000
  C   C3        1.0  0.127893902933792  0.8188273133502906  0.3178398757017433  1.0000
  C   C4        1.0  0.8721054702873517  0.18117247948471524  0.682159459632622  1.0000
  C   C5        1.0  0.09003548690275658  0.706213874407979  0.31632702835807436  1.0000
  C   C6        1.0  0.9099626863362361  0.29378593740092646  0.6836725520298045  1.0000
  C   C7        1.0  0.07342079980530501  0.671042971512563  0.20822145283574395  1.0000
  C   C8        1.0  0.926586544704996  0.3289547675971038  0.7917774566304844  1.0000
  C   C9        1.0  0.09624817943678467  0.7506642072401349  0.09759956111412289  1.0000
  C   C10       1.0  0.9037574121839214  0.2493383242371294  0.9023944825824587  1.0000
  C   C11       1.0  0.12683221145905327  0.8656576705120855  0.10081620306712574  1.0000
  C   C12       1.0  0.8731628053300254  0.134349079960522  0.899185583792587  1.0000
  C   C13       1.0  0.1806293612008361  0.0273376228465878  0.1943050994141302  1.0000
  C   C14       1.0  0.8193705804627386  0.9726632012276611  0.8056966251325335  1.0000
  C   C15       1.0  0.15365184212869548  0.8492123992991129  0.43225101298320107  1.0000
  C   C16       1.0  0.846341460941268  0.1507875113402903  0.567750449473664  1.0000
  C   C17       1.0  0.0423396491053295  0.543968622639966  0.21597735133846646  1.0000
  C   C18       1.0  0.9576609943384041  0.45603112828623454  0.7840208370874536  1.0000
  C   C19       1.0  0.0867011434412249  0.7213474874988818  0.9736693219010704  1.0000
  C   C20       1.0  0.9133023285526601  0.2786541463875666  0.026327086911393877  1.0000
  C   C21       1.0  0.2565001594189553  0.19289973764245621  0.3918774223027839  1.0000
  C   C22       1.0  0.7434984417815826  0.8071011512755035  0.6081263510072574  1.0000
  C   C23       1.0  0.4367978837491079  0.2867314728808453  0.3856498322559432  1.0000
  C   C24       1.0  0.5632050894184742  0.713268263032461  0.6143487679178888  1.0000
  C   C25       1.0  0.35024051288403507  0.15924933953588297  0.5850925277863652  1.0000
  C   C26       1.0  0.6497553377742874  0.8407525458033976  0.4149107624767722  1.0000
  C   C27       1.0  0.3074933801401015  0.04799064097137061  0.6322684591583041  1.0000
  C   C28       1.0  0.6924997902164591  0.9520122178543178  0.36773344620299037  1.0000
  C   C29       1.0  0.3016515318291225  0.009555225715743606  0.7576488448023327  1.0000
  C   C30       1.0  0.6983407891232146  0.9904466936103234  0.2423542787664062  1.0000
  C   C31       1.0  0.3359643180859706  0.08275358354217133  0.8293538411845701  1.0000
  C   C32       1.0  0.6640382264957481  0.9172442314630872  0.17064604849569787  1.0000
  C   C33       1.0  0.3792338317952115  0.1909692049567654  0.7693316325229561  1.0000
  C   C34       1.0  0.6207630009807446  0.8090306716958509  0.2306699966283006  1.0000
  C   C35       1.0  0.4548478244473131  0.24593473210424582  0.9464677237368376  1.0000
  C   C36       1.0  0.5451502856944044  0.7540671611570391  0.0535368801291369  1.0000
  C   C37       1.0  0.417954653739919  0.39560685239374754  0.7939696056280424  1.0000
  C   C38       1.0  0.5820514056371237  0.6043859677907691  0.20602768992889503  1.0000
  N   N1        1.0  0.28054434366381986  0.2584032985315404  0.2831787695104638  1.0000
  N   N2        1.0  0.719454257536718  0.7415975903864194  0.7168250037995775  1.0000
  N   N3        1.0  0.39755209445016954  0.3163133642824505  0.2776182210765654  1.0000
  N   N4        1.0  0.6024496787352617  0.6836863906047556  0.7223806241507802  1.0000
  N   N5        1.0  0.3510354668891438  0.20848227334401773  0.45966260260976805  1.0000
  N   N6        1.0  0.648961162932956  0.7915205744297893  0.5403403713008572  1.0000
  N   N7        1.0  0.38925583025118715  0.22881026832573786  0.6494333969703021  1.0000
  N   N8        1.0  0.6107449530491209  0.7711885929316582  0.35056847017435183  1.0000
  N   N9        1.0  0.41388011969269917  0.27254220292168446  0.8348390627498148  1.0000
  N   N10       1.0  0.5861192535284445  0.7274575899133212  0.16516027258455065  1.0000
  N   N11       1.0  0.4852688875599823  0.34600594356653863  0.9714516151981556  1.0000
  N   N12       1.0  0.5147326820472741  0.653995938642865  0.028554057217149806  1.0000
  N   N13       1.0  0.4616327622437666  0.4410807284891548  0.8746730247557225  1.0000
  N   N14       1.0  0.5383761179159307  0.5589110723391288  0.12532385199318694  1.0000
  O   O1        1.0  0.06218402671833448  0.1312836080727209  0.2466313139564065  1.0000
  O   O2        1.0  0.9378144346256222  0.8687181705140432  0.7533687806349006  1.0000
  O   O3        1.0  0.3205987615019906  0.02715278133225501  0.12157235113585328  1.0000
  O   O4        1.0  0.6793982819953114  0.972847026515645  0.8784265724506072  1.0000
  O   O5        1.0  0.20167268296864183  0.9396880910391733  0.43649711541942077  1.0000
  O   O6        1.0  0.7983297133646872  0.060306867519422304  0.5635059387761457  1.0000
  O   O7        1.0  0.1193916693549253  0.7692911294566118  0.5323010951560434  1.0000
  O   O8        1.0  0.8806035277098515  0.23070478674437572  0.46769794693199873  1.0000
  O   O9        1.0  0.940993748806889  0.5139147429220402  0.3106922460423577  1.0000
  O   O10       1.0  0.05901373555998644  0.48608210651882194  0.6893103421425977  1.0000
  O   O11       1.0  0.1360373573463818  0.46962283954464834  0.12250066141795905  1.0000
  O   O12       1.0  0.8639652652432802  0.5303778548421791  0.8774969656019492  1.0000
  O   O13       1.0  0.9453663530201768  0.7105807496248175  0.9772725355863585  1.0000
  O   O14       1.0  0.05463859152583686  0.28941702743264847  0.0227268639868896  1.0000
  O   O15       1.0  0.2090499075203595  0.7173180340449365  0.8776600761648224  1.0000
  O   O16       1.0  0.7909569536986183  0.28268361172453643  0.12233830305190445  1.0000
