data_image0
_chemical_formula_structural       Zn2H30C54N6O12
_chemical_formula_sum              "Zn2 H30 C54 N6 O12"
_cell_length_a       9.701425576246118
_cell_length_b       16.554485603396124
_cell_length_c       17.018806030114433
_cell_angle_alpha    90.00656939099116
_cell_angle_beta     90.41242452832685
_cell_angle_gamma    86.91574167452275

_space_group_name_H-M_alt    "P 1"
_space_group_IT_number       1

loop_
  _space_group_symop_operation_xyz
  'x, y, z'

loop_
  _atom_site_type_symbol
  _atom_site_label
  _atom_site_symmetry_multiplicity
  _atom_site_fract_x
  _atom_site_fract_y
  _atom_site_fract_z
  _atom_site_occupancy
  Zn  Zn1       1.0  0.6408850667457954  0.9906763067861846  0.5043510702666723  1.0000
  Zn  Zn2       1.0  0.35936546084221277  0.009297968968624603  0.5032333777871756  1.0000
  H   H1        1.0  0.17382759051424304  0.8886582246486227  0.5003285513006049  1.0000
  H   H2        1.0  0.8262310289785689  0.111321444359902  0.500168846581289  1.0000
  H   H3        1.0  0.2800208231608039  0.2875892488651388  0.2150585411705919  1.0000
  H   H4        1.0  0.7186552714100002  0.7119350255162475  0.2171330957492046  1.0000
  H   H5        1.0  0.26948208284796493  0.7162415012657773  0.788101607077387  1.0000
  H   H6        1.0  0.7319371480151773  0.2841416012699511  0.7895457923496635  1.0000
  H   H7        1.0  0.7126217730048765  0.7182934571312813  0.7869966632007961  1.0000
  H   H8        1.0  0.28880578714834826  0.2820502810253984  0.7846826621002594  1.0000
  H   H9        1.0  0.7236819035238042  0.27728162886518243  0.213632494845676  1.0000
  H   H10       1.0  0.275016898394476  0.7222486514863178  0.2125476488997009  1.0000
  H   H11       1.0  0.2854767716276498  0.1840172688038137  0.3221942570842274  1.0000
  H   H12       1.0  0.713584858521038  0.8152962211015619  0.32446989206400195  1.0000
  H   H13       1.0  0.25656478227166696  0.8220348430639319  0.6829133134615404  1.0000
  H   H14       1.0  0.7449284873815002  0.1786274306361832  0.6841661708581981  1.0000
  H   H15       1.0  0.6986039683010004  0.823608888939944  0.6810235822430644  1.0000
  H   H16       1.0  0.3029327493520028  0.17698678720088878  0.6785960875340393  1.0000
  H   H17       1.0  0.7278249422149372  0.1718833177293746  0.3192943752054944  1.0000
  H   H18       1.0  0.2711703445232558  0.8273429961868998  0.318471694476294  1.0000
  H   H19       1.0  0.49872456624807165  0.4182380239170413  0.3013537338073817  1.0000
  H   H20       1.0  0.4986375524029682  0.5811683106996881  0.3015390592451794  1.0000
  H   H21       1.0  0.4988009574575115  0.5819074102032218  0.700659448073317  1.0000
  H   H22       1.0  0.5029410281822493  0.4186746524387885  0.7004886366744004  1.0000
  H   H23       1.0  0.49814768705898876  0.1906202759671416  0.0798777564626647  1.0000
  H   H24       1.0  0.5013018368941784  0.809182122879868  0.0806293322032445  1.0000
  H   H25       1.0  0.5000942726976021  0.8092656352887104  0.9217657534384571  1.0000
  H   H26       1.0  0.5007807393170295  0.1908290116025881  0.921041393150432  1.0000
  H   H27       1.0  0.4985090824266719  0.43411558355877844  0.0008027735028263991  1.0000
  H   H28       1.0  0.5013530601787082  0.565841743395353  0.001021531354211901  1.0000
  H   H29       1.0  0.041096572282221175  0.8135237972594355  0.4160110849518901  1.0000
  H   H30       1.0  0.9553400135423473  0.18527742088207333  0.4138468463959555  1.0000
  C   C1        1.0  0.5298994628568535  0.1085655343923548  0.6124414482325735  1.0000
  C   C2        1.0  0.5078004134883543  0.11029468026950438  0.39195710361154573  1.0000
  C   C3        1.0  0.4914131590358223  0.8889913744799712  0.39265857850977437  1.0000
  C   C4        1.0  0.47159580418313835  0.8920993454601529  0.6130376277822904  1.0000
  C   C5        1.0  0.9534297453660869  0.924344945020728  0.49641044399611906  1.0000
  C   C6        1.0  0.04644212085835869  0.07559049931425221  0.4952471526978216  1.0000
  C   C7        1.0  0.09460273094367011  0.9379537323581459  0.4975455802823987  1.0000
  C   C8        1.0  0.9053477827401437  0.06199867481065979  0.4974950629992918  1.0000
  C   C9        1.0  0.37829279392534687  0.2623518330359148  0.2381216671397652  1.0000
  C   C10       1.0  0.6204840904023143  0.737173374881756  0.239530674185211  1.0000
  C   C11       1.0  0.3634210511668029  0.740227894781384  0.7647757488118785  1.0000
  C   C12       1.0  0.6380017713510497  0.2602468153983466  0.7653395494298678  1.0000
  C   C13       1.0  0.6126825365124872  0.741403899363263  0.764360260350692  1.0000
  C   C14       1.0  0.3887718944813798  0.25899940657941295  0.7628413226464872  1.0000
  C   C15       1.0  0.6276718386504497  0.2564197646368029  0.2373680980380897  1.0000
  C   C16       1.0  0.37109791127040365  0.7430733577739304  0.23702311309310892  1.0000
  C   C17       1.0  0.3808425343022392  0.20460811320296557  0.29766514554810913  1.0000
  C   C18       1.0  0.6181379345307648  0.7947933381993336  0.2991849673958455  1.0000
  C   C19       1.0  0.3560194334350655  0.7990169612005857  0.7061330106917225  1.0000
  C   C20       1.0  0.6454577047578738  0.2016178149691754  0.7065753418466372  1.0000
  C   C21       1.0  0.6055559544095245  0.8001276319592421  0.7057080458565822  1.0000
  C   C22       1.0  0.3959657490528912  0.2004181968631471  0.7041160211214503  1.0000
  C   C23       1.0  0.6301376795612795  0.198185433920834  0.29652691035460077  1.0000
  C   C24       1.0  0.3688083004752158  0.8011542844303675  0.2963180764781441  1.0000
  C   C25       1.0  0.49912631403988433  0.4340520688543492  0.1687735571044868  1.0000
  C   C26       1.0  0.49902899751391044  0.565636671847912  0.1689405119688701  1.0000
  C   C27       1.0  0.49906412330911815  0.5659354747960278  0.8331617852968662  1.0000
  C   C28       1.0  0.5022323157661505  0.4343496620838678  0.8330177615872146  1.0000
  C   C29       1.0  0.4989567955105868  0.4586629215856632  0.2511235871015103  1.0000
  C   C30       1.0  0.4986384966028723  0.5408418967829363  0.2512219710098336  1.0000
  C   C31       1.0  0.49957887661561534  0.5413367207950657  0.7507961054517056  1.0000
  C   C32       1.0  0.5019906213406884  0.4591365727547867  0.75071613077575  1.0000
  C   C33       1.0  0.49807089059171966  0.32497784006293534  0.0670647171966579  1.0000
  C   C34       1.0  0.5013322944042499  0.6748667171863261  0.06749501026467901  1.0000
  C   C35       1.0  0.5006387262064321  0.6749794556104476  0.9347504932800135  1.0000
  C   C36       1.0  0.5000131417356499  0.3250899736342774  0.9343325673280988  1.0000
  C   C37       1.0  0.49857450541723847  0.24250709485917102  0.0409734523265897  1.0000
  C   C38       1.0  0.5011873447379075  0.7573782226491801  0.04159347482714541  1.0000
  C   C39       1.0  0.5005661972438203  0.7574477807055402  0.9607947226784078  1.0000
  C   C40       1.0  0.4999180679346224  0.2425766529556768  0.9601802542511068  1.0000
  C   C41       1.0  0.4991341423660883  0.3525637659589407  0.1449261442246765  1.0000
  C   C42       1.0  0.49952677916915167  0.6471603229496381  0.1452813413158154  1.0000
  C   C43       1.0  0.49818020388457984  0.6474449498733108  0.8568993226136996  1.0000
  C   C44       1.0  0.5030180983690896  0.3527897137330527  0.8565775025556236  1.0000
  C   C45       1.0  0.5015831627403385  0.2892902922814145  0.2075911072618553  1.0000
  C   C46       1.0  0.4970911470035375  0.7103100852234121  0.2080553032544188  1.0000
  C   C47       1.0  0.49179223148797035  0.7108339687760505  0.7944100764533533  1.0000
  C   C48       1.0  0.5096118382691088  0.2895522361711684  0.7939871351839756  1.0000
  C   C49       1.0  0.5067961051270515  0.1720418725423727  0.3275902814749969  1.0000
  C   C50       1.0  0.4922712978266829  0.8272783382539757  0.3282778275556453  1.0000
  C   C51       1.0  0.47706595746193875  0.8293679040929902  0.6762730042313265  1.0000
  C   C52       1.0  0.5244520866039294  0.1712870007133276  0.6756451157718715  1.0000
  C   C53       1.0  0.9052617344767595  0.8389065479613008  0.49722074555207035  1.0000
  C   C54       1.0  0.09451986575538739  0.1610470460887896  0.49463744392078013  1.0000
  N   N1        1.0  0.8597451377312098  0.9870569012967536  0.4993060248627402  1.0000
  N   N2        1.0  0.14027653346484212  0.0129130672091975  0.4982268556298237  1.0000
  N   N3        1.0  0.49923093855517203  0.49989604155284445  0.1199056318434302  1.0000
  N   N4        1.0  0.5005325144748979  0.5000915024448175  0.88207775766481  1.0000
  N   N5        1.0  0.4980416069267689  0.3724629017055321  0.0007678611507984007  1.0000
  N   N6        1.0  0.5019331821808278  0.6274914008722802  0.0011027282635041004  1.0000
  O   O1        1.0  0.6468483875451412  0.087420169409917  0.5825229246225662  1.0000
  O   O2        1.0  0.4153256741420249  0.0801101219869977  0.5927331314063906  1.0000
  O   O3        1.0  0.390389966660166  0.09185139064482681  0.4178778614926699  1.0000
  O   O4        1.0  0.6243739183995771  0.0804839106581738  0.41627211106809636  1.0000
  O   O5        1.0  0.3748941517702562  0.9188641929673195  0.4160427951263658  1.0000
  O   O6        1.0  0.6088941438150215  0.9074253662916263  0.4194850475261234  1.0000
  O   O7        1.0  0.5861146232711575  0.9205448000294182  0.5941795618908756  1.0000
  O   O8        1.0  0.35457825874439663  0.9131892216355125  0.5822113025004044  1.0000
  O   O9        1.0  0.9732567938739363  0.786520010738869  0.44743809983384614  1.0000
  O   O10       1.0  0.8166072919961637  0.8172463026068755  0.5406770224080263  1.0000
  O   O11       1.0  0.02444998884448069  0.2127256836736535  0.4444992579699729  1.0000
  O   O12       1.0  0.1849309764591922  0.1833291893693456  0.5372777664055448  1.0000
