data_image0
_chemical_formula_structural       Hg2H24C34N12Cl4
_chemical_formula_sum              "Hg2 H24 C34 N12 Cl4"
_cell_length_a       8.506268871064291
_cell_length_b       9.363805821481922
_cell_length_c       11.589864811516103
_cell_angle_alpha    79.05041014782226
_cell_angle_beta     75.76726612996642
_cell_angle_gamma    87.64076015842241

_space_group_name_H-M_alt    "P 1"
_space_group_IT_number       1

loop_
  _space_group_symop_operation_xyz
  'x, y, z'

loop_
  _atom_site_type_symbol
  _atom_site_label
  _atom_site_symmetry_multiplicity
  _atom_site_fract_x
  _atom_site_fract_y
  _atom_site_fract_z
  _atom_site_occupancy
  Hg  Hg1       1.0  0.29166653458112535  0.6832414495166502  0.3366699225410486  1.0000
  Hg  Hg2       1.0  0.7083329947241096  0.3167586385082116  0.663329928089425  1.0000
  H   H1        1.0  0.9325994049595607  0.6162154345885468  0.582004428560012  1.0000
  H   H2        1.0  0.0673965008779618  0.38378683608543435  0.4179974618702361  1.0000
  H   H3        1.0  0.6750271584143306  0.7264712520529597  0.6797708954195445  1.0000
  H   H4        1.0  0.32496875090246385  0.27353318046174724  0.3202289262043721  1.0000
  H   H5        1.0  0.6045950467601102  0.9804856344208587  0.5845743729743876  1.0000
  H   H6        1.0  0.3954057347519608  0.019521009473194805  0.415427662365012  1.0000
  H   H7        1.0  0.7881901353981675  0.10452237354222402  0.3955286598113263  1.0000
  H   H8        1.0  0.211813056742038  0.8954820855467174  0.6044715569503369  1.0000
  H   H9        1.0  0.965763616411472  0.22031198954124412  0.9440564467725354  1.0000
  H   H10       1.0  0.034238327568146994  0.7796848463963426  0.05594434215336011  1.0000
  H   H11       1.0  0.050501579527342196  0.3417405131554147  0.7308338373323128  1.0000
  H   H12       1.0  0.9494991655104313  0.6582595838445541  0.26916665331111744  1.0000
  H   H13       1.0  0.347646814255711  0.35516857216193637  0.6246469794365128  1.0000
  H   H14       1.0  0.6523527225750455  0.6448326104214883  0.3753535592607806  1.0000
  H   H15       1.0  0.47591063020797725  0.16372791082964963  0.9407574641771748  1.0000
  H   H16       1.0  0.5240913247764426  0.8362721815072192  0.05924194400921577  1.0000
  H   H17       1.0  0.5317818212075238  0.0925769344109284  0.1528110629670181  1.0000
  H   H18       1.0  0.46821888272336315  0.9074155279554927  0.8471880561486035  1.0000
  H   H19       1.0  0.5127636392091689  0.3668208829362668  0.11982706272385002  1.0000
  H   H20       1.0  0.48723342620294824  0.6331715729621337  0.8801727200578927  1.0000
  H   H21       1.0  0.7533936432525364  0.5091132121746396  0.12142825826671105  1.0000
  H   H22       1.0  0.2466034331643812  0.4908825001230566  0.8785701437755197  1.0000
  H   H23       1.0  0.004778232082045997  0.37614210798599856  0.15874475419004605  1.0000
  H   H24       1.0  0.9952212879580316  0.6238558045599375  0.8412554427767632  1.0000
  C   C1        1.0  0.8947141968060205  0.7224441488059199  0.5406328334390839  1.0000
  C   C2        1.0  0.1052865708083104  0.27755923186975195  0.4593697214048263  1.0000
  C   C3        1.0  0.7515293306650506  0.7859502300774465  0.5963151068163628  1.0000
  C   C4        1.0  0.24847144042855968  0.2140553124389442  0.4036853792212158  1.0000
  C   C5        1.0  0.7124745930421241  0.9245660986349904  0.5427078240927727  1.0000
  C   C6        1.0  0.2875261838373716  0.0754394575196073  0.4572943844148016  1.0000
  C   C7        1.0  0.8147603689816093  0.993908138531026  0.43486981573155964  1.0000
  C   C8        1.0  0.18523918753277258  0.006096320909001903  0.5651319259312262  1.0000
  C   C9        1.0  0.9518142089177887  0.919413600912243  0.3825738774480742  1.0000
  C   C10       1.0  0.0481853290662784  0.0805865075699259  0.6174285568873901  1.0000
  C   C11       1.0  0.06544593621192261  0.9768556199007601  0.26707837641501453  1.0000
  C   C12       1.0  0.9345536017721441  0.023144488581408496  0.7329240579204497  1.0000
  C   C13       1.0  0.18270216389574753  0.09302125752518718  0.08408309535249003  1.0000
  C   C14       1.0  0.8172997864560897  0.9069777470722257  0.9159164860020684  1.0000
  C   C15       1.0  0.2146164583991919  0.1801124832613112  0.9619329330115891  1.0000
  C   C16       1.0  0.7853854965852206  0.8198876090755575  0.03806647517480136  1.0000
  C   C17       1.0  0.0945474504461501  0.23213120694936143  0.9004042639399973  1.0000
  C   C18       1.0  0.9054545027986266  0.7678678044671512  0.09959617864955557  1.0000
  C   C19       1.0  0.1415111140360779  0.2982106667588054  0.7791885503257421  1.0000
  C   C20       1.0  0.858488410636582  0.7017883335265936  0.22081147347289232  1.0000
  C   C21       1.0  0.3054414395914548  0.30721432038212265  0.720436244519995  1.0000
  C   C22       1.0  0.6945580943463695  0.6927868553822022  0.27956343294230385  1.0000
  C   C23       1.0  0.3777270864334312  0.20071023272467403  0.8972660575858317  1.0000
  C   C24       1.0  0.6222748610254668  0.7992887650536318  0.10273266253372532  1.0000
  C   C25       1.0  0.8956319828183934  0.16737585029918728  0.1675822170246876  1.0000
  C   C26       1.0  0.1043687413824514  0.8326220439454488  0.8324151750150861  1.0000
  C   C27       1.0  0.6338855648710647  0.15999561055618727  0.15261741729720069  1.0000
  C   C28       1.0  0.36611755895311393  0.8399968424840409  0.8473795369043416  1.0000
  C   C29       1.0  0.6234590645659922  0.3114043022638953  0.13436218652653054  1.0000
  C   C30       1.0  0.3765404346371639  0.6885914075267009  0.8656349118366224  1.0000
  C   C31       1.0  0.7575410648202805  0.39106032725798195  0.13578338387028313  1.0000
  C   C32       1.0  0.24245722269659345  0.6089343062753512  0.8642158313530789  1.0000
  C   C33       1.0  0.8978599651914861  0.3183013984922809  0.15496975936394364  1.0000
  C   C34       1.0  0.1021383286976061  0.6816954037008783  0.8450282482880739  1.0000
  N   N1        1.0  0.9914514554774669  0.7861632843033489  0.43575396234698627  1.0000
  N   N2        1.0  0.008545670725162297  0.2138400830852021  0.5642483949280505  1.0000
  N   N3        1.0  0.2141295216302126  0.924690544216901  0.2334331786907171  1.0000
  N   N4        1.0  0.7858712234075611  0.07530955278306808  0.7665673119527059  1.0000
  N   N5        1.0  0.28715779948519327  0.9952813313237101  0.12023609649612152  1.0000
  N   N6        1.0  0.7128441508666442  0.004717673273702903  0.8797634848584368  1.0000
  N   N7        1.0  0.0415156932283409  0.08599885401564927  0.17519433377401586  1.0000
  N   N8        1.0  0.9584862524909142  0.9139990628423003  0.8248054207487105  1.0000
  N   N9        1.0  0.4207712608666085  0.26012635100874343  0.7795411614255345  1.0000
  N   N10       1.0  0.5792294830178547  0.7398748200924812  0.22045743357973188  1.0000
  N   N11       1.0  0.7694201305813378  0.08808587749233249  0.1675162451628297  1.0000
  N   N12       1.0  0.23057936977511423  0.9119087581970005  0.8324827488384943  1.0000
  Cl  Cl1       1.0  0.2428593588856103  0.5454910764937322  0.18772753919041224  1.0000
  Cl  Cl2       1.0  0.757138960472986  0.4545090161942296  0.8122733938970941  1.0000
  Cl  Cl3       1.0  0.34357362634280253  0.6583548737895197  0.5356762149841643  1.0000
  Cl  Cl4       1.0  0.6564259075950218  0.34164630197481227  0.4643234624781344  1.0000
