data_image0
_chemical_formula_structural       Ni4H72C72N8O24
_chemical_formula_sum              "Ni4 H72 C72 N8 O24"
_cell_length_a       9.266931431219161
_cell_length_b       12.905470948717776
_cell_length_c       19.99592841940779
_cell_angle_alpha    108.7651241300256
_cell_angle_beta     103.04864158488783
_cell_angle_gamma    89.85213993629026

_space_group_name_H-M_alt    "P 1"
_space_group_IT_number       1

loop_
  _space_group_symop_operation_xyz
  'x, y, z'

loop_
  _atom_site_type_symbol
  _atom_site_label
  _atom_site_symmetry_multiplicity
  _atom_site_fract_x
  _atom_site_fract_y
  _atom_site_fract_z
  _atom_site_occupancy
  Ni  Ni1       1.0  0.17467670985215025  0.6347883311916008  0.7273854126185879  1.0000
  Ni  Ni2       1.0  0.3261396822307391  0.9085244807564551  0.2721167985585139  1.0000
  Ni  Ni3       1.0  0.8259540743369983  0.3648565962041914  0.27276938089485714  1.0000
  Ni  Ni4       1.0  0.6728119593790824  0.09128157574708222  0.7277448110477563  1.0000
  H   H1        1.0  0.43830830628218115  0.6026068706970805  0.761519402890265  1.0000
  H   H2        1.0  0.0635535074499245  0.8419001887477011  0.23797292231493114  1.0000
  H   H3        1.0  0.5625833898796416  0.39745650773336655  0.23830961895118458  1.0000
  H   H4        1.0  0.9359613457185606  0.15787686368679477  0.7623513940602819  1.0000
  H   H5        1.0  0.4281387220357971  0.731365118257159  0.7732715551184483  1.0000
  H   H6        1.0  0.07268826385362104  0.9591990159376566  0.22651836452033788  1.0000
  H   H7        1.0  0.5717582516290494  0.26870048218859216  0.226790212336951  1.0000
  H   H8        1.0  0.9266775629228552  0.040288400663861315  0.7733448090674314  1.0000
  H   H9        1.0  0.05846580104456932  0.8374662351250353  0.750198044271677  1.0000
  H   H10       1.0  0.44085171192847394  0.088805818457466  0.24968542557061107  1.0000
  H   H11       1.0  0.9406806034377414  0.16235696487208884  0.2498971233661962  1.0000
  H   H12       1.0  0.5576774013694888  0.9115939486253667  0.7503396976225857  1.0000
  H   H13       1.0  0.2343845641481295  0.8391517320516971  0.7674362804937188  1.0000
  H   H14       1.0  0.2651595378287582  0.07326462392190078  0.23204735233387197  1.0000
  H   H15       1.0  0.7648671394606625  0.16074796833174798  0.23224527709465553  1.0000
  H   H16       1.0  0.7334624294943524  0.9270160075652287  0.7681431332348508  1.0000
  H   H17       1.0  0.78215039717945  0.47304262837306515  0.4924057085831279  1.0000
  H   H18       1.0  0.717977787099308  0.9798800922399382  0.507050211878493  1.0000
  H   H19       1.0  0.21865912129403145  0.5268901168496284  0.5078825046729916  1.0000
  H   H20       1.0  0.2814118258212872  0.01921014958737988  0.4924306820153034  1.0000
  H   H21       1.0  0.036128880353693694  0.5247999910973888  0.5742435645616054  1.0000
  H   H22       1.0  0.46399381579139753  0.9502870466548503  0.4249805795044139  1.0000
  H   H23       1.0  0.9647684652018642  0.47465804124077965  0.42602353895366457  1.0000
  H   H24       1.0  0.5350230271752281  0.04862988703955302  0.5746441751558606  1.0000
  H   H25       1.0  0.37166663245421466  0.8086881939534366  0.459618002539024  1.0000
  H   H26       1.0  0.1285455712503136  0.3483217572923111  0.5401763700798127  1.0000
  H   H27       1.0  0.6275752102556712  0.19105723124147295  0.5401643119388524  1.0000
  H   H28       1.0  0.8716500017235307  0.6513697137708477  0.4600528663189465  1.0000
  H   H29       1.0  0.04596583661545851  0.711758594897667  0.3998206508835053  1.0000
  H   H30       1.0  0.45492756573534626  0.31067675415788193  0.5993173370434235  1.0000
  H   H31       1.0  0.9529521586413738  0.2885124009598741  0.6006237248945537  1.0000
  H   H32       1.0  0.5458240613339741  0.689393799112651  0.40015799809723507  1.0000
  H   H33       1.0  0.6080398982164397  0.6330254895093503  0.6803303209717055  1.0000
  H   H34       1.0  0.8923777272181966  0.9540186049200589  0.3194363008071619  1.0000
  H   H35       1.0  0.392986581035352  0.3673346317823204  0.3199304618529765  1.0000
  H   H36       1.0  0.10586703938658808  0.04743100641258735  0.6799142961656627  1.0000
  H   H37       1.0  0.1527757168793329  0.7085355682580429  0.5245272275100203  1.0000
  H   H38       1.0  0.34774488453630437  0.18358572709915677  0.4747980902081678  1.0000
  H   H39       1.0  0.8470589243839515  0.29104550413030955  0.4754338052431136  1.0000
  H   H40       1.0  0.6516968135363969  0.816085791301731  0.5249502804399171  1.0000
  H   H41       1.0  0.46523891590105404  0.8269416736793149  0.59616221901193  1.0000
  H   H42       1.0  0.03420389542616678  0.23096285222340643  0.403921827618312  1.0000
  H   H43       1.0  0.5343965448695799  0.17287220114824453  0.4040762549687286  1.0000
  H   H44       1.0  0.964808876157257  0.7687011344825267  0.5963781255805429  1.0000
  H   H45       1.0  0.43462954057471137  0.5497943608543636  0.5669562295379079  1.0000
  H   H46       1.0  0.0656586572043238  0.9831194537056479  0.43287524834123997  1.0000
  H   H47       1.0  0.5663719209306565  0.4506567634319225  0.4332554542245645  1.0000
  H   H48       1.0  0.9331762541140592  0.016886576244758016  0.5663392596418219  1.0000
  H   H49       1.0  0.869868465176147  0.6794812035520436  0.7533899849308411  1.0000
  H   H50       1.0  0.6305498602736677  0.9280037778720144  0.2462886356300728  1.0000
  H   H51       1.0  0.13135234835942813  0.32012275685173114  0.24692209406124013  1.0000
  H   H52       1.0  0.367406480437275  0.07322260886964901  0.7534031969904901  1.0000
  H   H53       1.0  0.09604417417601502  0.6854541418846907  0.9809899545445118  1.0000
  H   H54       1.0  0.4088964024040467  0.7066938517134393  0.019170650780480945  1.0000
  H   H55       1.0  0.9047722648707934  0.3144142820898779  0.019302416229457702  1.0000
  H   H56       1.0  0.592780495874223  0.2948478990345862  0.9809130744835385  1.0000
  H   H57       1.0  0.16629903557279854  0.7408483134986955  0.8834086691094853  1.0000
  H   H58       1.0  0.3369974385696253  0.8596488744982839  0.11637766956113893  1.0000
  H   H59       1.0  0.8346269060581978  0.25905316230717557  0.1168665922744836  1.0000
  H   H60       1.0  0.662596715906439  0.14096653383066365  0.8836524606352326  1.0000
  H   H61       1.0  0.9541432101020322  0.3850880663497091  0.9428517842842011  1.0000
  H   H62       1.0  0.5498069982136259  0.44390126839312677  0.0577766220253224  1.0000
  H   H63       1.0  0.0473725879555147  0.6147759052803751  0.0576002420458792  1.0000
  H   H64       1.0  0.4523526524515659  0.5575477524879064  0.9422676009799316  1.0000
  H   H65       1.0  0.9937062996926758  0.35577378377023916  0.8258991089654586  1.0000
  H   H66       1.0  0.5087316246639659  0.5314825262246715  0.17456830724795938  1.0000
  H   H67       1.0  0.0081311091880423  0.6439026531303186  0.17454572849052136  1.0000
  H   H68       1.0  0.4922845148400017  0.4693407325781394  0.8252807858148755  1.0000
  H   H69       1.0  0.06786067357952422  0.42571716616012606  0.7360611511982069  1.0000
  H   H70       1.0  0.4328594496590272  0.6914412297302734  0.26385514063800025  1.0000
  H   H71       1.0  0.9338406539326843  0.5740106673169764  0.2643968310475984  1.0000
  H   H72       1.0  0.5657189967201648  0.3084594522481081  0.7356876741028413  1.0000
  C   C1        1.0  0.7956185199829736  0.5191211486891306  0.5498766148034518  1.0000
  C   C2        1.0  0.7045893709194504  0.9688091221277662  0.4495730092540668  1.0000
  C   C3        1.0  0.20524542123854425  0.48075241109686573  0.45039283630071475  1.0000
  C   C4        1.0  0.2944754023396285  0.03045858771061205  0.5498714224342861  1.0000
  C   C5        1.0  0.9369557291202785  0.5472629009830785  0.5945060928127148  1.0000
  C   C6        1.0  0.5632631504894193  0.9526883136677216  0.40487794641978064  1.0000
  C   C7        1.0  0.0639248363870024  0.4523447989874968  0.40574580187271886  1.0000
  C   C8        1.0  0.4356105866675578  0.04658020893384665  0.5946942791777657  1.0000
  C   C9        1.0  0.26731474642011227  0.7706513293668849  0.46065965586162594  1.0000
  C   C10       1.0  0.23309119055787167  0.3092729641632346  0.5389540773090643  1.0000
  C   C11       1.0  0.7320142614899938  0.22919772279362863  0.539296630716386  1.0000
  C   C12       1.0  0.7670564256763515  0.6904693461327016  0.46104183983120345  1.0000
  C   C13       1.0  0.15325671111474296  0.7482903376774958  0.40113355795998723  1.0000
  C   C14       1.0  0.3476106748773304  0.3462146672076474  0.5982136775695466  1.0000
  C   C15       1.0  0.8456759213955679  0.2516025666094492  0.5989776927448885  1.0000
  C   C16       1.0  0.6531315189666033  0.653821575851943  0.4014817962573645  1.0000
  C   C17       1.0  0.69977096876643  0.6087996465431332  0.654321808813158  1.0000
  C   C18       1.0  0.800588631561425  0.9552898338714189  0.34532739568640375  1.0000
  C   C19       1.0  0.30126769437323736  0.39131324824024466  0.34597257451537894  1.0000
  C   C20       1.0  0.1978294691386466  0.045298897705748624  0.6540793783856386  1.0000
  C   C21       1.0  0.2565375994555056  0.7500662321565984  0.5259088577973187  1.0000
  C   C22       1.0  0.24369230183757656  0.22371258961919693  0.4736946650955359  1.0000
  C   C23       1.0  0.7431595107754491  0.2497470970238354  0.47410154105264  1.0000
  C   C24       1.0  0.7558378218280241  0.7759829761855885  0.5262724876589004  1.0000
  C   C25       1.0  0.3613828466651442  0.7807146905087662  0.5893227643010943  1.0000
  C   C26       1.0  0.13839862037726652  0.19148809920873336  0.41046006178103767  1.0000
  C   C27       1.0  0.6381872543259279  0.21909610791325912  0.41074004383947477  1.0000
  C   C28       1.0  0.8607796048400188  0.8083162290926041  0.58964505969422  1.0000
  C   C29       1.0  0.5201473752743195  0.5250400644847772  0.5365654758414137  1.0000
  C   C30       1.0  0.9800506221095239  0.9885424368358643  0.4631818816502644  1.0000
  C   C31       1.0  0.4808893644873821  0.4753607062026079  0.46368587679356205  1.0000
  C   C32       1.0  0.01891764660257418  0.011385863392405405  0.5360751187718336  1.0000
  C   C33       1.0  0.6717558833924856  0.5501311242851444  0.5795005211258228  1.0000
  C   C34       1.0  0.8285084715028577  0.9707744338863836  0.4201015082789538  1.0000
  C   C35       1.0  0.3292249447737562  0.4500545804026786  0.4207687197010159  1.0000
  C   C36       1.0  0.17034502935705834  0.029159971388452128  0.5792518162672237  1.0000
  C   C37       1.0  0.16048998610958176  0.780482485980521  0.336846306248745  1.0000
  C   C38       1.0  0.3407681893432155  0.44268463763999943  0.6624600561190802  1.0000
  C   C39       1.0  0.8381119388276093  0.21918074121763464  0.6631286136246644  1.0000
  C   C40       1.0  0.6603122099041061  0.5573834026747663  0.3372988356398068  1.0000
  C   C41       1.0  0.33453316105264724  0.7587844729012901  0.6540340574533872  1.0000
  C   C42       1.0  0.16509574488787143  0.1051574356791605  0.34565137661547135  1.0000
  C   C43       1.0  0.664820992542076  0.2410053477333989  0.34599827947836553  1.0000
  C   C44       1.0  0.8337818581971134  0.8945314372672827  0.654421693167876  1.0000
  C   C45       1.0  0.8448787037834367  0.6340494444921632  0.6952935946607325  1.0000
  C   C46       1.0  0.6554739041112257  0.9399288366179734  0.30431997021567975  1.0000
  C   C47       1.0  0.15615901706737392  0.3656562355684088  0.30502246541472994  1.0000
  C   C48       1.0  0.34274797790018857  0.06065588462902835  0.6952766999342828  1.0000
  C   C49       1.0  0.08867621547068438  0.6243199005367259  0.9277774936320282  1.0000
  C   C50       1.0  0.41524905268779133  0.6986113324072253  0.07235298800770808  1.0000
  C   C51       1.0  0.9124016435468721  0.37554297717003504  0.0725342260773232  1.0000
  C   C52       1.0  0.5858907139548964  0.3025462923253032  0.9276504558670098  1.0000
  C   C53       1.0  0.1279792308684762  0.6563657476711173  0.8740062579488991  1.0000
  C   C54       1.0  0.3751038110112648  0.7844059790952402  0.12585103029800845  1.0000
  C   C55       1.0  0.8730766614598982  0.34350721513462196  0.1262966566356312  1.0000
  C   C56       1.0  0.6248437468328378  0.21625848885117435  0.8741008035949419  1.0000
  C   C57       1.0  0.0391282069936096  0.5140898307973386  0.9125702006742669  1.0000
  C   C58       1.0  0.4643459020235313  0.6033067087265566  0.08774768265259066  1.0000
  C   C59       1.0  0.9622310220697232  0.48573369301481534  0.08780611875430105  1.0000
  C   C60       1.0  0.537273207122155  0.39785656717641166  0.9122324446820328  1.0000
  C   C61       1.0  0.9962353401568436  0.47139036001441065  0.9648401095430683  1.0000
  C   C62       1.0  0.5068059262993573  0.5079956156226758  0.035556119551728195  1.0000
  C   C63       1.0  0.005237351458056597  0.5284655039356424  0.03557801346613589  1.0000
  C   C64       1.0  0.495524783371586  0.4934540416384437  0.9644872278682896  1.0000
  C   C65       1.0  0.03139892503408959  0.4420868432498325  0.8418937256822473  1.0000
  C   C66       1.0  0.4713005954796969  0.6019204324594584  0.15840640258701907  1.0000
  C   C67       1.0  0.9702426704663912  0.5576407142600177  0.1585362892356699  1.0000
  C   C68       1.0  0.5294184928914801  0.3988604155531023  0.8414271209126483  1.0000
  C   C69       1.0  0.07202120861656168  0.48037431417837706  0.7909096731923313  1.0000
  C   C70       1.0  0.429741213732882  0.6911680907074926  0.20904483162432544  1.0000
  C   C71       1.0  0.9295500321728201  0.5193801117424359  0.2095179774005302  1.0000
  C   C72       1.0  0.5696691544732674  0.3091223079565707  0.7906537429483362  1.0000
  N   N1        1.0  0.9622985114226384  0.603997825817686  0.6661966224126061  1.0000
  N   N2        1.0  0.5380329831939862  0.9384699365727446  0.33325716212144835  1.0000
  N   N3        1.0  0.038623134782355406  0.39547830247487076  0.33407617683847946  1.0000
  N   N4        1.0  0.4604211029854995  0.061262779298019134  0.6663603674030512  1.0000
  N   N5        1.0  0.11988003016940506  0.5858435963952716  0.8063997206607496  1.0000
  N   N6        1.0  0.3819792833577367  0.781213947413882  0.19333237758414865  1.0000
  N   N7        1.0  0.8813520685059475  0.41395835060214387  0.19394924182504517  1.0000
  N   N8        1.0  0.6171573370653363  0.21907385848616212  0.8064652643969339  1.0000
  O   O1        1.0  0.40102862278113344  0.6727684400555776  0.791365136542602  1.0000
  O   O2        1.0  0.10006320316458067  0.8825751289271654  0.2081009989727036  1.0000
  O   O3        1.0  0.5995947357574922  0.32703337535946286  0.2086309638360788  1.0000
  O   O4        1.0  0.8991816746162871  0.11686578430078488  0.7919005775817423  1.0000
  O   O5        1.0  0.23794292341695217  0.6810477501811861  0.642773321421771  1.0000
  O   O6        1.0  0.2623804545359293  0.03865351086361096  0.3567863817189689  1.0000
  O   O7        1.0  0.762354295203771  0.31812573119941595  0.35723244848576735  1.0000
  O   O8        1.0  0.7361570433486123  0.9607900928872158  0.6432776269128127  1.0000
  O   O9        1.0  0.14652276931415292  0.810811898068387  0.7778221391900785  1.0000
  O   O10       1.0  0.3533099344292481  0.03456921844402667  0.22184087367427444  1.0000
  O   O11       1.0  0.8529793129179453  0.18912256417295487  0.2221104530247473  1.0000
  O   O12       1.0  0.6452976049076399  0.9657847875824147  0.7782914344134255  1.0000
  O   O13       1.0  0.28961457546427744  0.8076099687206765  0.33169553643239164  1.0000
  O   O14       1.0  0.21168054613056597  0.47533262791820624  0.6678249810947747  1.0000
  O   O15       1.0  0.7089989099643078  0.19125122163007538  0.667828414431426  1.0000
  O   O16       1.0  0.7894161919165585  0.5243429478630973  0.3324161480795595  1.0000
  O   O17       1.0  0.4078112913593588  0.8186215123349855  0.7177724943102746  1.0000
  O   O18       1.0  0.09103310677926403  0.10149798488446037  0.2820071527667167  1.0000
  O   O19       1.0  0.5905321734752179  0.1818112238749805  0.2823151784259963  1.0000
  O   O20       1.0  0.9079241803451342  0.8983195796328123  0.7180726463920665  1.0000
  O   O21       1.0  0.03786124430952501  0.7816909957896813  0.2930739458119973  1.0000
  O   O22       1.0  0.4635370132898232  0.48718424107220687  0.705975784490846  1.0000
  O   O23       1.0  0.9606081921204325  0.21844590048228  0.7071342067751303  1.0000
  O   O24       1.0  0.5377433547892709  0.5131041742552541  0.2934659949521503  1.0000
