data_image0
_chemical_formula_structural       Co2H36C46N8O12
_chemical_formula_sum              "Co2 H36 C46 N8 O12"
_cell_length_a       8.073079140116764
_cell_length_b       9.991996675513407
_cell_length_c       12.8808
_cell_angle_alpha    96.67687950092972
_cell_angle_beta     100.05420930285894
_cell_angle_gamma    92.02668148783195

_space_group_name_H-M_alt    "P 1"
_space_group_IT_number       1

loop_
  _space_group_symop_operation_xyz
  'x, y, z'

loop_
  _atom_site_type_symbol
  _atom_site_label
  _atom_site_symmetry_multiplicity
  _atom_site_fract_x
  _atom_site_fract_y
  _atom_site_fract_z
  _atom_site_occupancy
  Co  Co1       1.0  0.0102304222189531  0.1909894452977099  0.0977528059793045  1.0000
  Co  Co2       1.0  0.9897447827245929  0.8090318352875627  0.9022499715691481  1.0000
  H   H1        1.0  0.9991729748407465  0.6934914716749319  0.6339729121466036  1.0000
  H   H2        1.0  0.000858801491197899  0.3065469665216156  0.3660570115982011  1.0000
  H   H3        1.0  0.7977219409077991  0.40748418439475387  0.9595071271791937  1.0000
  H   H4        1.0  0.2022528395784917  0.5924957160691946  0.0404476197833503  1.0000
  H   H5        1.0  0.6574246485080694  0.0060102103033159  0.9921041242273178  1.0000
  H   H6        1.0  0.3425890195934898  0.9939858385006629  0.007880401066479711  1.0000
  H   H7        1.0  0.4170936419660905  0.098624977435712  0.8389936936460956  1.0000
  H   H8        1.0  0.5828886148248814  0.9013539137569921  0.16100059779671483  1.0000
  H   H9        1.0  0.5690404142204671  0.4642900075201624  0.8218093278699925  1.0000
  H   H10       1.0  0.4308983144649475  0.535695948571302  0.17817540356093536  1.0000
  H   H11       1.0  0.3755224180970487  0.3674272176897517  0.7971007795142312  1.0000
  H   H12       1.0  0.6244310538964513  0.6325183675516399  0.2028764894587738  1.0000
  H   H13       1.0  0.38727526100859694  0.4498624749784454  0.6100949373278794  1.0000
  H   H14       1.0  0.6127192501599625  0.5501295367405206  0.3898925621690594  1.0000
  H   H15       1.0  0.4243989568353826  0.3589907192975801  0.4301294100936701  1.0000
  H   H16       1.0  0.5756169733313073  0.6410194593039193  0.5698605188791248  1.0000
  H   H17       1.0  0.7396215518998803  0.0586628822283615  0.5606866898334388  1.0000
  H   H18       1.0  0.2604010268795562  0.9413523427293953  0.4393013163733102  1.0000
  H   H19       1.0  0.7063695244067036  0.1517055803714342  0.7414975722775595  1.0000
  H   H20       1.0  0.2936294062414647  0.848295514788795  0.258486571966742  1.0000
  H   H21       1.0  0.7369067886876978  0.1646535212582947  0.3621369459967383  1.0000
  H   H22       1.0  0.2630890851353911  0.8353576666144562  0.637836128835751  1.0000
  H   H23       1.0  0.599984892616412  0.026715410030014704  0.372307934514474  1.0000
  H   H24       1.0  0.40002208808572  0.9732927500289817  0.6276800568124798  1.0000
  H   H25       1.0  0.25167144775628714  0.1051438604498358  0.3171268757425239  1.0000
  H   H26       1.0  0.7483156083301812  0.8949379764105315  0.6829106089179433  1.0000
  H   H27       1.0  0.3683667319049065  0.300948538888953  0.0641146240856969  1.0000
  H   H28       1.0  0.631586100475353  0.6989526384173743  0.9358360554494425  1.0000
  H   H29       1.0  0.6677255772596241  0.2712487137679389  0.20472864824843381  1.0000
  H   H30       1.0  0.3322507598145776  0.728664574793406  0.7952101685084402  1.0000
  H   H31       1.0  0.9694389439533426  0.5292941410223619  0.3962969585904901  1.0000
  H   H32       1.0  0.030645596823355006  0.470743287902927  0.6037526218146212  1.0000
  H   H33       1.0  0.9133402563021066  0.9451229801253973  0.34757418768312215  1.0000
  H   H34       1.0  0.0866654993281131  0.0549033468161255  0.6524370459198039  1.0000
  H   H35       1.0  0.9461036468904356  0.6464473200950636  0.08319344281689926  1.0000
  H   H36       1.0  0.05390973433648581  0.3535446916239096  0.9168349388770737  1.0000
  C   C1        1.0  0.7274642161519226  0.3110079454537171  0.950965411591959  1.0000
  C   C2        1.0  0.2725231443732739  0.6889719550102384  0.04900080439961131  1.0000
  C   C3        1.0  0.6495557745890254  0.10417496004829019  0.964500589963265  1.0000
  C   C4        1.0  0.35045480375547566  0.8958130145856699  0.03548830345869192  1.0000
  C   C5        1.0  0.5300947707020356  0.1481014727319518  0.8881912365239303  1.0000
  C   C6        1.0  0.46988629980370433  0.8518784277320036  0.11179369995591769  1.0000
  C   C7        1.0  0.5115587962376225  0.3613140617187725  0.7983823139020741  1.0000
  C   C8        1.0  0.4884020027685453  0.6386638202026731  0.2015986697432623  1.0000
  C   C9        1.0  0.5424365999677081  0.3065055864002986  0.6890004662203709  1.0000
  C   C10       1.0  0.4575500763028729  0.6934823882336687  0.31098270647684256  1.0000
  C   C11       1.0  0.46621265259921785  0.3645164794001232  0.6000390239497193  1.0000
  C   C12       1.0  0.5337950123575299  0.6354836064888616  0.39994753765748925  1.0000
  C   C13       1.0  0.4870824096609781  0.3128327078766162  0.4980041479664338  1.0000
  C   C14       1.0  0.5129196107442482  0.6871764614536318  0.5019864970398302  1.0000
  C   C15       1.0  0.5836800170800629  0.2010427962349581  0.4829740507865736  1.0000
  C   C16       1.0  0.41632865193791707  0.7989714194515471  0.5170170005015322  1.0000
  C   C17       1.0  0.6625525858861111  0.1448627212855484  0.5718702755834499  1.0000
  C   C18       1.0  0.33746984945600655  0.8551504851297054  0.4281128747727152  1.0000
  C   C19       1.0  0.643219835141892  0.1975517269756537  0.6737230279397437  1.0000
  C   C20       1.0  0.3567795646049135  0.8024382662008165  0.32625938995258963  1.0000
  C   C21       1.0  0.609822023843833  0.1372669458459583  0.3751718692432108  1.0000
  C   C22       1.0  0.3901800682800599  0.8627432327555412  0.6248235327362367  1.0000
  C   C23       1.0  0.3222718407767148  0.1524645523526473  0.2654786625129901  1.0000
  C   C24       1.0  0.677702139094926  0.8475748951151516  0.7345395938184751  1.0000
  C   C25       1.0  0.3888830271707563  0.257497392964801  0.1382463092799142  1.0000
  C   C26       1.0  0.6110780645647509  0.7424492015478421  0.8617233446211756  1.0000
  C   C27       1.0  0.5369744621667748  0.2435714682351389  0.2061458897843735  1.0000
  C   C28       1.0  0.4629991378889714  0.7563741170062599  0.7938219363303176  1.0000
  C   C29       1.0  0.9609639289501362  0.5723688287696689  0.2349892895162924  1.0000
  C   C30       1.0  0.03904848114753181  0.42762722003431014  0.7650486662300438  1.0000
  C   C31       1.0  0.9560368772046177  0.6061370263059089  0.3427230229128569  1.0000
  C   C32       1.0  0.044024374034108915  0.3938913191781239  0.6573169791224771  1.0000
  C   C33       1.0  0.9360252351514617  0.7397191228122537  0.38284453635932897  1.0000
  C   C34       1.0  0.0640403309162352  0.2602991299592645  0.6171926984493155  1.0000
  C   C35       1.0  0.921536858184574  0.8404524678925683  0.3151887232536695  1.0000
  C   C36       1.0  0.07849517209002951  0.1595718405064588  0.6848391775069516  1.0000
  C   C37       1.0  0.926528852641404  0.8071556000308249  0.2070023088331823  1.0000
  C   C38       1.0  0.07351054928724923  0.1928485229431658  0.793019919825241  1.0000
  C   C39       1.0  0.9442775345078902  0.6728680229196087  0.16731329843038623  1.0000
  C   C40       1.0  0.055758992819676216  0.3271310536981247  0.8327221348306678  1.0000
  C   C41       1.0  0.9852212243842475  0.4312081144350088  0.19070182425645751  1.0000
  C   C42       1.0  0.014740683333798204  0.5688030734377421  0.8093288656522332  1.0000
  C   C43       1.0  0.9364334671833917  0.7751172934198394  0.4987822000346967  1.0000
  C   C44       1.0  0.0636152757350885  0.2249120613354449  0.5012495372461956  1.0000
  C   C45       1.0  0.9224448813617983  0.912909060316629  0.13285125881557755  1.0000
  C   C46       1.0  0.0775882305473985  0.0870950626573617  0.8671625181058005  1.0000
  N   N1        1.0  0.7719603263647415  0.2064232212772694  0.003341769723739725  1.0000
  N   N2        1.0  0.22804342114300624  0.7935748460692125  0.996630206894885  1.0000
  N   N3        1.0  0.5809966374537296  0.2798931220379473  0.880579317304381  1.0000
  N   N4        1.0  0.4189848633639672  0.7200928340535171  0.11940465974132763  1.0000
  N   N5        1.0  0.4926731645261669  0.1766073299623159  0.2861180207119673  1.0000
  N   N6        1.0  0.5073037345879288  0.8233846817566501  0.713874538845161  1.0000
  N   N7        1.0  0.2564637755919819  0.2004675116215395  0.1761386106792315  1.0000
  N   N8        1.0  0.7434954009623101  0.799540648437457  0.8238728749165105  1.0000
  O   O1        1.0  0.0332214357198097  0.41075624179246256  0.10144292746647922  1.0000
  O   O2        1.0  0.9665969936907362  0.5892186123152285  0.8985291923737364  1.0000
  O   O3        1.0  0.9538307417399707  0.3308895798391021  0.23968801954817562  1.0000
  O   O4        1.0  0.04620391504775511  0.6691185802198945  0.7603627789485188  1.0000
  O   O5        1.0  0.9934280963174376  0.6755284619388391  0.5544696450813404  1.0000
  O   O6        1.0  0.0066169772400215005  0.3245200689702159  0.4455704074186854  1.0000
  O   O7        1.0  0.8924367032724805  0.8830114180303  0.538341788118423  1.0000
  O   O8        1.0  0.1076117139846886  0.1170310572512534  0.4616872151734839  1.0000
  O   O9        1.0  0.9361018094537672  0.0365537861906731  0.17295324339852414  1.0000
  O   O10       1.0  0.06388651634598123  0.9634574016820778  0.827063257450874  1.0000
  O   O11       1.0  0.9037656342872825  0.873283052436065  0.03371201728256069  1.0000
  O   O12       1.0  0.09628926106802993  0.126708959282908  0.9662960636450109  1.0000
