data_image0
_chemical_formula_structural       H32Pb2C50N4O12
_chemical_formula_sum              "H32 Pb2 C50 N4 O12"
_cell_length_a       8.323218881088133
_cell_length_b       10.481686168336537
_cell_length_c       12.474725935567864
_cell_angle_alpha    84.67170250096572
_cell_angle_beta     76.87103353307565
_cell_angle_gamma    86.40797325390153

_space_group_name_H-M_alt    "P 1"
_space_group_IT_number       1

loop_
  _space_group_symop_operation_xyz
  'x, y, z'

loop_
  _atom_site_type_symbol
  _atom_site_label
  _atom_site_symmetry_multiplicity
  _atom_site_fract_x
  _atom_site_fract_y
  _atom_site_fract_z
  _atom_site_occupancy
  H   H1        1.0  0.43305675707013347  0.5975978292534592  0.9894265305051562  1.0000
  H   H2        1.0  0.5669473608439192  0.40239809955867395  0.010573794991572079  1.0000
  H   H3        1.0  0.4344235800019123  0.10071624548656645  0.572375408643005  1.0000
  H   H4        1.0  0.5655768190181903  0.8992806262885793  0.427620583873221  1.0000
  H   H5        1.0  0.4963161705260362  0.11029109319090939  0.9034537494019617  1.0000
  H   H6        1.0  0.5036903478769617  0.8897067152509879  0.09654205442582507  1.0000
  H   H7        1.0  0.24667312986293416  0.9804763979197518  0.9731938877644097  1.0000
  H   H8        1.0  0.7533319018759884  0.019526238570691103  0.026805746980016934  1.0000
  H   H9        1.0  0.20265632582196255  0.7422070910280426  0.939901696113381  1.0000
  H   H10       1.0  0.797346274088234  0.2577946084826621  0.06009998214287295  1.0000
  H   H11       1.0  0.9728069752514016  0.5955348075255744  0.00868249589374409  1.0000
  H   H12       1.0  0.027196904379572114  0.4044659273842868  0.9913190711794826  1.0000
  H   H13       1.0  0.6506407616545644  0.8588402588620597  0.860849265508847  1.0000
  H   H14       1.0  0.34936098456494596  0.14115375755056903  0.13915077023492023  1.0000
  H   H15       1.0  0.8798880019446287  0.004317155235703801  0.7901413134681337  1.0000
  H   H16       1.0  0.12010852431964744  0.9956826485733644  0.2098606259227083  1.0000
  H   H17       1.0  0.3319793026840119  0.5514780182940555  0.4973071192616914  1.0000
  H   H18       1.0  0.6680269173017096  0.4485255716653286  0.5026922594073895  1.0000
  H   H19       1.0  0.40615545607340664  0.3532550992794796  0.6099345057114718  1.0000
  H   H20       1.0  0.5938470018267523  0.6467494827975386  0.3900677571099466  1.0000
  H   H21       1.0  0.1881765125599486  0.267955246801094  0.7717240246821219  1.0000
  H   H22       1.0  0.8118236337798665  0.7320464474566466  0.22827561512154665  1.0000
  H   H23       1.0  0.9073609320797759  0.3734713787127363  0.8062090877668524  1.0000
  H   H24       1.0  0.09264153541851532  0.6265331924410306  0.19379157124726729  1.0000
  H   H25       1.0  0.6757933891142331  0.4150578809181199  0.7748443103759328  1.0000
  H   H26       1.0  0.32420668974694433  0.5849457041012943  0.22515117501716736  1.0000
  H   H27       1.0  0.3974398184205583  0.5251063249355925  0.7891038519647113  1.0000
  H   H28       1.0  0.6025579875645023  0.47489251427262497  0.21089797624310336  1.0000
  H   H29       1.0  0.37537975685561525  0.7449010608836492  0.6939426692668961  1.0000
  H   H30       1.0  0.6246156099562654  0.2550977566867302  0.306054714777389  1.0000
  H   H31       1.0  0.6389136493087123  0.8490870321747721  0.5926593015569708  1.0000
  H   H32       1.0  0.3610766251607701  0.1509147066106138  0.4073418072801688  1.0000
  Pb  Pb1       1.0  0.043588465018345304  0.7800930888238117  0.4767817376387811  1.0000
  Pb  Pb2       1.0  0.9564115850484216  0.21991052896534313  0.5232185591762146  1.0000
  C   C1        1.0  0.18387393872231433  0.9439608034692458  0.6122869708713026  1.0000
  C   C2        1.0  0.8161161745408663  0.05604383972895022  0.3877179301455983  1.0000
  C   C3        1.0  0.25620794903574057  0.9974707780438054  0.6976643747814535  1.0000
  C   C4        1.0  0.7437922839789836  0.0025290036057726  0.3023362118181794  1.0000
  C   C5        1.0  0.39236340726689894  0.07440885656297522  0.6603912045950154  1.0000
  C   C6        1.0  0.6076357385731371  0.925588042624625  0.3396081791649904  1.0000
  C   C7        1.0  0.4804381793944544  0.11412959862077089  0.7334990930479391  1.0000
  C   C8        1.0  0.519563444011297  0.885867278511668  0.2664983196463949  1.0000
  C   C9        1.0  0.6329596480830589  0.18975077897366083  0.690619438341628  1.0000
  C   C10       1.0  0.3670419753226924  0.8102460981587853  0.30937797435271364  1.0000
  C   C11       1.0  0.42785203847469694  0.07868195156267892  0.8465535159127883  1.0000
  C   C12       1.0  0.5721506263687605  0.9213187670666376  0.15344502717502448  1.0000
  C   C13       1.0  0.2895909617972309  0.005140547907480199  0.8848964849995156  1.0000
  C   C14       1.0  0.7104166389813856  0.9948601484580167  0.11510132357155811  1.0000
  C   C15       1.0  0.20216594841309643  0.9625619126151365  0.8120313846647562  1.0000
  C   C16       1.0  0.7978330410196933  0.03743788552364441  0.1879709893713652  1.0000
  C   C17       1.0  0.059226320502453716  0.881115737522265  0.8573483817959444  1.0000
  C   C18       1.0  0.9407714157502769  0.11888408802897034  0.14265738348395726  1.0000
  C   C19       1.0  0.08157858105344222  0.7675866032326298  0.9226218926002048  1.0000
  C   C20       1.0  0.9184192658695454  0.23241128240231032  0.07738080995741829  1.0000
  C   C21       1.0  0.953047942140394  0.6850334335205518  0.9608871769488021  1.0000
  C   C22       1.0  0.04695231261597849  0.31496541640225223  0.03911749161524371  1.0000
  C   C23       1.0  0.7973906238690136  0.7164626421170798  0.9377813754051801  1.0000
  C   C24       1.0  0.20261097074233456  0.28353426778510743  0.0622208487110569  1.0000
  C   C25       1.0  0.6659920765493439  0.6234537486079504  0.9730181160234395  1.0000
  C   C26       1.0  0.3340094675259452  0.37654412579075824  0.026984837550280395  1.0000
  C   C27       1.0  0.7720376375865713  0.8330632145909366  0.8773936446701996  1.0000
  C   C28       1.0  0.22796515486971464  0.16693463785694015  0.1226067195633931  1.0000
  C   C29       1.0  0.9019827582296785  0.9140923518059696  0.8368650324575739  1.0000
  C   C30       1.0  0.09801870396977112  0.0859074297392723  0.16313617241652884  1.0000
  C   C31       1.0  0.24180618390652603  0.5068099781404385  0.5657058566673854  1.0000
  C   C32       1.0  0.7581949677321377  0.49319650572582663  0.4342932372762931  1.0000
  C   C33       1.0  0.28243295911978095  0.39852012063140324  0.6295459979630351  1.0000
  C   C34       1.0  0.7175636007379753  0.6014796449462949  0.3704503281022582  1.0000
  C   C35       1.0  0.1611305547701036  0.35102679513390467  0.7183587845340327  1.0000
  C   C36       1.0  0.8388707702183781  0.6489758635160285  0.2816422030015886  1.0000
  C   C37       1.0  0.0036467463337004026  0.4100646244253737  0.7379661108356004  1.0000
  C   C38       1.0  0.9963498039259236  0.5899351520755759  0.2620318190369915  1.0000
  C   C39       1.0  0.970423219726314  0.5156734818876887  0.6674654900329388  1.0000
  C   C40       1.0  0.029578073922380106  0.4843301194122631  0.3325330193455756  1.0000
  C   C41       1.0  0.8027773938550954  0.5768494591114646  0.6795323291386239  1.0000
  C   C42       1.0  0.197218061885394  0.42314835026940767  0.32045791021897685  1.0000
  C   C43       1.0  0.6629197504268947  0.5123805875270548  0.7379344476513126  1.0000
  C   C44       1.0  0.337081555365316  0.48762209296937437  0.262069747498913  1.0000
  C   C45       1.0  0.5078675962915399  0.5731856258292325  0.7441089172995063  1.0000
  C   C46       1.0  0.4921266568049419  0.42681124646757257  0.2558839838443917  1.0000
  C   C47       1.0  0.495104789537244  0.6958818048534356  0.6922999251879958  1.0000
  C   C48       1.0  0.5048942286899631  0.30411796051560464  0.307697637426223  1.0000
  C   C49       1.0  0.6399815549467791  0.7532813840106344  0.6352548653856901  1.0000
  C   C50       1.0  0.36001114175329724  0.2467213026777415  0.3647458037469207  1.0000
  N   N1        1.0  0.09030738362520203  0.5635119390433162  0.5837636567495252  1.0000
  N   N2        1.0  0.9096928276478737  0.4364887743330359  0.416232847885702  1.0000
  N   N3        1.0  0.7896694762881894  0.6950283198605974  0.628443205236799  1.0000
  N   N4        1.0  0.2103268766262758  0.30497530916480303  0.3715568405621  1.0000
  O   O1        1.0  0.13415381134252158  0.8290271993184039  0.634196844353923  1.0000
  O   O2        1.0  0.8658400953460018  0.17097550911213233  0.3658076506677546  1.0000
  O   O3        1.0  0.17987435234433496  0.0099553511205954  0.5222577983417338  1.0000
  O   O4        1.0  0.8201259673452982  0.9900425179208128  0.4777437350538706  1.0000
  O   O5        1.0  0.6494065889863023  0.24669956059580764  0.5926762903932711  1.0000
  O   O6        1.0  0.35059494294547033  0.7532992346064232  0.40732097740874457  1.0000
  O   O7        1.0  0.7370121078212081  0.1910708201807907  0.7500441570089151  1.0000
  O   O8        1.0  0.26298937837357533  0.8089289340563327  0.24995303834693763  1.0000
  O   O9        1.0  0.5137898192960862  0.6709611915776537  0.9761677838656126  1.0000
  O   O10       1.0  0.48621304543789984  0.32903476464693443  0.02383593287489559  1.0000
  O   O11       1.0  0.6979117846432743  0.507156650981628  0.9965686524954904  1.0000
  O   O12       1.0  0.30209120035910086  0.49283735440342014  0.0034303977154408302  1.0000
