data_image0
_chemical_formula_structural       Zn4H22C41O14
_chemical_formula_sum              "Zn4 H22 C41 O14"
_cell_length_a       15.110342784467438
_cell_length_b       15.257053511168339
_cell_length_c       19.493477448510948
_cell_angle_alpha    89.12317931207018
_cell_angle_beta     89.23045098610159
_cell_angle_gamma    90.15346758888982

_space_group_name_H-M_alt    "P 1"
_space_group_IT_number       1

loop_
  _space_group_symop_operation_xyz
  'x, y, z'

loop_
  _atom_site_type_symbol
  _atom_site_label
  _atom_site_symmetry_multiplicity
  _atom_site_fract_x
  _atom_site_fract_y
  _atom_site_fract_z
  _atom_site_occupancy
  Zn  Zn1       1.0  0.5766299230594711  0.568438597107125  0.4384276669522438  1.0000
  Zn  Zn2       1.0  0.43091171036406456  0.5844949910390155  0.5557298557746365  1.0000
  Zn  Zn3       1.0  0.5699144738440366  0.4228847152305946  0.5585085079155762  1.0000
  Zn  Zn4       1.0  0.4164330624221221  0.4272800352087742  0.4490376848858234  1.0000
  H   H1        1.0  0.5910291256295324  0.5839070060378971  0.2269206737406364  1.0000
  H   H2        1.0  0.6584408946475476  0.8342719379805954  0.44128284144783  1.0000
  H   H3        1.0  0.33778429692808487  0.0009290220275773  0.5561221407958856  1.0000
  H   H4        1.0  0.5720610346443492  0.38929596479237455  0.7709404687847512  1.0000
  H   H5        1.0  0.6784497036306406  0.9960243110259055  0.443611214499768  1.0000
  H   H6        1.0  0.3481000070033958  0.1636387683145486  0.5506142813398541  1.0000
  H   H7        1.0  0.45827393955308077  0.6469633494123243  0.7630669712017452  1.0000
  H   H8        1.0  0.5192933430130607  0.593692105391959  0.9996926020919621  1.0000
  H   H9        1.0  0.40983953024898073  0.3575729431524265  0.11277243273791981  1.0000
  H   H10       1.0  0.5721797578613134  0.39335345993598037  0.898513572952645  1.0000
  H   H11       1.0  0.4043699863659498  0.37125361100660825  0.23998469352010698  1.0000
  H   H12       1.0  0.4630931084054025  0.6542576624047384  0.8906473578769437  1.0000
  H   H13       1.0  0.4869945407907039  0.3945495084067685  0.0015771137423286007  1.0000
  H   H14       1.0  0.5953240326020293  0.5727632268861952  0.09976267151702703  1.0000
  H   H15       1.0  0.6244302892336648  0.237138989750008  0.46107964548753705  1.0000
  H   H16       1.0  0.14439963386589486  0.39091337160935763  0.4811724582680912  1.0000
  H   H17       1.0  0.1621534143424697  0.6633108988955811  0.5325607690986445  1.0000
  H   H18       1.0  0.9966433142388665  0.3194834267985767  0.4723749254347141  1.0000
  H   H19       1.0  0.9981491385466512  0.6778134253533069  0.5252823026568552  1.0000
  H   H20       1.0  0.832280950043014  0.33045610893476857  0.4758785387783818  1.0000
  H   H21       1.0  0.8505649642941222  0.6094037630536704  0.503931821241153  1.0000
  H   H22       1.0  0.40152919758341443  0.857198051178301  0.5357564501319346  1.0000
  C   C1        1.0  0.2604039667240059  0.5178286461864587  0.5076673060331205  1.0000
  C   C2        1.0  0.5015785877279055  0.4592039667942842  0.022313976482749402  1.0000
  C   C3        1.0  0.5138711055691444  0.527895174451352  0.9785051466705001  1.0000
  C   C4        1.0  0.7343357139187957  0.4787583824723781  0.4906315954736514  1.0000
  C   C5        1.0  0.514144132697659  0.5174489172028699  0.7594177864090599  1.0000
  C   C6        1.0  0.1621684655171336  0.5258109058504203  0.5063436148313302  1.0000
  C   C7        1.0  0.8326938752219134  0.47148225229422985  0.48959920983752886  1.0000
  C   C8        1.0  0.9644341378546955  0.38250244500337516  0.4805706834018795  1.0000
  C   C9        1.0  0.8735816859761985  0.3884553711016493  0.48186196823343874  1.0000
  C   C10       1.0  0.8832562405181008  0.5462028652181204  0.49828326872681583  1.0000
  C   C11       1.0  0.9765346548366479  0.5409490376686392  0.5018203521305298  1.0000
  C   C12       1.0  0.5012573545172571  0.46567163738801287  0.0969556204633264  1.0000
  C   C13       1.0  0.018136222805367204  0.45767455352662256  0.4909479847737117  1.0000
  C   C14       1.0  0.11149697633467068  0.4529041411299487  0.4916070709613578  1.0000
  C   C15       1.0  0.12081935501822728  0.607325317623804  0.5200607160917273  1.0000
  C   C16       1.0  0.5180857522643407  0.7389636667406945  0.4897990352781961  1.0000
  C   C17       1.0  0.030256419637353798  0.6148866943688629  0.5163571897191161  1.0000
  C   C18       1.0  0.5286763519417262  0.8362372979533458  0.4891801553831244  1.0000
  C   C19       1.0  0.4825619230994462  0.16402952888775246  0.5106985939812247  1.0000
  C   C20       1.0  0.39799041229152005  0.033205943865169694  0.5369650372078425  1.0000
  C   C21       1.0  0.40364337452204063  0.12317642213618997  0.534289360186243  1.0000
  C   C22       1.0  0.5555207332516332  0.1151914560046592  0.48853352729862126  1.0000
  C   C23       1.0  0.44928476387707406  0.40767019717278424  0.13767768230549396  1.0000
  C   C24       1.0  0.5493849515021622  0.0210883015416741  0.48840197738091723  1.0000
  C   C25       1.0  0.46930367602332973  0.980416961869693  0.5139955139590455  1.0000
  C   C26       1.0  0.4615782609974488  0.8880720548142091  0.5151108903210899  1.0000
  C   C27       1.0  0.606639398067969  0.8761162920106926  0.4621413101207212  1.0000
  C   C28       1.0  0.483968081820464  0.26262613532675516  0.5109970457004637  1.0000
  C   C29       1.0  0.6175287255160952  0.9659175683528428  0.4628080172851342  1.0000
  C   C30       1.0  0.5119636604880637  0.513778570039271  0.6832060868810077  1.0000
  C   C31       1.0  0.4949695436878229  0.4863395941260507  0.31716555909256533  1.0000
  C   C32       1.0  0.49679996389713216  0.478924678670239  0.24110145974437103  1.0000
  C   C33       1.0  0.5505370715677599  0.5356089765333323  0.20117464649946737  1.0000
  C   C34       1.0  0.44594185778998957  0.4149631958544333  0.20866544052078953  1.0000
  C   C35       1.0  0.5522484862684036  0.5294129056863284  0.13023491200085152  1.0000
  C   C36       1.0  0.6345556966550986  0.16485867792255246  0.4644259319092258  1.0000
  C   C37       1.0  0.5461754993198583  0.4486951284405336  0.8690613584264499  1.0000
  C   C38       1.0  0.5466358891225909  0.44622033352932533  0.7978635369027887  1.0000
  C   C39       1.0  0.48339168528442394  0.592070385767876  0.7933791612074261  1.0000
  C   C40       1.0  0.4859439482068381  0.5955772460251225  0.8644785098795115  1.0000
  C   C41       1.0  0.5154621652663423  0.5233195791154442  0.9038066311551632  1.0000
  O   O1        1.0  0.49815436816719927  0.5004008497866081  0.5005891471492063  1.0000
  O   O2        1.0  0.4616133635651564  0.5686457397792137  0.6526722170766563  1.0000
  O   O3        1.0  0.43658146732003905  0.44095911747117356  0.3500568189355207  1.0000
  O   O4        1.0  0.5605089899349595  0.45574453410736016  0.6546750487992059  1.0000
  O   O5        1.0  0.5519429679800182  0.5377023053644051  0.3434209253896868  1.0000
  O   O6        1.0  0.7071418531689985  0.13450553753230568  0.44872094319383404  1.0000
  O   O7        1.0  0.5689476246008738  0.6960041237156387  0.4497940303934201  1.0000
  O   O8        1.0  0.4340997551500863  0.300291023004867  0.4675889591423613  1.0000
  O   O9        1.0  0.3028955512984409  0.5764153971808597  0.5399874933706172  1.0000
  O   O10       1.0  0.6912885571075124  0.41642168951398867  0.5205905100503047  1.0000
  O   O11       1.0  0.29411149165186146  0.45260584454606345  0.47632414789214295  1.0000
  O   O12       1.0  0.7012168214172262  0.5468777905169802  0.4623397552376576  1.0000
  O   O13       1.0  0.4588424726276513  0.7067921381387805  0.5302123630537849  1.0000
  O   O14       1.0  0.5318941727268652  0.2986925565014786  0.5557418359928762  1.0000
