data_image0
_chemical_formula_structural       Na2H14C8O12
_chemical_formula_sum              "Na2 H14 C8 O12"
_cell_length_a       6.199547287194457
_cell_length_b       7.7995724334878735
_cell_length_c       8.016606637611085
_cell_angle_alpha    116.37189627861342
_cell_angle_beta     103.10796264131027
_cell_angle_gamma    101.12395427166365

_space_group_name_H-M_alt    "P 1"
_space_group_IT_number       1

loop_
  _space_group_symop_operation_xyz
  'x, y, z'

loop_
  _atom_site_type_symbol
  _atom_site_label
  _atom_site_symmetry_multiplicity
  _atom_site_fract_x
  _atom_site_fract_y
  _atom_site_fract_z
  _atom_site_occupancy
  Na  Na1       1.0  0.4812971077685119  0.7364962454712082  0.656167512915701  1.0000
  Na  Na2       1.0  0.5187064046905264  0.2635060244387333  0.3438359815329051  1.0000
  H   H1        1.0  0.24002496532446577  0.9969648650910513  0.9180039322027013  1.0000
  H   H2        1.0  0.7599726613191322  0.0030312542951449  0.08199101193910963  1.0000
  H   H3        1.0  0.7570576486969217  0.659484343511579  0.39700600717457485  1.0000
  H   H4        1.0  0.24294485957360487  0.34051948485956984  0.6029992332802719  1.0000
  H   H5        1.0  0.9023678193479582  0.6852914894868859  0.5993608979614963  1.0000
  H   H6        1.0  0.09764129063554353  0.31471228333687407  0.4006453866812336  1.0000
  H   H7        1.0  0.27096640285761714  0.006946197628536799  0.6033844401963862  1.0000
  H   H8        1.0  0.7290359860380422  0.993057555314543  0.3966170056188716  1.0000
  H   H9        1.0  0.2607205253833841  0.8824531143927956  0.3855876887177415  1.0000
  H   H10       1.0  0.7392868545886275  0.11755062203243229  0.6144158051182913  1.0000
  H   H11       1.0  0.014624137223208326  0.4727239715659763  0.7496282016491307  1.0000
  H   H12       1.0  0.9853723958990274  0.5272691843849557  0.25036905278555827  1.0000
  H   H13       1.0  0.3209733251669178  0.6004639196560646  0.16679433153105797  1.0000
  H   H14       1.0  0.679023585579145  0.399538405801266  0.833208118729651  1.0000
  C   C1        1.0  0.16959335005731901  0.7857171042916278  0.98669346658545  1.0000
  C   C2        1.0  0.8303999616158536  0.2142728003985965  0.01329065853681755  1.0000
  C   C3        1.0  0.05102062276395709  0.5647082948976702  0.909259735192819  1.0000
  C   C4        1.0  0.9489776899110043  0.43528939420557566  0.0907384808820595  1.0000
  C   C5        1.0  0.17078564621625253  0.4810830275739661  0.033706127029041966  1.0000
  C   C6        1.0  0.8292117020618195  0.5189162451331769  0.9662950999319406  1.0000
  C   C7        1.0  0.2523069792493828  0.3031797699244407  0.9311861414783635  1.0000
  C   C8        1.0  0.7476927054882909  0.6968210586129046  0.06881861846266446  1.0000
  O   O1        1.0  0.2517797099077372  0.9142199093811954  0.1670179937959801  1.0000
  O   O2        1.0  0.7482177277031996  0.0857838852224191  0.8329826688783585  1.0000
  O   O3        1.0  0.17866180317334115  0.8341818621164876  0.848093144967862  1.0000
  O   O4        1.0  0.821333049478646  0.16581575418969416  0.15189948949362284  1.0000
  O   O5        1.0  0.2988663219200234  0.21277441087711674  0.02842312210182028  1.0000
  O   O6        1.0  0.7011371905390077  0.7872278590328249  0.9715803723467785  1.0000
  O   O7        1.0  0.27251719665878943  0.2531339711942876  0.7644768322555393  1.0000
  O   O8        1.0  0.7274830149437578  0.7468683264893484  0.2355261400991183  1.0000
  O   O9        1.0  0.746427553753158  0.6138163153258631  0.49389495404662404  1.0000
  O   O10       1.0  0.2535776489257415  0.38618596583992115  0.5061100663288158  1.0000
  O   O11       1.0  0.26229660000646504  0.8703210053311281  0.5028368290961964  1.0000
  O   O12       1.0  0.7377074393174399  0.1296827337251045  0.49716487776603213  1.0000
