data_image0
_chemical_formula_structural       Co2H34C46N4O14
_chemical_formula_sum              "Co2 H34 C46 N4 O14"
_cell_length_a       7.389012099849
_cell_length_b       10.801271916517598
_cell_length_c       13.01266375606107
_cell_angle_alpha    104.84565244239236
_cell_angle_beta     95.81061724168114
_cell_angle_gamma    96.03256427357447

_space_group_name_H-M_alt    "P 1"
_space_group_IT_number       1

loop_
  _space_group_symop_operation_xyz
  'x, y, z'

loop_
  _atom_site_type_symbol
  _atom_site_label
  _atom_site_symmetry_multiplicity
  _atom_site_fract_x
  _atom_site_fract_y
  _atom_site_fract_z
  _atom_site_occupancy
  Co  Co1       1.0  0.9234882869387778  0.751019391478039  0.6643846399735126  1.0000
  Co  Co2       1.0  0.07624153293292582  0.2492264458437248  0.3359251780779502  1.0000
  H   H1        1.0  0.6458313120642103  0.6363425252497026  0.7890404282326742  1.0000
  H   H2        1.0  0.35422190345656895  0.36404670021756397  0.21114846235671783  1.0000
  H   H3        1.0  0.5300427771611143  0.7311718011337974  0.9614458980101334  1.0000
  H   H4        1.0  0.4676333396274687  0.2693666253281961  0.03793915289837459  1.0000
  H   H5        1.0  0.6307171114241896  0.9656107591857578  0.05935489666829598  1.0000
  H   H6        1.0  0.3653377341696498  0.035237615907377104  0.9397519320845191  1.0000
  H   H7        1.0  0.8140328080814356  0.18219981043746009  0.056717054334946206  1.0000
  H   H8        1.0  0.1819037632036355  0.81867073952899  0.9425649660797575  1.0000
  H   H9        1.0  0.0014660237120552072  0.304527457737791  0.9580024293137299  1.0000
  H   H10       1.0  0.9971899699879431  0.6960967175748963  0.04223819656012042  1.0000
  H   H11       1.0  0.1351527356433948  0.307414416420734  0.7801176914381571  1.0000
  H   H12       1.0  0.8665995117681788  0.6931207234922923  0.2212082553357462  1.0000
  H   H13       1.0  0.19670198242628353  0.1764338456123156  0.6016056837117887  1.0000
  H   H14       1.0  0.8084078648848136  0.8240670719248088  0.40050847337288087  1.0000
  H   H15       1.0  0.10405790371829948  0.9386118303375357  0.5470434535877473  1.0000
  H   H16       1.0  0.9009008771598064  0.06194451744281789  0.4547793232237396  1.0000
  H   H17       1.0  0.6079603859815209  0.0674699848145295  0.5065109546261795  1.0000
  H   H18       1.0  0.3932894805442473  0.9313146333819945  0.493548202563268  1.0000
  H   H19       1.0  0.505009275915043  0.03317214649668901  0.6752396565710654  1.0000
  H   H20       1.0  0.4970053154931334  0.9658346879170666  0.325237738239025  1.0000
  H   H21       1.0  0.5615922047063577  0.217382516366854  0.8413671573340905  1.0000
  H   H22       1.0  0.4403702215637253  0.7820198396341098  0.1588150734921214  1.0000
  H   H23       1.0  0.8236000103214137  0.4879315401268727  0.06847703761382462  1.0000
  H   H24       1.0  0.17726862874027202  0.5118958689461267  0.9306221306314484  1.0000
  H   H25       1.0  0.599172366453594  0.5466857521138027  0.19582424222183195  1.0000
  H   H26       1.0  0.4016710278226513  0.45288012433002944  0.8033142953211723  1.0000
  H   H27       1.0  0.15500148481802264  0.651899351494798  0.7633220812156694  1.0000
  H   H28       1.0  0.8449619569890743  0.3471489903309291  0.23642607653380304  1.0000
  H   H29       1.0  0.26480989560346313  0.7563003868783513  0.719059702133329  1.0000
  H   H30       1.0  0.7348547504824765  0.242764698406269  0.2809590413310091  1.0000
  H   H31       1.0  0.6761249981484596  0.646912689616201  0.5026999326984622  1.0000
  H   H32       1.0  0.32292481834090137  0.35434759553503176  0.49703200519658  1.0000
  H   H33       1.0  0.5592125265761396  0.7462273882613033  0.566086057430688  1.0000
  H   H34       1.0  0.4398207897255944  0.2542603099742635  0.4343212773518275  1.0000
  C   C1        1.0  0.8481996312011049  0.9348812693947579  0.8377031867589083  1.0000
  C   C2        1.0  0.15034785199330267  0.0657620093559999  0.1622475887787189  1.0000
  C   C3        1.0  0.6857692186080585  0.7375348635204447  0.8320482171061273  1.0000
  C   C4        1.0  0.3132791237214577  0.2630091510794089  0.16795739980506852  1.0000
  C   C5        1.0  0.6219409850365736  0.7927591079951952  0.9292831860686306  1.0000
  C   C6        1.0  0.37591074561193955  0.2078403154295927  0.07030734877179871  1.0000
  C   C7        1.0  0.6756518979847856  0.9220916180132404  0.9826475981329708  1.0000
  C   C8        1.0  0.3213172256814192  0.07866150399171093  0.016761498794210208  1.0000
  C   C9        1.0  0.790112345075052  0.998375611283784  0.9352884907399358  1.0000
  C   C10       1.0  0.207204895622354  0.0023840568309765006  0.0642877549359895  1.0000
  C   C11       1.0  0.8518226219782719  0.13421907562560878  0.9787475056823497  1.0000
  C   C12       1.0  0.14518121052018534  0.8666092911484359  0.020835483962599745  1.0000
  C   C13       1.0  0.9571359450383954  0.20114105827018147  0.9246704497360058  1.0000
  C   C14       1.0  0.04132096980867324  0.7995024821930842  0.07548005927360185  1.0000
  C   C15       1.0  0.0089108296185714  0.1391291171845239  0.8225095166306602  1.0000
  C   C16       1.0  0.9910419904972446  0.8613943238142173  0.17804935048789625  1.0000
  C   C17       1.0  0.09969904997604571  0.20272561048459184  0.7561535009546674  1.0000
  C   C18       1.0  0.9021166280804138  0.797783003119271  0.2450736499733637  1.0000
  C   C19       1.0  0.1323828056623455  0.1305012376349808  0.6568333526723436  1.0000
  C   C20       1.0  0.8712235357380537  0.8700050603670917  0.34480835028160334  1.0000
  C   C21       1.0  0.08033617059553674  0.9960993459947927  0.6248999028818361  1.0000
  C   C22       1.0  0.9230151644393345  0.004410075262633501  0.3765909070972456  1.0000
  C   C23       1.0  0.9570118470612883  0.0043002039399695  0.7823769979645762  1.0000
  C   C24       1.0  0.042703828257501214  0.9962121932404958  0.2179859146548112  1.0000
  C   C25       1.0  0.9047790803136027  0.48687660660804977  0.6844985707155189  1.0000
  C   C26       1.0  0.09493771929272306  0.5125736533040312  0.31481024560674353  1.0000
  C   C27       1.0  0.7820784408723044  0.3621054369000235  0.6745351430191207  1.0000
  C   C28       1.0  0.2178867338573838  0.6371610867989403  0.3248475882870636  1.0000
  C   C29       1.0  0.7852799530683258  0.26966315396254  0.4719731418732707  1.0000
  C   C30       1.0  0.21361957687499716  0.729329937218566  0.5274966492044655  1.0000
  C   C31       1.0  0.7359229747425929  0.2620518061894899  0.5796108387732772  1.0000
  C   C32       1.0  0.26383667535763083  0.7370529697729397  0.4199589928731413  1.0000
  C   C33       1.0  0.637426390569523  0.14438966485413118  0.5808608812027957  1.0000
  C   C34       1.0  0.3632500857238696  0.854571461206831  0.4190745194683458  1.0000
  C   C35       1.0  0.5783291493987478  0.1259623073956533  0.674589659430012  1.0000
  C   C36       1.0  0.423074557373404  0.8730928651446704  0.3255521575595353  1.0000
  C   C37       1.0  0.610813933512226  0.22774531389120514  0.7675801835790139  1.0000
  C   C38       1.0  0.39050178947457687  0.7715002138284393  0.23238905228242154  1.0000
  C   C39       1.0  0.7128718716445093  0.34364066728375064  0.766884591236682  1.0000
  C   C40       1.0  0.2877209421552892  0.6556904566508593  0.23264282785070384  1.0000
  C   C41       1.0  0.6262040136107102  0.4673676176191251  0.9284614790050655  1.0000
  C   C42       1.0  0.3745986336218153  0.5325527875388901  0.0707824434357462  1.0000
  C   C43       1.0  0.6826261802341094  0.49430700070143996  0.03845584916334841  1.0000
  C   C44       1.0  0.3182435036348253  0.5056764319882063  0.9607491376885451  1.0000
  C   C45       1.0  0.5562064021641361  0.5273738417645433  0.10996064187405348  1.0000
  C   C46       1.0  0.44464307593373326  0.4725080491003125  0.8892231078901744  1.0000
  N   N1        1.0  0.9957236251142163  0.9321934940490524  0.6862145231653259  1.0000
  N   N2        1.0  0.0054116051072626  0.0682853618100552  0.31452269301685476  1.0000
  N   N3        1.0  0.8005711047305866  0.8059433351669018  0.7871680333692909  1.0000
  N   N4        1.0  0.19872246414110611  0.19460847421561311  0.2129764455016456  1.0000
  O   O1        1.0  0.82838552027183  0.5704436865166259  0.6465194695561465  1.0000
  O   O2        1.0  0.17046589448250427  0.4296968653994143  0.35412789437394576  1.0000
  O   O3        1.0  0.0648396580648409  0.500295621118802  0.7326607710982742  1.0000
  O   O4        1.0  0.9355625003673609  0.4985295638003253  0.26550344623301925  1.0000
  O   O5        1.0  0.9556583451907129  0.29462945628286263  0.4645608812767891  1.0000
  O   O6        1.0  0.0430616649588202  0.7056590878753753  0.5350511799572644  1.0000
  O   O7        1.0  0.6536986402536942  0.24036618492799286  0.3951733943455197  1.0000
  O   O8        1.0  0.34505759223930005  0.7575664739509094  0.6043052040720482  1.0000
  O   O9        1.0  0.7592212801472371  0.44371585039979083  0.8604013647556384  1.0000
  O   O10       1.0  0.2415251532472951  0.5559139057780413  0.1389020769745457  1.0000
  O   O11       1.0  0.18194045261076044  0.7478932111415375  0.7737797815545449  1.0000
  O   O12       1.0  0.8176295012075911  0.2512287969418524  0.2261796012735715  1.0000
  O   O13       1.0  0.681040967986263  0.7381512536294609  0.5394569982165862  1.0000
  O   O14       1.0  0.31840791835458754  0.2627840905396113  0.4613714542374154  1.0000
