data_image0
_chemical_formula_structural       Zn2H10C20I4N2O8
_chemical_formula_sum              "Zn2 H10 C20 I4 N2 O8"
_cell_length_a       10.014166564641778
_cell_length_b       11.299617166936287
_cell_length_c       13.21872502156086
_cell_angle_alpha    95.97985587712132
_cell_angle_beta     93.02634644475928
_cell_angle_gamma    93.47402115769039

_space_group_name_H-M_alt    "P 1"
_space_group_IT_number       1

loop_
  _space_group_symop_operation_xyz
  'x, y, z'

loop_
  _atom_site_type_symbol
  _atom_site_label
  _atom_site_symmetry_multiplicity
  _atom_site_fract_x
  _atom_site_fract_y
  _atom_site_fract_z
  _atom_site_occupancy
  Zn  Zn1       1.0  0.6362558713691016  0.48430527929852485  0.5034339854624008  1.0000
  Zn  Zn2       1.0  0.3647752881948634  0.5168009610277053  0.4889004963395818  1.0000
  H   H1        1.0  0.7328703913871095  0.42070153524764464  0.19115230027227165  1.0000
  H   H2        1.0  0.26921910775219265  0.5765980618419704  0.8008300831833776  1.0000
  H   H3        1.0  0.3832932682705561  0.9041388863118699  0.505740886321604  1.0000
  H   H4        1.0  0.6168325963481254  0.09696113212898182  0.48649342260596734  1.0000
  H   H5        1.0  0.6834485247540697  0.8843554217980412  0.46996840684661106  1.0000
  H   H6        1.0  0.31652977963928924  0.11666786165146455  0.5218954911134472  1.0000
  H   H7        1.0  0.8987872806885022  0.4879344506673675  0.3994297272832696  1.0000
  H   H8        1.0  0.10212600222519802  0.5134910224858302  0.5935428092356003  1.0000
  H   H9        1.0  0.8673168183181942  0.4911326616732197  0.6195603891633323  1.0000
  H   H10       1.0  0.1332214111113146  0.5104811535571301  0.37340353580602675  1.0000
  C   C1        1.0  0.45190215536103306  0.2739769184425072  0.5100276438538953  1.0000
  C   C2        1.0  0.5480462336921549  0.7270991183952802  0.4820706825194704  1.0000
  C   C3        1.0  0.0721634912456466  0.5087216300588793  0.5119910409224673  1.0000
  C   C4        1.0  0.9287758577410303  0.4928112475944886  0.48098240923349767  1.0000
  C   C5        1.0  0.47595450962426616  0.5399891018127505  0.6945801283848352  1.0000
  C   C6        1.0  0.5266578540219697  0.46006743184047844  0.29788141340647906  1.0000
  C   C7        1.0  0.5274697891833854  0.45954532805976106  0.18356877020728035  1.0000
  C   C8        1.0  0.4749026418896705  0.5387473579443524  0.808701289065766  1.0000
  C   C9        1.0  0.3326639073584516  0.5462100907179278  0.9533160099976566  1.0000
  C   C10       1.0  0.6689609803222112  0.4501717369359852  0.038548026195193985  1.0000
  C   C11       1.0  0.3497514598718681  0.5516909368601617  0.8512787600965621  1.0000
  C   C12       1.0  0.6523252359862041  0.4455711183880526  0.14073589029776196  1.0000
  C   C13       1.0  0.5853526439829793  0.5265262202163401  0.8744847217659311  1.0000
  C   C14       1.0  0.41676624425313236  0.4710121854996743  0.11778779078855448  1.0000
  C   C15       1.0  0.5672871307717742  0.4936554207555092  0.9747887130883013  1.0000
  C   C16       1.0  0.43441089865654453  0.5030113040554907  0.01717571210572539  1.0000
  C   C17       1.0  0.4207678846407035  0.14443017915476017  0.5115165755880041  1.0000
  C   C18       1.0  0.579251845353923  0.8566234584071851  0.4805154740180483  1.0000
  C   C19       1.0  0.5142266609913122  0.06384009888954982  0.497330930340162  1.0000
  C   C20       1.0  0.48586652652785745  0.9372517361243382  0.49481400173643647  1.0000
  I   I1        1.0  0.22618696566792101  0.3992587276030762  0.15346109270752348  1.0000
  I   I2        1.0  0.7765505356437288  0.5978572858983567  0.8397513775610218  1.0000
  I   I3        1.0  0.16577215187455607  0.6365011416390517  0.005066109948742807  1.0000
  I   I4        1.0  0.8344926423033385  0.3583316374633867  0.9862731825091371  1.0000
  N   N1        1.0  0.1644502467699809  0.5169070478222578  0.44940733786849296  1.0000
  N   N2        1.0  0.836408292573964  0.4846039233476133  0.5434773802964301  1.0000
  O   O1        1.0  0.5745819695830434  0.3115176576228578  0.5092619051467507  1.0000
  O   O2        1.0  0.42540029517865446  0.6898039270580585  0.483745629574372  1.0000
  O   O3        1.0  0.3515709551483965  0.33881036668280023  0.5087285406537275  1.0000
  O   O4        1.0  0.6482506315470998  0.6620628296894324  0.4824992760584194  1.0000
  O   O5        1.0  0.5858137085717203  0.5233033068579616  0.6535222494851212  1.0000
  O   O6        1.0  0.4172462687663909  0.4786450743039695  0.3390374595974278  1.0000
  O   O7        1.0  0.3637915335076016  0.5509022245620728  0.6474753381807119  1.0000
  O   O8        1.0  0.638673133707961  0.44861098926082826  0.34499584089104457  1.0000
