data_image0
_chemical_formula_structural       Cd4H56C80N16O16
_chemical_formula_sum              "Cd4 H56 C80 N16 O16"
_cell_length_a       11.217330901043077
_cell_length_b       16.094354761061183
_cell_length_c       16.2814672570023
_cell_angle_alpha    90.00001488499694
_cell_angle_beta     90.00005857159523
_cell_angle_gamma    90.00031391984183

_space_group_name_H-M_alt    "P 1"
_space_group_IT_number       1

loop_
  _space_group_symop_operation_xyz
  'x, y, z'

loop_
  _atom_site_type_symbol
  _atom_site_label
  _atom_site_symmetry_multiplicity
  _atom_site_fract_x
  _atom_site_fract_y
  _atom_site_fract_z
  _atom_site_occupancy
  Cd  Cd1       1.0  0.1750616329292356  0.4999967993600903  0.2500033932272244  1.0000
  Cd  Cd2       1.0  0.675058148688869  0.9999992186492079  0.7500052527946008  1.0000
  Cd  Cd3       1.0  0.32493755724682666  2.7912179199999847e-08  0.25000583668346366  1.0000
  Cd  Cd4       1.0  0.8249403133387857  0.5000012045402966  0.7499990975192288  1.0000
  H   H1        1.0  0.9247107170095035  0.7474141817938924  0.3533383541332355  1.0000
  H   H2        1.0  0.8550564214817481  0.8314907499613398  0.4712890126274657  1.0000
  H   H3        1.0  0.994074622574004  0.6456556885033461  0.6378452786792579  1.0000
  H   H4        1.0  0.0650332398629416  0.5641837275788858  0.5189840350514459  1.0000
  H   H5        1.0  0.7918920567678  0.9102076862623745  0.5819878692571121  1.0000
  H   H6        1.0  0.8449232780552759  0.8357295297889135  0.8268534012764801  1.0000
  H   H7        1.0  0.9308986476310322  0.7209503054957762  0.7385425792573412  1.0000
  H   H8        1.0  0.9247050408893852  0.25259406963321135  0.14666281295764347  1.0000
  H   H9        1.0  0.8550561444240896  0.16851350889837843  0.02871517688425479  1.0000
  H   H10       1.0  0.99407631397969  0.3543436349755851  0.8621530342648707  1.0000
  H   H11       1.0  0.06503040445880968  0.43581765920499277  0.9810142444410911  1.0000
  H   H12       1.0  0.7918944155499117  0.08979149061958937  0.918018287281789  1.0000
  H   H13       1.0  0.8449240754447159  0.16426736317076515  0.6731497212539564  1.0000
  H   H14       1.0  0.9308969185968788  0.2790469140128592  0.7614593748161693  1.0000
  H   H15       1.0  0.42470803219253367  0.7525921310596998  0.8533385718678941  1.0000
  H   H16       1.0  0.35505574661286227  0.6685116006586183  0.9712873657264891  1.0000
  H   H17       1.0  0.4940675350907212  0.8543439976756556  0.13784965399188553  1.0000
  H   H18       1.0  0.56502582447699  0.9358192691153631  0.018989394482417796  1.0000
  H   H19       1.0  0.2918926847370429  0.5897899749550887  0.08198480484728067  1.0000
  H   H20       1.0  0.3449227116717281  0.6642659104950184  0.32685158478921034  1.0000
  H   H21       1.0  0.43089363950294757  0.7790466812889959  0.23854140706613686  1.0000
  H   H22       1.0  0.4247067724947866  0.24740440849546264  0.6466661003106251  1.0000
  H   H23       1.0  0.3550585405070449  0.3314809463329808  0.5287105017496571  1.0000
  H   H24       1.0  0.4940791664010645  0.14565267673012977  0.362151827092404  1.0000
  H   H25       1.0  0.5650352070942475  0.06417953880942659  0.4810121360672212  1.0000
  H   H26       1.0  0.29189757579875664  0.4102040675238924  0.418012235929062  1.0000
  H   H27       1.0  0.34492664710266746  0.335728333402109  0.17314487875941603  1.0000
  H   H28       1.0  0.43089858314394985  0.22094975315510365  0.2614581873907582  1.0000
  H   H29       1.0  0.5752921311120217  0.24740463016499342  0.14665961951095594  1.0000
  H   H30       1.0  0.6449470911245426  0.3314845392356744  0.02871389662951169  1.0000
  H   H31       1.0  0.5059246049336891  0.14565649154976507  0.8621540651419861  1.0000
  H   H32       1.0  0.43496542406345634  0.0641799774363747  0.9810124820652104  1.0000
  H   H33       1.0  0.7081092615306729  0.4102086502807011  0.9180140007276945  1.0000
  H   H34       1.0  0.6550729942503108  0.33573209339311916  0.6731478349787705  1.0000
  H   H35       1.0  0.5691056323322243  0.22095194394179166  0.7614580127031656  1.0000
  H   H36       1.0  0.5752942822963405  0.7525929740679088  0.3533406898022448  1.0000
  H   H37       1.0  0.644944297230367  0.668515193561312  0.47129076060634373  1.0000
  H   H38       1.0  0.5059254542947541  0.8543447058389827  0.6378469784833383  1.0000
  H   H39       1.0  0.4349711965651862  0.9358197077708608  0.5189878978999117  1.0000
  H   H40       1.0  0.7081088278616007  0.5897951790565513  0.5819890264285872  1.0000
  H   H41       1.0  0.6550761906470156  0.6642709131715562  0.8268563835969898  1.0000
  H   H42       1.0  0.569102471650396  0.7790494934151792  0.7385430749650295  1.0000
  H   H43       1.0  0.07528855487538519  0.2525974914899506  0.6466586088567395  1.0000
  H   H44       1.0  0.14494106743445198  0.1685171953041049  0.5287097929471826  1.0000
  H   H45       1.0  0.005920191875126999  0.3543448007257268  0.3621473849408899  1.0000
  H   H46       1.0  0.9349633575416831  0.43581738298905737  0.4810055575931073  1.0000
  H   H47       1.0  0.2081045406484847  0.08979404564302478  0.4180140072927044  1.0000
  H   H48       1.0  0.15507599376961415  0.16426661009828783  0.17314540429723724  1.0000
  H   H49       1.0  0.06910151568380479  0.2790489410725029  0.2614562263170939  1.0000
  H   H50       1.0  0.07529244801453669  0.7474107689528606  0.8533359926165924  1.0000
  H   H51       1.0  0.14494580186772052  0.8314913296960781  0.9712830144962792  1.0000
  H   H52       1.0  0.005937221502634298  0.6456562329539606  0.1378457713143035  1.0000
  H   H53       1.0  0.9349777821490616  0.5641797233711258  0.018986403721676495  1.0000
  H   H54       1.0  0.20810663925901446  0.9102108626304641  0.08198604605070157  1.0000
  H   H55       1.0  0.15507252197003396  0.8357337473989187  0.3268533836862985  1.0000
  H   H56       1.0  0.06910235324857439  0.720954196561507  0.23854065914871814  1.0000
  C   C1        1.0  0.04991291824658359  0.6025573818297899  0.35818341662103836  1.0000
  C   C2        1.0  0.0021335266426448  0.6513116622776564  0.4287255744507376  1.0000
  C   C3        1.0  0.9413750733699113  0.7264994346053367  0.4159782890861975  1.0000
  C   C4        1.0  0.9021939730740409  0.7733195122602794  0.4823003140341554  1.0000
  C   C5        1.0  0.9221915534780575  0.7461087773680004  0.5635128997624432  1.0000
  C   C6        1.0  0.9801141304389559  0.6695826772444063  0.575943607765147  1.0000
  C   C7        1.0  0.019740159906945096  0.6231925297192689  0.5093473033872938  1.0000
  C   C8        1.0  0.8820530233083159  0.7968600455625248  0.631980308932121  1.0000
  C   C9        1.0  0.8228502910967704  0.872552312222609  0.6328610542237525  1.0000
  C   C10       1.0  0.8473391365721168  0.8367304979048096  0.7602451547938639  1.0000
  C   C11       1.0  0.04991105411632898  0.39745127493916477  0.14181222707744465  1.0000
  C   C12       1.0  0.0021293885050610996  0.3486955703387692  0.07127372111075658  1.0000
  C   C13       1.0  0.9413685771718502  0.27350888011528685  0.08402350381658147  1.0000
  C   C14       1.0  0.9021941392501985  0.22668616831088426  0.017702065752260396  1.0000
  C   C15       1.0  0.9221925624304956  0.25389524376894446  0.9364890482431033  1.0000
  C   C16       1.0  0.9801130511139389  0.33042032121932147  0.9240540812512207  1.0000
  C   C17       1.0  0.019733306696394896  0.37681241303878465  0.990650330334723  1.0000
  C   C18       1.0  0.8820517455648795  0.20313885242808985  0.8680234536766915  1.0000
  C   C19       1.0  0.8228519797328105  0.12744511823659366  0.8671432813102481  1.0000
  C   C20       1.0  0.8473435918006302  0.16326578290199478  0.7397585836171529  1.0000
  C   C21       1.0  0.5499059490620793  0.8974475086959185  0.858189548657499  1.0000
  C   C22       1.0  0.5021243891903779  0.8486930649126946  0.9287310795047927  1.0000
  C   C23       1.0  0.44136809645237907  0.7735057149764938  0.9159791264996  1.0000
  C   C24       1.0  0.40219643237990965  0.7266842629091739  0.9823005249763096  1.0000
  C   C25       1.0  0.4221916954025459  0.753891859347341  0.06351540614696918  1.0000
  C   C26       1.0  0.48010685386333296  0.8304188039933604  0.07594613421704817  1.0000
  C   C27       1.0  0.5197313866925127  0.8768115351317434  0.009351418951680998  1.0000
  C   C28       1.0  0.38205008969490706  0.7031385922956586  0.131978502638411  1.0000
  C   C29       1.0  0.32285389109139817  0.6274448583370996  0.13285677129993448  1.0000
  C   C30       1.0  0.34734123670539657  0.6632636917544942  0.2602427238495863  1.0000
  C   C31       1.0  0.549914235010938  0.10254950640644714  0.6418078404582273  1.0000
  C   C32       1.0  0.5021302802821522  0.15130376870010304  0.5712675046915051  1.0000
  C   C33       1.0  0.44137103496574764  0.22649088786517516  0.5840243289038012  1.0000
  C   C34       1.0  0.4021960755926272  0.2733090844637046  0.5177004463374572  1.0000
  C   C35       1.0  0.42219442575157  0.24610081402574477  0.436487253218729  1.0000
  C   C36       1.0  0.4801116352242756  0.16957843870891753  0.4240510377659702  1.0000
  C   C37       1.0  0.5197394671391463  0.12318523674449719  0.4906506942172156  1.0000
  C   C38       1.0  0.38205044410057803  0.29685517127729355  0.36802044357187197  1.0000
  C   C39       1.0  0.32285216795856536  0.37254743771951837  0.3671415194478128  1.0000
  C   C40       1.0  0.3473452798980147  0.3367299399933045  0.23975558397076202  1.0000
  C   C41       1.0  0.4500835165201166  0.10255111651648006  0.1418117136941675  1.0000
  C   C42       1.0  0.4978704252529198  0.15130431763811455  0.07127018284857199  1.0000
  C   C43       1.0  0.5586302839080375  0.22649353158855226  0.08402090746474038  1.0000
  C   C44       1.0  0.5978064053531966  0.27331125564892744  0.017698280598572994  1.0000
  C   C45       1.0  0.5778120338169755  0.246105523220315  0.9364852420142424  1.0000
  C   C46       1.0  0.5198924179772105  0.16958106390925556  0.924053899747683  1.0000
  C   C47       1.0  0.4802616447994409  0.12318709008727068  0.9906486150107126  1.0000
  C   C48       1.0  0.617951856570812  0.29685941160433055  0.8680209171317441  1.0000
  C   C49       1.0  0.6771516210776339  0.3725512815620319  0.8671426484712226  1.0000
  C   C50       1.0  0.6526553606947799  0.33673431213541954  0.7397573101139654  1.0000
  C   C51       1.0  0.4500930601227963  0.8974491188394962  0.35819096511861653  1.0000
  C   C52       1.0  0.49787166597682386  0.8486929925278159  0.42872945829744663  1.0000
  C   C53       1.0  0.558634477210802  0.7735058733707018  0.41598184701528124  1.0000
  C   C54       1.0  0.5978067621383331  0.7266851914231222  0.48230204440881147  1.0000
  C   C55       1.0  0.5778119778994294  0.7538959472112763  0.5635146233338516  1.0000
  C   C56       1.0  0.5198912025206467  0.8304201865284849  0.5759471536140592  1.0000
  C   C57       1.0  0.4802678279948934  0.8768127671660436  0.5093517965310992  1.0000
  C   C58       1.0  0.6179515021576235  0.7031403472795927  0.6319820471742543  1.0000
  C   C59       1.0  0.6771497782994798  0.6274474595018872  0.6328640422745264  1.0000
  C   C60       1.0  0.6526602322836011  0.6632686852498039  0.760247520972271  1.0000
  C   C61       1.0  0.9500845706548873  0.3974486994267678  0.6418055618292156  1.0000
  C   C62       1.0  0.9978630707816192  0.34869441897728837  0.5712640181944691  1.0000
  C   C63       1.0  0.0586215240652521  0.2735078893223885  0.5840192880975363  1.0000
  C   C64       1.0  0.09780084141053179  0.22668843300032646  0.5177003341253367  1.0000
  C   C65       1.0  0.07780504394145278  0.25389481854431034  0.436483449030291  1.0000
  C   C66       1.0  0.019885141396983396  0.33041719065741393  0.4240502842469879  1.0000
  C   C67       1.0  0.9802573289923798  0.37681230886601463  0.49064536023435307  1.0000
  C   C68       1.0  0.11794714001189277  0.20314044367757583  0.3680191108377357  1.0000
  C   C69       1.0  0.1771445233568087  0.12744755567177887  0.3671408223251972  1.0000
  C   C70       1.0  0.15265746082069137  0.16326564197747465  0.23975487916943905  1.0000
  C   C71       1.0  0.950089109214616  0.6025516996445928  0.8581884210832553  1.0000
  C   C72       1.0  0.9978770151700329  0.6513074042569256  0.9287275412473829  1.0000
  C   C73       1.0  0.0586298032141954  0.7264972011441484  0.9159746875628652  1.0000
  C   C74       1.0  0.09780691555703666  0.7733168062743302  0.9822967398229776  1.0000
  C   C75       1.0  0.07780938385486989  0.7461077308180462  0.06351037152770539  1.0000
  C   C76       1.0  0.019896918456787198  0.6695795467032893  0.07594349593620109  1.0000
  C   C77       1.0  0.9802704225369465  0.6231886975439663  0.0093490894364621  1.0000
  C   C78       1.0  0.11795020071250657  0.7968616368157128  0.13197842287482325  1.0000
  C   C79       1.0  0.17714372621117747  0.8725578563389358  0.13285920943468443  1.0000
  C   C80       1.0  0.1526530056151998  0.8367359490033193  0.26024267873740564  1.0000
  N   N1        1.0  0.8021120000351728  0.8963885912700245  0.7125891225059673  1.0000
  N   N2        1.0  0.8964753281706094  0.7760055662015258  0.7141012883387814  1.0000
  N   N3        1.0  0.8021169466895726  0.10360751775505857  0.7874164269626147  1.0000
  N   N4        1.0  0.8964732006721616  0.22399338656673246  0.7859030985189575  1.0000
  N   N5        1.0  0.3021154116399671  0.6036060356860415  0.2125866759161851  1.0000
  N   N6        1.0  0.3964725593677514  0.7239919048885496  0.21409887331903824  1.0000
  N   N7        1.0  0.3021191062707871  0.39638742428341794  0.2874134429623466  1.0000
  N   N8        1.0  0.3964735173550976  0.2760025348013073  0.2859006971408745  1.0000
  N   N9        1.0  0.6978856431416459  0.3963901042047836  0.7874139722439323  1.0000
  N   N10       1.0  0.6035240380373351  0.27600734167311447  0.7859011606446767  1.0000
  N   N11       1.0  0.6978864059112906  0.6036112009597756  0.7125902761759446  1.0000
  N   N12       1.0  0.6035293203930506  0.7239960904366424  0.7141017936059695  1.0000
  N   N13       1.0  0.19788281440951033  0.10360879128101885  0.2874139824331791  1.0000
  N   N14       1.0  0.10352483514714808  0.22399430170270307  0.28589813143099707  1.0000
  N   N15       1.0  0.19788232516355458  0.8963948354915343  0.21258729217399253  1.0000
  N   N16       1.0  0.10352161378694545  0.776008345334965  0.21409632124920105  1.0000
  O   O1        1.0  0.03534176223234909  0.6282595245149305  0.2846857392355559  1.0000
  O   O2        1.0  0.10706975621775429  0.5354482473100928  0.3747716133003606  1.0000
  O   O3        1.0  0.03534782843303929  0.371746591581278  0.21531173689341182  1.0000
  O   O4        1.0  0.10707463794035017  0.4645600052309575  0.12522836961193204  1.0000
  O   O5        1.0  0.5353452876385915  0.8717421851005155  0.7846900219488047  1.0000
  O   O6        1.0  0.6070677747905647  0.9645556219151245  0.8747789913290799  1.0000
  O   O7        1.0  0.5353512124680008  0.12825228934925548  0.7153079712106203  1.0000
  O   O8        1.0  0.6070817458538682  0.03544098897618399  0.625222122808303  1.0000
  O   O9        1.0  0.4646486353310307  0.12825644012018958  0.2153100120138943  1.0000
  O   O10       1.0  0.39291812488418276  0.03544300329104999  0.12522657038815765  1.0000
  O   O11       1.0  0.4646507337908189  0.8717438505431897  0.28469206275455144  1.0000
  O   O12       1.0  0.3929326811055063  0.9645582576194938  0.37477913955214587  1.0000
  O   O13       1.0  0.9646512692728065  0.37174407138997617  0.7153056959938551  1.0000
  O   O14       1.0  0.8929143605130107  0.4645553485782796  0.6252228929022434  1.0000
  O   O15       1.0  0.9646532263648382  0.6282538976605208  0.7846876828767575  1.0000
  O   O16       1.0  0.8929246339181487  0.5354435906874639  0.874775963720097  1.0000
