data_image0
_chemical_formula_structural       Zr6H46C50N10O32
_chemical_formula_sum              "Zr6 H46 C50 N10 O32"
_cell_length_a       14.828247760308956
_cell_length_b       14.779557438725496
_cell_length_c       14.791221038547894
_cell_angle_alpha    59.52676956278736
_cell_angle_beta     59.86053925788905
_cell_angle_gamma    59.96694415267865

_space_group_name_H-M_alt    "P 1"
_space_group_IT_number       1

loop_
  _space_group_symop_operation_xyz
  'x, y, z'

loop_
  _atom_site_type_symbol
  _atom_site_label
  _atom_site_symmetry_multiplicity
  _atom_site_fract_x
  _atom_site_fract_y
  _atom_site_fract_z
  _atom_site_occupancy
  Zr  Zr1       1.0  0.882685177355434  0.8801088451509143  0.6143336245889728  1.0000
  Zr  Zr2       1.0  0.12355116707920641  0.11619801369955948  0.3784846578431811  1.0000
  Zr  Zr3       1.0  0.1208098389624297  0.8753418370681415  0.6193178271672153  1.0000
  Zr  Zr4       1.0  0.8851736945623401  0.12057592099324668  0.3744046429613874  1.0000
  Zr  Zr5       1.0  0.12187404783610825  0.8796128592507202  0.37782875260065646  1.0000
  Zr  Zr6       1.0  0.8845783502107237  0.11653850933463157  0.6153988057285104  1.0000
  H   H1        1.0  0.0947415754099342  0.71463428185406  0.5918313156516392  1.0000
  H   H2        1.0  0.09962507615686178  0.09393441300815648  0.2131973678794878  1.0000
  H   H3        1.0  0.09634201551965306  0.08977728278034638  0.5933377253913078  1.0000
  H   H4        1.0  0.7215678575992328  0.09435046475495315  0.5887225528352574  1.0000
  H   H5        1.0  0.14038196365895336  0.592951654098371  0.3539977553662866  1.0000
  H   H6        1.0  0.8658602977954857  0.40354903844604445  0.6382063299730234  1.0000
  H   H7        1.0  0.5932944053378435  0.1398657311267469  0.9015999510550897  1.0000
  H   H8        1.0  0.4134135347980817  0.8556671851983423  0.09191317531045229  1.0000
  H   H9        1.0  0.8627405203236407  0.13679323170507737  0.0888763728879454  1.0000
  H   H10       1.0  0.13893485071545114  0.8559611623828259  0.908366408327083  1.0000
  H   H11       1.0  0.5965234172362842  0.4077509472740957  0.35635451235599896  1.0000
  H   H12       1.0  0.4118058007097787  0.5902088314455227  0.6355179278622529  1.0000
  H   H13       1.0  0.07940842169725236  0.3217367063675736  0.9789860006307762  1.0000
  H   H14       1.0  0.1702666435820603  0.3472903536587424  0.0009629556013806283  1.0000
  H   H15       1.0  0.16727938268928724  0.5060050904801584  0.841312322763045  1.0000
  H   H16       1.0  0.07539977798025893  0.47982961565342214  0.8214889272703515  1.0000
  H   H17       1.0  0.09242860552290466  0.6231312013498921  0.9577197995721889  1.0000
  H   H18       1.0  0.9488188862532425  0.6806723161508472  0.018818027475020867  1.0000
  H   H19       1.0  0.09415966294495352  0.4635547096585809  0.11777285593043268  1.0000
  H   H20       1.0  0.9503527704937798  0.5220520649604694  0.17748456997088635  1.0000
  H   H21       1.0  0.874255416209067  0.4032341601326693  0.06272915732544247  1.0000
  H   H22       1.0  0.8182961618514071  0.4835091340960033  0.14630951426333624  1.0000
  H   H23       1.0  0.8165143054933777  0.6448701505992248  0.9888208510674659  1.0000
  H   H24       1.0  0.8688665415872022  0.5643294578216709  0.906269780279082  1.0000
  H   H25       1.0  0.5940650911258415  0.861076300232078  0.6378834309740568  1.0000
  H   H26       1.0  0.40771352060144034  0.13937816026277258  0.3596579595654957  1.0000
  H   H27       1.0  0.16620575534402351  0.3602917310335414  0.31090168262284124  1.0000
  H   H28       1.0  0.21064099063409017  0.4714058659206088  0.257045425880385  1.0000
  H   H29       1.0  0.8217913596990839  0.6539125893781941  0.6641078531732989  1.0000
  H   H30       1.0  0.771323449895654  0.5483871169914137  0.7124459923735599  1.0000
  H   H31       1.0  0.3608126921871389  0.16648871995715103  0.15166223612004612  1.0000
  H   H32       1.0  0.4686254176798173  0.21455823692444648  0.046166553104477315  1.0000
  H   H33       1.0  0.6637148557651287  0.8116585488640524  0.8597107506963085  1.0000
  H   H34       1.0  0.5622017683786001  0.7578672030780421  0.9712646244771364  1.0000
  H   H35       1.0  0.8163719856787993  0.1612063945923907  0.8589510500850679  1.0000
  H   H36       1.0  0.7647131939398122  0.20594159739694337  0.9686754693265698  1.0000
  H   H37       1.0  0.16809233652990943  0.8136190591178335  0.15639892347861212  1.0000
  H   H38       1.0  0.21264109268072678  0.7612428442079562  0.05379216638809933  1.0000
  H   H39       1.0  0.3622584257307652  0.6558513752438984  0.31278080080307546  1.0000
  H   H40       1.0  0.4719337798888859  0.5520380028380316  0.2616812785209958  1.0000
  H   H41       1.0  0.6627014323445122  0.35938091867265587  0.6614715137939128  1.0000
  H   H42       1.0  0.5600575293337114  0.46929816591633505  0.7059031402036879  1.0000
  H   H43       1.0  0.36099386434839453  0.8149561884862494  0.6693362381905741  1.0000
  H   H44       1.0  0.4699605728592929  0.7644676534921471  0.7154255062981179  1.0000
  H   H45       1.0  0.6554986775218622  0.17079666601629392  0.3135462542424534  1.0000
  H   H46       1.0  0.5511665151174299  0.2167211896567736  0.2628517051695455  1.0000
  C   C1        1.0  0.9972585066143509  0.6969306476638693  0.4952048873692619  1.0000
  C   C2        1.0  0.31132511025968784  0.9973480937505671  0.19522772275632874  1.0000
  C   C3        1.0  0.003804334984344777  0.3046005615493499  0.4922427511746577  1.0000
  C   C4        1.0  0.7002538623897792  0.99351838745671  0.8032016506496548  1.0000
  C   C5        1.0  0.9962988592250853  0.6951102384247392  0.8072397445576699  1.0000
  C   C6        1.0  0.699631852855539  0.0019293614205295733  0.4897535357188687  1.0000
  C   C7        1.0  0.0010630119784237901  0.3089825707483911  0.19340294134647  1.0000
  C   C8        1.0  0.3094165770551316  0.9912200248725469  0.5004961399554022  1.0000
  C   C9        1.0  0.3091195547508649  0.6944179883775091  0.49281786939088323  1.0000
  C   C10       1.0  0.9951470734570338  0.9953255856679277  0.8068040270395399  1.0000
  C   C11       1.0  0.7029155652462081  0.3074767535861652  0.49513511913773556  1.0000
  C   C12       1.0  0.003998686182384844  0.9946313642550706  0.1932014644292225  1.0000
  C   C13       1.0  0.006695620613022966  0.4039504432087709  0.4907882701081761  1.0000
  C   C14       1.0  0.9970343012955427  0.5950485781160068  0.49900274712616277  1.0000
  C   C15       1.0  0.08813375429421916  0.4560309626825187  0.40784644476867976  1.0000
  C   C16       1.0  0.9171308621619756  0.5414513445966592  0.5833608560374585  1.0000
  C   C17       1.0  0.07975804609685613  0.5507271815059909  0.41535713850466033  1.0000
  C   C18       1.0  0.9250682907628371  0.44719117764059735  0.5755083237456659  1.0000
  C   C19       1.0  0.40966689504477927  0.0009576730271944526  0.09341303849150509  1.0000
  C   C20       1.0  0.5994471922810831  0.9922276111481807  0.9025356776573615  1.0000
  C   C21       1.0  0.4588511202953143  0.08528634265973523  0.03959813032626159  1.0000
  C   C22       1.0  0.5489027899731622  0.9092021470931686  0.954924388027699  1.0000
  C   C23       1.0  0.5531386388245423  0.07715058887114881  0.9454629778297274  1.0000
  C   C24       1.0  0.4549578650694386  0.91701279722394  0.04946714911409343  1.0000
  C   C25       1.0  0.9945758404906615  0.9992594219652414  0.9051888025188645  1.0000
  C   C26       1.0  0.0057886518322690424  0.9921226376981879  0.09352712181322433  1.0000
  C   C27       1.0  0.9138851234620801  0.08252372973366556  0.9546803199885545  1.0000
  C   C28       1.0  0.08741722532617079  0.9098305542184731  0.04302299618026954  1.0000
  C   C29       1.0  0.9227115794653287  0.07524766095591665  0.04808777768435841  1.0000
  C   C30       1.0  0.07821780678008151  0.9167423836858147  0.9499138066300502  1.0000
  C   C31       1.0  0.4088895178161708  0.5941576643046601  0.4911125380730183  1.0000
  C   C32       1.0  0.6007724229184747  0.40542536905644505  0.49927154149695946  1.0000
  C   C33       1.0  0.45975531695451394  0.5429022257525061  0.40947023446342  1.0000
  C   C34       1.0  0.5485790151773815  0.4552175875348253  0.5823181426454765  1.0000
  C   C35       1.0  0.5549664024291304  0.4497040622120067  0.41679595122187857  1.0000
  C   C36       1.0  0.45401144341820304  0.548910881724261  0.5744159223671232  1.0000
  C   C37       1.0  0.09055177648684086  0.38473145733564706  0.9878410140508008  1.0000
  C   C38       1.0  0.08831964120265937  0.49045406021733834  0.8820894411293736  1.0000
  C   C39       1.0  0.9940376362401366  0.5931192021725096  0.9130531585284131  1.0000
  C   C40       1.0  0.014023289027413576  0.6068841977682808  0.9975889544489007  1.0000
  C   C41       1.0  0.015190812021415864  0.5013841314798526  0.1032144506271493  1.0000
  C   C42       1.0  0.996816224755747  0.41464238403557363  0.09120070089806358  1.0000
  C   C43       1.0  0.8858591691871709  0.4655602419604464  0.07190421336072461  1.0000
  C   C44       1.0  0.883684221314375  0.5718580592057734  0.9674685730272186  1.0000
  C   C45       1.0  0.407081234346748  0.9928439422296549  0.5034972573689984  1.0000
  C   C46       1.0  0.5973512754685261  0.004955970812140673  0.49136992017315606  1.0000
  C   C47       1.0  0.45802930640610384  0.9123622289019336  0.5864471524920774  1.0000
  C   C48       1.0  0.5439574080913728  0.08791323845893825  0.41087584791893755  1.0000
  C   C49       1.0  0.5524553547375038  0.9213357651810836  0.5765142696962188  1.0000
  C   C50       1.0  0.4504661046387283  0.07798250616100684  0.41986819504146666  1.0000
  N   N1        1.0  0.1747180516119329  0.4159989827822415  0.32444112497029914  1.0000
  N   N2        1.0  0.836695287388686  0.5755126339637684  0.6726193208369439  1.0000
  N   N3        1.0  0.4158689814887567  0.1748229001352826  0.07328948060204965  1.0000
  N   N4        1.0  0.5860180634149117  0.8252699958582567  0.9155011853510826  1.0000
  N   N5        1.0  0.8311480015726928  0.17030135310274375  0.9133868022642843  1.0000
  N   N6        1.0  0.17510225457087375  0.827545602690435  0.07890714390578075  1.0000
  N   N7        1.0  0.4184260477126501  0.5782261778108831  0.32738985849785956  1.0000
  N   N8        1.0  0.5844778064278345  0.41394312627519986  0.670369562264554  1.0000
  N   N9        1.0  0.41683711117022465  0.8299211427178649  0.6759501916197408  1.0000
  N   N10       1.0  0.578085225182292  0.17743293692621628  0.32845657729738054  1.0000
  O   O1        1.0  0.9199181406207231  0.7393448596074705  0.5709490615530368  1.0000
  O   O2        1.0  0.27045435676016183  0.07314382968875321  0.2375716589200394  1.0000
  O   O3        1.0  0.0800236201108433  0.2630367944420513  0.4156036464737483  1.0000
  O   O4        1.0  0.7418852769436272  0.9171236329420579  0.7614748378842364  1.0000
  O   O5        1.0  0.0756766762567979  0.7321754068077765  0.7657487348015621  1.0000
  O   O6        1.0  0.7420766091351892  0.07855581780999907  0.41196835141661137  1.0000
  O   O7        1.0  0.9266187124409695  0.26600641047318163  0.23314678141476716  1.0000
  O   O8        1.0  0.26818229888554884  0.9133708148547655  0.5771346537683257  1.0000
  O   O9        1.0  0.26743245857593945  0.7368418911632659  0.41594226953706226  1.0000
  O   O10       1.0  0.9191874323368694  0.0723127454367117  0.7641495459471698  1.0000
  O   O11       1.0  0.7448424309479549  0.265197175964353  0.5718307824461563  1.0000
  O   O12       1.0  0.08036370325203986  0.9180988757694665  0.23539977311923363  1.0000
  O   O13       1.0  0.07072914508187036  0.9174309252622519  0.7684191414774091  1.0000
  O   O14       1.0  0.7436973386198034  0.26921171615515505  0.41713359911728537  1.0000
  O   O15       1.0  0.9282100571498975  0.07247523767379258  0.2317291967482617  1.0000
  O   O16       1.0  0.26870276813421895  0.7332946092997897  0.5703984307824967  1.0000
  O   O17       1.0  0.9215505042818253  0.7353030592575106  0.7651128886883356  1.0000
  O   O18       1.0  0.270301984865675  0.06761797527363456  0.4223741990438016  1.0000
  O   O19       1.0  0.0791425969645233  0.2684319268637764  0.23133647154211448  1.0000
  O   O20       1.0  0.7404869726725637  0.9237810679288642  0.5661180332882124  1.0000
  O   O21       1.0  0.7404577191885053  0.07039106998587366  0.7631019249140465  1.0000
  O   O22       1.0  0.0740882188641478  0.7371965265619878  0.41835223427268897  1.0000
  O   O23       1.0  0.2711592640150188  0.9204154178367502  0.23559918662003554  1.0000
  O   O24       1.0  0.9270360604103017  0.26433728053787325  0.5693700110564492  1.0000
  O   O25       1.0  0.801646025505228  0.06724816328144116  0.5619021949604955  1.0000
  O   O26       1.0  0.07018367375341228  0.06310431277690731  0.5660713929015131  1.0000
  O   O27       1.0  0.07222415220883253  0.06655574848469564  0.2938182347949834  1.0000
  O   O28       1.0  0.06868967077786448  0.7952336123405955  0.564734281374264  1.0000
  O   O29       1.0  0.15116885021863904  0.947208303563535  0.4492889724991755  1.0000
  O   O30       1.0  0.9535039222495882  0.9507193129569772  0.4454845882160186  1.0000
  O   O31       1.0  0.9550398116374482  0.14749595744912358  0.445828121818117  1.0000
  O   O32       1.0  0.9528500233679937  0.9470261818638476  0.6459957864762843  1.0000
