data_image0
_chemical_formula_structural       Zn2H56C60N8O8
_chemical_formula_sum              "Zn2 H56 C60 N8 O8"
_cell_length_a       7.881882878222044
_cell_length_b       8.1105646870091
_cell_length_c       22.474115079808634
_cell_angle_alpha    88.31902456168108
_cell_angle_beta     82.61963385233615
_cell_angle_gamma    83.10818378079539

_space_group_name_H-M_alt    "P 1"
_space_group_IT_number       1

loop_
  _space_group_symop_operation_xyz
  'x, y, z'

loop_
  _atom_site_type_symbol
  _atom_site_label
  _atom_site_symmetry_multiplicity
  _atom_site_fract_x
  _atom_site_fract_y
  _atom_site_fract_z
  _atom_site_occupancy
  Zn  Zn1       1.0  0.6157368293633781  0.6003423391403757  0.5569970679717358  1.0000
  Zn  Zn2       1.0  0.38425913608497103  0.39966181134973766  0.4430015856065523  1.0000
  H   H1        1.0  0.3410489096642948  0.681520699392834  0.6670188153388636  1.0000
  H   H2        1.0  0.6589453138859583  0.31847720930537804  0.3329817583932311  1.0000
  H   H3        1.0  0.2587083014175421  0.5762052704207788  0.7725293226723623  1.0000
  H   H4        1.0  0.7413020495022948  0.42379649895195826  0.22747226558442432  1.0000
  H   H5        1.0  0.6429190029346686  0.154730971853084  0.7320158126312962  1.0000
  H   H6        1.0  0.357084161589448  0.8452670408370364  0.2679794624492331  1.0000
  H   H7        1.0  0.7066600261587015  0.2776451513513222  0.6293819449759681  1.0000
  H   H8        1.0  0.2933265244349029  0.7223527218942392  0.3706131905900563  1.0000
  H   H9        1.0  0.4843875963326596  0.16906511305631258  0.8306667082116519  1.0000
  H   H10       1.0  0.515626748364383  0.830935461956102  0.1693320420715878  1.0000
  H   H11       1.0  0.26320321564072197  0.0453103710731639  0.8837920290637554  1.0000
  H   H12       1.0  0.7368208910166276  0.954684047638878  0.11621079163212757  1.0000
  H   H13       1.0  0.19329755071231597  0.9139994600677283  0.982177938526263  1.0000
  H   H14       1.0  0.8067273477282981  0.08599868857548641  0.017826144418208397  1.0000
  H   H15       1.0  0.1880336694251596  0.3848393120843667  0.0669410006737294  1.0000
  H   H16       1.0  0.8119602061933618  0.615171034945817  0.9330581307334995  1.0000
  H   H17       1.0  0.39478809882282223  0.5941913678384693  0.9688804608519348  1.0000
  H   H18       1.0  0.6052163214515502  0.40581660547998405  0.03111421404722142  1.0000
  H   H19       1.0  0.17955226921288417  0.6349398542384745  0.004820433070314304  1.0000
  H   H20       1.0  0.8204599811104674  0.36506694364275205  0.9951739004572033  1.0000
  H   H21       1.0  0.22336025387455294  0.6231093232260603  0.9248977592435708  1.0000
  H   H22       1.0  0.7766464425251626  0.37688125243897025  0.0750987651045705  1.0000
  H   H23       1.0  0.997935566064619  0.2852839724294824  0.13155875256765634  1.0000
  H   H24       1.0  0.0020631189475253217  0.7147189510638724  0.8684411254211001  1.0000
  H   H25       1.0  0.9086475985391261  0.15097427411497216  0.22814342850609387  1.0000
  H   H26       1.0  0.09135124810922693  0.8490274121597564  0.7718555645296091  1.0000
  H   H27       1.0  0.2666831962754443  0.8171360871517805  0.0673146690536726  1.0000
  H   H28       1.0  0.7333252260376923  0.182870643935928  0.9326860671167552  1.0000
  H   H29       1.0  0.058841683870682004  0.5630627059387123  0.1560038945910165  1.0000
  H   H30       1.0  0.9411573055376438  0.4369476735028215  0.8439972307320361  1.0000
  H   H31       1.0  0.1940859357532432  0.5948410898004751  0.21029034931648738  1.0000
  H   H32       1.0  0.805911472153959  0.40516181781109845  0.7897104763206001  1.0000
  H   H33       1.0  0.2819763683583787  0.5761845183673485  0.1328753167774721  1.0000
  H   H34       1.0  0.7180231314440421  0.4238121807365474  0.8671272558418791  1.0000
  H   H35       1.0  0.9195953490476115  0.5312355614820347  0.4555286436601165  1.0000
  H   H36       1.0  0.0804011004831864  0.46876488213924006  0.5444664651345335  1.0000
  H   H37       1.0  0.011190677074708312  0.6190120585337268  0.3514309720030226  1.0000
  H   H38       1.0  0.9887939666799783  0.38098082928672733  0.6485634089719312  1.0000
  H   H39       1.0  0.5689986218913605  0.9974898651296297  0.36875763944461676  1.0000
  H   H40       1.0  0.431005659340741  0.0025093934803308996  0.6312389078273597  1.0000
  H   H41       1.0  0.49856499374335067  0.8947556388443658  0.47214576098102157  1.0000
  H   H42       1.0  0.501432876478532  0.10525350903845519  0.5278514223771396  1.0000
  H   H43       1.0  0.742148831940682  0.9727911146025291  0.2738579124137814  1.0000
  H   H44       1.0  0.2578570324448534  0.02721560626330439  0.7261407143931322  1.0000
  H   H45       1.0  0.9349682804989145  0.9129062053979735  0.6823408767658279  1.0000
  H   H46       1.0  0.0650059687953046  0.0870977062176266  0.3176681023248946  1.0000
  H   H47       1.0  0.06543995757760261  0.7428567718888812  0.6428227026034321  1.0000
  H   H48       1.0  0.9345496273029428  0.257147270470071  0.3571860287633939  1.0000
  H   H49       1.0  0.9258826078794444  0.7060921379330836  0.7094659326624894  1.0000
  H   H50       1.0  0.07410586153235951  0.2939106513254543  0.2905428613996079  1.0000
  H   H51       1.0  0.987782265498872  0.19043950672096344  0.47926607130506943  1.0000
  H   H52       1.0  0.012207193432537601  0.809545924053367  0.5207352857227932  1.0000
  H   H53       1.0  0.8704790607534179  0.054740133283701205  0.44303346657393666  1.0000
  H   H54       1.0  0.12950702835166794  0.945251494903573  0.5569662011955004  1.0000
  H   H55       1.0  0.8497625988012913  0.0641538415425131  0.5231584961228535  1.0000
  H   H56       1.0  0.1502171002351957  0.9358377335645828  0.47684101530357026  1.0000
  C   C1        1.0  0.4035835045521168  0.5656927395817561  0.6839592171353033  1.0000
  C   C2        1.0  0.5964123210278061  0.4343027009869117  0.3160404188913262  1.0000
  C   C3        1.0  0.35906353539159863  0.5076219782031544  0.7418765659169821  1.0000
  C   C4        1.0  0.6409397961387384  0.49237476615256526  0.2581236087196288  1.0000
  C   C5        1.0  0.44588831157967235  0.3578123978875922  0.7610221513636972  1.0000
  C   C6        1.0  0.5541126257246632  0.6421830870600259  0.23897725376755122  1.0000
  C   C7        1.0  0.5729062790966993  0.2726119635612108  0.7199307915127662  1.0000
  C   C8        1.0  0.4270956079093934  0.7273860356406485  0.2800649862538478  1.0000
  C   C9        1.0  0.6092003961050239  0.33996090906074977  0.6626884533963633  1.0000
  C   C10       1.0  0.39078631736401803  0.6600357197856183  0.3373071321033336  1.0000
  C   C11       1.0  0.4104192169437013  0.289746984577718  0.8216894797693186  1.0000
  C   C12       1.0  0.589588110429233  0.7102485534500788  0.1783100817049501  1.0000
  C   C13       1.0  0.27063506210964755  0.2892781550776675  0.918944479238732  1.0000
  C   C14       1.0  0.7293837678824603  0.7107174756222107  0.081055897607655  1.0000
  C   C15       1.0  0.25404448266387186  0.11830282589080807  0.9243102495032431  1.0000
  C   C16       1.0  0.745977068544356  0.8816915682382314  0.07569313160257  1.0000
  C   C17       1.0  0.21406208986528702  0.04444506856716401  0.9799064770365078  1.0000
  C   C18       1.0  0.7859623207751697  0.9555568084865768  0.020097146031432082  1.0000
  C   C19       1.0  0.18942873757909243  0.13822942963558663  0.0326866640561008  1.0000
  C   C20       1.0  0.8105849601600568  0.8617760966448457  0.9673151810771046  1.0000
  C   C21       1.0  0.205539745524014  0.3090555963793306  0.0267931344364598  1.0000
  C   C22       1.0  0.7944603568745876  0.6909560505237377  0.9732052584178702  1.0000
  C   C23       1.0  0.24383967965021477  0.38709668021632376  0.9712841490162775  1.0000
  C   C24       1.0  0.7561706675519202  0.612905110698108  0.02871343458033949  1.0000
  C   C25       1.0  0.26082411864209126  0.5697250640840961  0.9673879925759792  1.0000
  C   C26       1.0  0.7391849493897028  0.43027672291615454  0.032608313857764394  1.0000
  C   C27       1.0  0.13816388765295073  0.060617000939245685  0.09133649761528771  1.0000
  C   C28       1.0  0.8618415135917559  0.9393834844423877  0.9086648815460663  1.0000
  C   C29       1.0  0.0367459300083937  0.15292325483326144  0.1378941847586788  1.0000
  C   C30       1.0  0.9632562655246629  0.8470821763815622  0.8621072899646479  1.0000
  C   C31       1.0  0.9827593026359055  0.07681072407049071  0.19194481273168407  1.0000
  C   C32       1.0  0.017238917170018943  0.9231859759062713  0.8080555928003009  1.0000
  C   C33       1.0  0.026318358626966225  0.9053831526644344  0.2017410059805229  1.0000
  C   C34       1.0  0.9736903877847354  0.0946210991989815  0.7982588502082849  1.0000
  C   C35       1.0  0.12926906624999657  0.8100648770963303  0.1556236994571236  1.0000
  C   C36       1.0  0.870736658680194  0.1899331314545378  0.844376354760371  1.0000
  C   C37       1.0  0.18397872757005024  0.8902141183327287  0.1020688584196208  1.0000
  C   C38       1.0  0.816032577182334  0.10979014135903499  0.8979335520949476  1.0000
  C   C39       1.0  0.17000500840872226  0.6259833412760756  0.1640161503056987  1.0000
  C   C40       1.0  0.8299962337048684  0.3740195972261944  0.8359849471220854  1.0000
  C   C41       1.0  0.8448565392065606  0.6341372834372548  0.4350041794075992  1.0000
  C   C42       1.0  0.15514230372408386  0.36586442437916833  0.5649908089679343  1.0000
  C   C43       1.0  0.8964577368962808  0.6837190012066683  0.3765370386311915  1.0000
  C   C44       1.0  0.10353887633611691  0.31628019322837986  0.62345941002161  1.0000
  C   C45       1.0  0.797132373490939  0.815556357302327  0.3506612315129658  1.0000
  C   C46       1.0  0.2028651939870727  0.18444532505823463  0.649336484359857  1.0000
  C   C47       1.0  0.6515060913688374  0.893632025077295  0.3857532103514814  1.0000
  C   C48       1.0  0.3484917800922815  0.10637711562496578  0.6142453078934054  1.0000
  C   C49       1.0  0.6106874952712006  0.835932818346073  0.4439676587162467  1.0000
  C   C50       1.0  0.3893103979576864  0.16406637521610884  0.5560309570239212  1.0000
  C   C51       1.0  0.839604394352925  0.877707374667537  0.289613483857238  1.0000
  C   C52       1.0  0.16039972854759552  0.12229310201288258  0.7103875080657219  1.0000
  C   C53       1.0  0.7922133769993636  0.764641505988699  0.6334805563198671  1.0000
  C   C54       1.0  0.20776937396105677  0.23534631502693054  0.3665281987802231  1.0000
  C   C55       1.0  0.9406198705087264  0.7837904978656951  0.6685832944781397  1.0000
  C   C56       1.0  0.059362045959041224  0.21621348271185775  0.3314248933072719  1.0000
  C   C57       1.0  0.7203665451047955  0.27395810863900044  0.48315133967113155  1.0000
  C   C58       1.0  0.27962688624911197  0.726036072521559  0.5168475268501281  1.0000
  C   C59       1.0  0.8661439198703038  0.13630427519850485  0.4811767509206888  1.0000
  C   C60       1.0  0.13384377209060722  0.8636848800721708  0.5188228690677619  1.0000
  N   N1        1.0  0.5267199094836386  0.4838201107872989  0.6447541397624121  1.0000
  N   N2        1.0  0.4732674542479246  0.5161715476428839  0.3552419105852493  1.0000
  N   N3        1.0  0.3044647997206198  0.3667936592238874  0.8629776090721251  1.0000
  N   N4        1.0  0.6955423656030322  0.6332031184160483  0.13702239239295713  1.0000
  N   N5        1.0  0.7028019294439575  0.7075282114223285  0.4684984703042332  1.0000
  N   N6        1.0  0.2972029802828828  0.2924760239115187  0.5314984443204197  1.0000
  N   N7        1.0  0.9812446067138652  0.8278004095392075  0.2567036375729543  1.0000
  N   N8        1.0  0.018753914596686613  0.17220376314038074  0.7432949005576504  1.0000
  O   O1        1.0  0.7036258634300765  0.37001282069491737  0.5276061389824349  1.0000
  O   O2        1.0  0.29637936915609225  0.6299889425952045  0.4723885607738723  1.0000
  O   O3        1.0  0.8239745379197104  0.6528517276838387  0.5921009424337669  1.0000
  O   O4        1.0  0.17601664568587685  0.3471498656937301  0.4079032915296565  1.0000
  O   O5        1.0  0.6231211304889969  0.28151483860288096  0.4416728496795344  1.0000
  O   O6        1.0  0.3768743697531249  0.7184830883706325  0.5583263314419896  1.0000
  O   O7        1.0  0.6503157121793991  0.8509209594015559  0.6464553524098376  1.0000
  O   O8        1.0  0.3496585847811531  0.14906303399868648  0.3535582712938705  1.0000
