data_image0
_chemical_formula_structural       Zn4H48C60N16O16
_chemical_formula_sum              "Zn4 H48 C60 N16 O16"
_cell_length_a       8.737826617
_cell_length_b       14.787433762
_cell_length_c       19.34
_cell_angle_alpha    90.0
_cell_angle_beta     90.0
_cell_angle_gamma    90.0

_space_group_name_H-M_alt    "P 1"
_space_group_IT_number       1

loop_
  _space_group_symop_operation_xyz
  'x, y, z'

loop_
  _atom_site_type_symbol
  _atom_site_label
  _atom_site_symmetry_multiplicity
  _atom_site_fract_x
  _atom_site_fract_y
  _atom_site_fract_z
  _atom_site_occupancy
  Zn  Zn1       1.0  0.6328450131113428  0.9553320898926072  0.0730144777662858  1.0000
  Zn  Zn2       1.0  0.867158428762856  0.0446663032024759  0.5730139607032072  1.0000
  Zn  Zn3       1.0  0.13284310285370537  0.5446671903746676  0.9269855222337142  1.0000
  Zn  Zn4       1.0  0.3671542296065198  0.45533390771985427  0.4269860392967928  1.0000
  H   H1        1.0  0.2841221403008731  0.1269618535722259  0.5037430196483967  1.0000
  H   H2        1.0  0.2158786255074077  0.8730385682724415  0.0037425025853181997  1.0000
  H   H3        1.0  0.7841240505585105  0.37303835735010427  0.49625853154084604  1.0000
  H   H4        1.0  0.7158782468663389  0.6269600357449789  0.9962574974146818  1.0000
  H   H5        1.0  0.8594299622963104  0.9698234481261563  0.3131127197518069  1.0000
  H   H6        1.0  0.6405711906791893  0.03017697371850399  0.8131127197518069  1.0000
  H   H7        1.0  0.3594291964880298  0.5301744796413956  0.6868872802481931  1.0000
  H   H8        1.0  0.1405704248709085  0.46982323720382607  0.1868877973112717  1.0000
  H   H9        1.0  0.24564575312400896  0.29379404634522627  0.502927611168559  1.0000
  H   H10       1.0  0.2543550126842717  0.7062063754994339  0.0029265770424018  1.0000
  H   H11       1.0  0.745648807830996  0.2062061645771038  0.4970729058945195  1.0000
  H   H12       1.0  0.7543557784925525  0.7937922285179793  0.9970739400206838  1.0000
  H   H13       1.0  0.158937692503315  0.8678104806106928  0.4157657704239952  1.0000
  H   H14       1.0  0.3410653622036719  0.13218723623453596  0.9157662874870737  1.0000
  H   H15       1.0  0.6589361694128966  0.6321894759064435  0.5842342295760048  1.0000
  H   H16       1.0  0.8410626946639039  0.3678122984379398  0.0842331954498476  1.0000
  H   H17       1.0  0.2204392561706996  0.9747066483596922  0.3849312306101353  1.0000
  H   H18       1.0  0.2795615096375883  0.025291744735390892  0.8849322647362996  1.0000
  H   H19       1.0  0.7204354441815752  0.5252933081574367  0.6150682523267861  1.0000
  H   H20       1.0  0.7795588420978135  0.4747077899370779  0.11506721820062178  1.0000
  H   H21       1.0  0.8575553542595529  0.9579735218427812  0.1838552223371224  1.0000
  H   H22       1.0  0.6424469431652966  0.04202757625174059  0.683855739400208  1.0000
  H   H23       1.0  0.357554588451272  0.5420244059247776  0.8161447776628776  1.0000
  H   H24       1.0  0.1424450329076592  0.4579733109204511  0.3161447776628776  1.0000
  H   H25       1.0  0.6426769774848253  0.1672453814369987  0.3516008273009277  1.0000
  H   H26       1.0  0.8573218865919756  0.8327550404076687  0.8516003102378491  1.0000
  H   H27       1.0  0.1426785005752436  0.332755505735193  0.6484007238883152  1.0000
  H   H28       1.0  0.3573222652330443  0.6672435636097518  0.1484002068252295  1.0000
  H   H29       1.0  0.5873943515901627  0.330588124936348  0.3569544984488076  1.0000
  H   H30       1.0  0.9126056569359804  0.6694122969083125  0.8569550155118933  1.0000
  H   H31       1.0  0.08739473023123168  0.1694134384857051  0.6430470527404353  1.0000
  H   H32       1.0  0.4126071800263986  0.8305863071091009  0.1430465356773496  1.0000
  H   H33       1.0  0.393864533006905  0.016643185285630593  0.1742419855222366  1.0000
  H   H34       1.0  0.1061350883520262  0.9833558840593071  0.6742419855222366  1.0000
  H   H35       1.0  0.8938618654671371  0.4833570256366996  0.8257574974146848  1.0000
  H   H36       1.0  0.6061347097109575  0.5166447487076837  0.3257580144777634  1.0000
  H   H37       1.0  0.3759413117226416  0.03303953937264479  0.3019162357807659  1.0000
  H   H38       1.0  0.1240571651869402  0.9669608824720157  0.8019162357807659  1.0000
  H   H39       1.0  0.8759386441828738  0.4669647290488398  0.6980827300930699  1.0000
  H   H40       1.0  0.6240567865458715  0.5330383977952593  0.1980842812823198  1.0000
  H   H41       1.0  0.7200634981425365  0.0112521214078143  0.41519389865563733  1.0000
  H   H42       1.0  0.7799365103836066  0.9887483004368532  0.9151938986556374  1.0000
  H   H43       1.0  0.2200627323342559  0.48874808951451587  0.584805584281284  1.0000
  H   H44       1.0  0.2799357445753259  0.5112503035805673  0.0848061013443626  1.0000
  H   H45       1.0  0.2999281302859913  0.8942592888552312  0.5297828335056849  1.0000
  H   H46       1.0  0.20007492442098845  0.10574045673956788  0.029783350568770604  1.0000
  H   H47       1.0  0.7999277516449226  0.6057406676618979  0.4702166494312294  1.0000
  H   H48       1.0  0.7000722568812208  0.3942590779329009  0.9702156153050652  1.0000
  C   C1        1.0  0.3163956119959224  0.9348295466603245  0.48324974146846233  1.0000
  C   C2        1.0  0.1836051538123584  0.0651701989344815  0.9832507755946196  1.0000
  C   C3        1.0  0.8163929444561545  0.5651704098568118  0.5167502585315376  1.0000
  C   C4        1.0  0.6836036307219402  0.434828659488133  0.0167487073422947  1.0000
  C   C5        1.0  0.6163580757624487  0.00010481872818249997  0.3184912099276147  1.0000
  C   C6        1.0  0.8836419327637015  0.9998949268666237  0.8184912099276147  1.0000
  C   C7        1.0  0.11635845440351028  0.49989471594429347  0.6815087900723853  1.0000
  C   C8        1.0  0.3836411669554209  0.5001050296505127  0.181509307135471  1.0000
  C   C9        1.0  0.4467564042075551  0.982485550490473  0.4809586349534669  1.0000
  C   C10       1.0  0.053245506050075185  0.017514871354187292  0.9809591520165455  1.0000
  C   C11       1.0  0.9467503033197316  0.517515758526379  0.5190413650465331  1.0000
  C   C12       1.0  0.5532439829596567  0.4824846633182814  0.0190398138572903  1.0000
  C   C13       1.0  0.4661262094713408  0.13170574633475945  0.4267342295760059  1.0000
  C   C14       1.0  0.0338734118875905  0.8682946755099081  0.9267342295760059  1.0000
  C   C15       1.0  0.9661281197289782  0.3682944645875707  0.5732673216132369  1.0000
  C   C16       1.0  0.5338707443478226  0.6317039285075123  0.0732652533609084  1.0000
  C   C17       1.0  0.3534036706556023  0.1696920534277098  0.4702238883143721  1.0000
  C   C18       1.0  0.14659709515268554  0.8303083684169505  0.970223888314372  1.0000
  C   C19       1.0  0.8534044364638831  0.3303074812447662  0.5297766287487065  1.0000
  C   C20       1.0  0.6465955720622674  0.669690911850324  0.0297755946225422  1.0000
  C   C21       1.0  0.7541005662873062  0.9785139350671839  0.2836566701137571  1.0000
  C   C22       1.0  0.7459005866881936  0.02148648677747639  0.7836571871768356  1.0000
  C   C23       1.0  0.2540998004790254  0.5214846689502295  0.7163433298862429  1.0000
  C   C24       1.0  0.2458998208799059  0.4785137241448537  0.2163428128231644  1.0000
  C   C25       1.0  0.3320024677939912  0.2623335503938975  0.4701421923474669  1.0000
  C   C26       1.0  0.1679994424636462  0.7376675477006245  0.9701421923474668  1.0000
  C   C27       1.0  0.832005522500971  0.23766733677829416  0.5298588417786974  1.0000
  C   C28       1.0  0.6679967749238784  0.7623317325666505  0.0298583247156188  1.0000
  C   C29       1.0  0.1899831700448615  0.9370111287062173  0.43183971044467734  1.0000
  C   C30       1.0  0.3100187402127759  0.0629859118891503  0.9318402275077559  1.0000
  C   C31       1.0  0.6899782136063874  0.5629888278109191  0.568159772492244  1.0000
  C   C32       1.0  0.8100172171223576  0.4370122702836028  0.0681587383660798  1.0000
  C   C33       1.0  0.0432647632609786  0.9790224749613328  0.46216028955532806  1.0000
  C   C34       1.0  0.4567394358953578  0.0209759181337503  0.9621613236814922  1.0000
  C   C35       1.0  0.5432620957212109  0.5209781578056578  0.5378386763185077  1.0000
  C   C36       1.0  0.956734479456884  0.4790236165387184  0.0378381592554291  1.0000
  C   C37       1.0  0.75291949455719  0.9716479702463727  0.2126928645294726  1.0000
  C   C38       1.0  0.7470816584183098  0.028351775348426093  0.7126928645294726  1.0000
  C   C39       1.0  0.2529187287489094  0.5283506337710404  0.787307652533606  1.0000
  C   C40       1.0  0.24707974816067238  0.471648435573904  0.287307652533606  1.0000
  C   C41       1.0  0.5526042357725132  0.1917296838404567  0.3854994829369218  1.0000
  C   C42       1.0  0.9473957727536373  0.8082700617543422  0.8854994829369218  1.0000
  C   C43       1.0  0.05260575886293139  0.3082705270818734  0.6145025853154067  1.0000
  C   C44       1.0  0.44739500694534934  0.6917285422630711  0.11450051706307822  1.0000
  C   C45       1.0  0.5223667394726945  0.2833027060290547  0.388797311271972  1.0000
  C   C46       1.0  0.9776321246041063  0.7166977158156056  0.8887983453981362  1.0000
  C   C47       1.0  0.0223694070124623  0.216698181143137  0.6112037228541851  1.0000
  C   C48       1.0  0.47763250324517503  0.783301564451669  0.11120268872802799  1.0000
  C   C49       1.0  0.4938138726173804  0.005231468911041798  0.20699586349534368  1.0000
  C   C50       1.0  0.0061868931909004  0.9947682766837571  0.7069958634953437  1.0000
  C   C51       1.0  0.9938123495269622  0.4947700945110042  0.7930036194415706  1.0000
  C   C52       1.0  0.5061853701004819  0.5052323560832335  0.2930046535677349  1.0000
  C   C53       1.0  0.48387318555556647  0.0141052195639233  0.2779782833505706  1.0000
  C   C54       1.0  0.0161275802527143  0.9858945260308756  0.7779782833505706  1.0000
  C   C55       1.0  0.9838716624651482  0.4858956676082683  0.7220211995863508  1.0000
  C   C56       1.0  0.5161249127129466  0.5141047542363991  0.2220222337125151  1.0000
  C   C57       1.0  0.5611773058600136  0.9823787030127134  0.5394917269906898  1.0000
  C   C58       1.0  0.9388272804635348  0.017621042582085494  0.0394932781799398  1.0000
  C   C59       1.0  0.0611765400517328  0.5176192247548385  0.4605108583247173  1.0000
  C   C60       1.0  0.4388253702058974  0.4823811970898219  0.9605062047569817  1.0000
  N   N1        1.0  0.6176810592120743  0.009135459348406996  0.3883360910031044  1.0000
  N   N2        1.0  0.882318949314076  0.9908649624962533  0.8883360910031045  1.0000
  N   N3        1.0  0.11768143785314318  0.4908647515739232  0.6116639089968956  1.0000
  N   N4        1.0  0.3823181835057951  0.5091343177710215  0.1116644260599813  1.0000
  N   N5        1.0  0.48751367894074343  0.039283354322961386  0.4232347466390891  1.0000
  N   N6        1.0  0.0124859424181878  0.9607170675216989  0.9232352637021748  1.0000
  N   N7        1.0  0.9875133002996748  0.4607161803495075  0.5767657704239895  1.0000
  N   N8        1.0  0.51248327487842  0.5392822127455758  0.0767642192347466  1.0000
  N   N9        1.0  0.4139908192916265  0.3194949222454539  0.43006049638055543  1.0000
  N   N10       1.0  0.0860099465166613  0.6805054995992064  0.9300610134436411  1.0000
  N   N11       1.0  0.913995018447963  0.1805046124270149  0.5699400206825231  1.0000
  N   N12       1.0  0.5860095678755926  0.8194937806680682  0.0699400206825231  1.0000
  N   N13       1.0  0.625185213605846  0.9840037314244583  0.1739457083764222  1.0000
  N   N14       1.0  0.8748159393696538  0.0159960141703479  0.6739457083764222  1.0000
  N   N15       1.0  0.1251833033482157  0.5159948725929553  0.8260542916235778  1.0000
  N   N16       1.0  0.3748140291120166  0.4840048730018437  0.3260548086866564  1.0000
  O   O1        1.0  0.03952584723163  0.9826167429631665  0.529062047569802  1.0000
  O   O2        1.0  0.46047491857665784  0.017383002631639492  0.029063598759052  1.0000
  O   O3        1.0  0.5395254685905613  0.5173845660536855  0.470936401240948  1.0000
  O   O4        1.0  0.9604711065875334  0.48262058953999076  0.9709358841778695  1.0000
  O   O5        1.0  0.9410818456847849  0.0059320637652078  0.42205325749741723  1.0000
  O   O6        1.0  0.5589215961894141  0.9940656530800138  0.9220558428128243  1.0000
  O   O7        1.0  0.4410776465284485  0.4940674709072609  0.5779436401240972  1.0000
  O   O8        1.0  0.05891739703307759  0.5059349796869766  0.07794519131334  1.0000
  O   O9        1.0  0.5470353452310872  0.9321522734676078  0.5902605997931758  1.0000
  O   O10       1.0  0.9529669521937619  0.06784814837705257  0.0902611168562544  1.0000
  O   O11       1.0  0.047028857176051986  0.5678490355492443  0.4097352637021743  1.0000
  O   O12       1.0  0.4529696197335298  0.4321554437945778  0.9097368148914171  1.0000
  O   O13       1.0  0.6700476281606669  0.041598157591124583  0.5286840744570824  1.0000
  O   O14       1.0  0.8299569581628816  0.9584002355039587  0.0286866597724895  1.0000
  O   O15       1.0  0.1700399956562819  0.4584027295810671  0.4713174767321604  1.0000
  O   O16       1.0  0.32995504790525126  0.5415997210131778  0.9713128231644248  1.0000
