data_image0
_chemical_formula_structural       Cu4H44C52I4N4
_chemical_formula_sum              "Cu4 H44 C52 I4 N4"
_cell_length_a       4.006000997260578
_cell_length_b       15.757172894493904
_cell_length_c       18.997075177333212
_cell_angle_alpha    104.09846495276321
_cell_angle_beta     89.99872514602936
_cell_angle_gamma    90.00052187034599

_space_group_name_H-M_alt    "P 1"
_space_group_IT_number       1

loop_
  _space_group_symop_operation_xyz
  'x, y, z'

loop_
  _atom_site_type_symbol
  _atom_site_label
  _atom_site_symmetry_multiplicity
  _atom_site_fract_x
  _atom_site_fract_y
  _atom_site_fract_z
  _atom_site_occupancy
  Cu  Cu1       1.0  0.9380488057764609  0.9852381113497582  0.7925224062387884  1.0000
  Cu  Cu2       1.0  0.43805359508383646  0.014766780535872196  0.7074825099674982  1.0000
  Cu  Cu3       1.0  0.06193899456112459  0.014758216645652994  0.20747567276953297  1.0000
  Cu  Cu4       1.0  0.5619391976511707  0.9852328424615346  0.29251884788082794  1.0000
  H   H1        1.0  0.7035910235741412  0.8012866316856131  0.7686691102293253  1.0000
  H   H2        1.0  0.2035224775834052  0.19872193750298806  0.7313360593564723  1.0000
  H   H3        1.0  0.29646417575104067  0.19870509269477307  0.23132543289013088  1.0000
  H   H4        1.0  0.7964153976781958  0.801284869011951  0.26866512949739974  1.0000
  H   H5        1.0  0.6583381666241052  0.6890495604386544  0.8404131415837525  1.0000
  H   H6        1.0  0.1582686175465042  0.3109523454218958  0.6595825118018865  1.0000
  H   H7        1.0  0.34175946924565176  0.3109408179114935  0.1595769259308  1.0000
  H   H8        1.0  0.8416792428251227  0.6890518250984383  0.34041605394824603  1.0000
  H   H9        1.0  0.1593880412501534  0.8714657284555399  0.01621939683995064  1.0000
  H   H10       1.0  0.6593503120186952  0.12853004113274838  0.48377927182602315  1.0000
  H   H11       1.0  0.8406521806168143  0.1285318801636706  0.9837757749658635  1.0000
  H   H12       1.0  0.3406225106587613  0.8714708951791931  0.5162228702801669  1.0000
  H   H13       1.0  0.1875120570980258  0.9739913404339685  0.9367943371254982  1.0000
  H   H14       1.0  0.6874521757118471  0.02601201547670939  0.5632140965322847  1.0000
  H   H15       1.0  0.8125081945643514  0.026006296226917396  0.0632039986936803  1.0000
  H   H16       1.0  0.3125106616459306  0.9739929028812991  0.4367951441861989  1.0000
  H   H17       1.0  0.7342601571922459  0.6451666760043435  0.9518877825296528  1.0000
  H   H18       1.0  0.2342087958758228  0.35482941223072106  0.5481058427864552  1.0000
  H   H19       1.0  0.2658025308479637  0.3548257120549678  0.048107943671070096  1.0000
  H   H20       1.0  0.7657290793787368  0.6451728093365857  0.4518939196435738  1.0000
  H   H21       1.0  0.1340140234116731  0.7732610672682935  0.07050375364014629  1.0000
  H   H22       1.0  0.6339854508461826  0.22673139596341935  0.4294933333471391  1.0000
  H   H23       1.0  0.8660311908484956  0.22673197510689383  0.9294921010425128  1.0000
  H   H24       1.0  0.3659723942386961  0.7732721716653469  0.5705109045461185  1.0000
  H   H25       1.0  0.9885942938481377  0.4868796332404343  0.2149344210370643  1.0000
  H   H26       1.0  0.4886086984893225  0.5131105581322329  0.28505948747416443  1.0000
  H   H27       1.0  0.01141098042919  0.5131153580628052  0.7850602370790368  1.0000
  H   H28       1.0  0.511411553067532  0.486894958475787  0.7149435536201878  1.0000
  H   H29       1.0  0.2623418042260965  0.6330063336450846  0.2560732025880483  1.0000
  H   H30       1.0  0.7623825186359454  0.36698235544584873  0.24392516756272187  1.0000
  H   H31       1.0  0.7376434995975886  0.36698479715432336  0.7439280675118809  1.0000
  H   H32       1.0  0.23764522151915912  0.6330192585945723  0.7560797395010751  1.0000
  H   H33       1.0  0.25786451456782794  0.7366117086039592  0.1766875258361154  1.0000
  H   H34       1.0  0.7579132302822272  0.26338092533543284  0.3233142719189814  1.0000
  H   H35       1.0  0.7421133001609234  0.26338668521643877  0.8233225397377595  1.0000
  H   H36       1.0  0.24209453973793418  0.7366226703699751  0.6766931298289549  1.0000
  H   H37       1.0  0.6936333269184871  0.551046117892376  0.016415582511150682  1.0000
  H   H38       1.0  0.19361724110051878  0.4489463862954251  0.48357912443739787  1.0000
  H   H39       1.0  0.3063694511108821  0.44895345835724493  0.9835805020344638  1.0000
  H   H40       1.0  0.8063431006382585  0.5510590788545641  0.5164181161849157  1.0000
  H   H41       1.0  0.7000402534661063  0.44748708702594786  0.09520813858416938  1.0000
  H   H42       1.0  0.20005105005837717  0.5525054563125735  0.4047902305090574  1.0000
  H   H43       1.0  0.2999650207711255  0.552509876601711  0.9047879595147279  1.0000
  H   H44       1.0  0.799961712875607  0.44750069123993075  0.5952103024045314  1.0000
  C   C1        1.0  0.8006826967580521  0.8138600038996627  0.8239406880080152  1.0000
  C   C2        1.0  0.3006369468371375  0.18614931209289404  0.6760636418005603  1.0000
  C   C3        1.0  0.19936251749437867  0.18613566044928828  0.17605620777169406  1.0000
  C   C4        1.0  0.6993233945822366  0.813857517809673  0.3239401836423355  1.0000
  C   C5        1.0  0.7770424431311439  0.7516588547463526  0.8643639460575158  1.0000
  C   C6        1.0  0.2769931384570583  0.24834452061836024  0.6356361711480928  1.0000
  C   C7        1.0  0.22302523750911257  0.2483308973158528  0.1356291570508077  1.0000
  C   C8        1.0  0.7229647069394787  0.7516603042315921  0.3643625230216401  1.0000
  C   C9        1.0  0.9015996582734688  0.769393961921338  0.9357977286940979  1.0000
  C   C10       1.0  0.4015471941020293  0.23060958014262667  0.5642065689251083  1.0000
  C   C11       1.0  0.0984530446341978  0.23060172113247288  0.0642012763806292  1.0000
  C   C12       1.0  0.5984081549171022  0.769397231056331  0.43579514721709234  1.0000
  C   C13       1.0  0.0524387191229039  0.852033274605034  0.9618765536515353  1.0000
  C   C14       1.0  0.5523882871094372  0.14796400114040145  0.5381250093619059  1.0000
  C   C15       1.0  0.9476039989695054  0.1479604080676893  0.0381178474950374  1.0000
  C   C16       1.0  0.44757455059306755  0.8520356171667414  0.4618758212264211  1.0000
  C   C17       1.0  0.06820090429553011  0.9102200929300325  0.9179342948840484  1.0000
  C   C18       1.0  0.5681687798934976  0.08978770986656309  0.582073997548683  1.0000
  C   C19       1.0  0.9318043698263238  0.08978344199551457  0.08206625160550368  1.0000
  C   C20       1.0  0.4318040427058775  0.9102211017172261  0.41793232250468276  1.0000
  C   C21       1.0  0.8703931069680947  0.7045365760082373  0.9781674034247202  1.0000
  C   C22       1.0  0.37034737089646796  0.2954590081360634  0.5218270573157326  1.0000
  C   C23       1.0  0.1296620924991956  0.2954557793203775  0.021824631496976093  1.0000
  C   C24       1.0  0.6296029856478496  0.7045451764113508  0.4781730904127457  1.0000
  C   C25       1.0  0.9964129418303428  0.7135694165264042  0.04574310382394494  1.0000
  C   C26       1.0  0.4963741702478615  0.2864201610447807  0.4542543321616108  1.0000
  C   C27       1.0  0.003639760990083099  0.28642562622862033  0.9542573547925315  1.0000
  C   C28       1.0  0.5035761861318306  0.7135840515543063  0.5457489795348991  1.0000
  C   C29       1.0  0.9814651029209996  0.5331926985935808  0.1807025371829596  1.0000
  C   C30       1.0  0.48149176214652556  0.4667961770029903  0.31929114678564463  1.0000
  C   C31       1.0  0.018517704851717606  0.4668036387498872  0.8192965964927054  1.0000
  C   C32       1.0  0.5185359781682805  0.533204754661142  0.6807104678678612  1.0000
  C   C33       1.0  0.1344460879324885  0.6149247878995536  0.2038401439710071  1.0000
  C   C34       1.0  0.6344794970314637  0.38506307214672114  0.29615340517793237  1.0000
  C   C35       1.0  0.8655342235430223  0.38506959114408085  0.7961591317115406  1.0000
  C   C36       1.0  0.365540754431116  0.6149372192148801  0.7038496630343261  1.0000
  C   C37       1.0  0.13277445550357206  0.6733388757353962  0.15945245097109503  1.0000
  C   C38       1.0  0.632776192585979  0.3266548995957803  0.3405454257881003  1.0000
  C   C39       1.0  0.8672333146790976  0.3266607612953364  0.8405504888272403  1.0000
  C   C40       1.0  0.3672141039285179  0.6733493036727294  0.6594568311617265  1.0000
  C   C41       1.0  0.977595210122047  0.6512281502858243  0.09076967687251168  1.0000
  C   C42       1.0  0.47757833192888904  0.3487613663910877  0.40922309855223915  1.0000
  C   C43       1.0  0.022422545265627  0.3487668690753195  0.9092281451832845  1.0000
  C   C44       1.0  0.5223944908456629  0.651241518868879  0.5907778468967209  1.0000
  C   C45       1.0  0.8180717208517335  0.5693336392240907  0.06889490821266259  1.0000
  C   C46       1.0  0.3180504776543955  0.43066096646527535  0.4311012010522859  1.0000
  C   C47       1.0  0.1819585159101322  0.43066725971434033  0.9311030151391506  1.0000
  C   C48       1.0  0.6819148563446193  0.5693478170630968  0.5689019550500447  1.0000
  C   C49       1.0  0.8215556379209515  0.5109811941781074  0.11323626570473518  1.0000
  C   C50       1.0  0.3215860294689675  0.48900623615313066  0.386760524071569  1.0000
  C   C51       1.0  0.1784296661166138  0.4890164518158498  0.8867631248497858  1.0000
  C   C52       1.0  0.6784392145176737  0.5110032251062292  0.6132453969770423  1.0000
  I   I1        1.0  0.9321384468401774  0.9061352726508427  0.6551139136681171  1.0000
  I   I2        1.0  0.4321416906246257  0.09387546483988977  0.8448879667336867  1.0000
  I   I3        1.0  0.06784186477674581  0.09386694426241596  0.34488532133757127  1.0000
  I   I4        1.0  0.5678635835823513  0.9061247797614413  0.15510982823253272  1.0000
  N   N1        1.0  0.9429917556062718  0.8929540567923268  0.849766582323987  1.0000
  N   N2        1.0  0.44296336360429933  0.1070534806971466  0.6502414619234855  1.0000
  N   N3        1.0  0.057013518493768296  0.10704293021171908  0.1502321524149295  1.0000
  N   N4        1.0  0.5570119553126814  0.8929526995635654  0.3497627623711423  1.0000
