data_image0
_chemical_formula_structural       Ag2H16C12N6O4
_chemical_formula_sum              "Ag2 H16 C12 N6 O4"
_cell_length_a       5.739813641705648
_cell_length_b       7.60938675752269
_cell_length_c       9.077799717796182
_cell_angle_alpha    89.99408202761923
_cell_angle_beta     102.96794628612267
_cell_angle_gamma    89.98562666180825

_space_group_name_H-M_alt    "P 1"
_space_group_IT_number       1

loop_
  _space_group_symop_operation_xyz
  'x, y, z'

loop_
  _atom_site_type_symbol
  _atom_site_label
  _atom_site_symmetry_multiplicity
  _atom_site_fract_x
  _atom_site_fract_y
  _atom_site_fract_z
  _atom_site_occupancy
  Ag  Ag1       1.0  0.5249963721922198  0.7146619854531197  0.23764084750947484  1.0000
  Ag  Ag2       1.0  0.47507914643073684  0.21469458702775768  0.762362338058665  1.0000
  H   H1        1.0  0.5216455840875227  0.7410072924088452  0.8632211438880333  1.0000
  H   H2        1.0  0.4784429063122388  0.24091987398689693  0.13678929555968009  1.0000
  H   H3        1.0  0.22456807650583244  0.9390105945831235  0.9971296737497964  1.0000
  H   H4        1.0  0.7753728527236632  0.43896296258384376  0.0028677056447392853  1.0000
  H   H5        1.0  0.9182993329162201  0.9869584850351956  0.33443546975021116  1.0000
  H   H6        1.0  0.08161847698651309  0.486928190079169  0.6655728081860203  1.0000
  H   H7        1.0  0.21713142235557106  0.9879991693986129  0.31425720996767126  1.0000
  H   H8        1.0  0.7827823746872937  0.4880151488226331  0.6857086452213108  1.0000
  H   H9        1.0  0.9669602953956512  0.6473023054816948  0.3669719558068962  1.0000
  H   H10       1.0  0.03310046575735729  0.1472917696734442  0.6330085773625882  1.0000
  H   H11       1.0  0.8922673008723124  0.8373507323067455  0.7731622502899426  1.0000
  H   H12       1.0  0.1077018999296087  0.33729368664577214  0.22684976829334144  1.0000
  H   H13       1.0  0.32037293160513514  0.5309540852800935  0.42288310742760155  1.0000
  H   H14       1.0  0.6797386507078187  0.031011514349692997  0.5770880804597167  1.0000
  H   H15       1.0  0.45354782845156183  0.7086228126101443  0.5094240757371651  1.0000
  H   H16       1.0  0.546444928863977  0.208738060062764  0.4905723283735383  1.0000
  C   C1        1.0  0.6884267879874956  0.7818077722592562  0.9376276025294812  1.0000
  C   C2        1.0  0.3116152181209273  0.2817317566534854  0.0623928620087852  1.0000
  C   C3        1.0  0.9622199762312961  0.8622731767541579  0.1366712630768347  1.0000
  C   C4        1.0  0.03774342996367609  0.36220443274782355  0.8633306471846183  1.0000
  C   C5        1.0  0.0552599935504503  0.8864929855797071  0.010495252077745898  1.0000
  C   C6        1.0  0.9447153229326374  0.386441878276365  0.9895080863598267  1.0000
  C   C7        1.0  0.055595549122763516  0.9064381588801779  0.29930795490650997  1.0000
  C   C8        1.0  0.9443446138882268  0.40641188532738676  0.7006858271525048  1.0000
  C   C9        1.0  0.10624514375739122  0.7466256858387722  0.40645348253366353  1.0000
  C   C10       1.0  0.8937725654006101  0.2466480043430224  0.5935374756438208  1.0000
  C   C11       1.0  0.0874792106779836  0.8031895257504189  0.5666079458526241  1.0000
  C   C12       1.0  0.9124988339669147  0.3033179967802084  0.43339415651840346  1.0000
  N   N1        1.0  0.7324247994122431  0.7950619958468507  0.0883767855623816  1.0000
  N   N2        1.0  0.2675872171421574  0.29497770224861614  0.9116366454105815  1.0000
  N   N3        1.0  0.8805198897565135  0.8361233025220897  0.8876067724313825  1.0000
  N   N4        1.0  0.1194944696137625  0.3360701905526966  0.11240781818437279  1.0000
  N   N5        1.0  0.3415177599423486  0.6643691743516768  0.4110942035139047  1.0000
  N   N6        1.0  0.6585243067431961  0.16442608202930126  0.5888879565073636  1.0000
  O   O1        1.0  0.8755884887786962  0.8263090628286989  0.5864720098997934  1.0000
  O   O2        1.0  0.12438563365490302  0.3262639413466387  0.41348377712412787  1.0000
  O   O3        1.0  0.2789199854604121  0.8238894638034252  0.6648215236288094  1.0000
  O   O4        1.0  0.7210395393814012  0.3243152337372948  0.33524641655211695  1.0000
