data_image0
_chemical_formula_structural       CaP2H20C16O12
_chemical_formula_sum              "Ca1 P2 H20 C16 O12"
_cell_length_a       5.2353470022672415
_cell_length_b       5.7689450348932985
_cell_length_c       16.434071982446316
_cell_angle_alpha    92.68637785273972
_cell_angle_beta     91.77541066547712
_cell_angle_gamma    93.02999002597807

_space_group_name_H-M_alt    "P 1"
_space_group_IT_number       1

loop_
  _space_group_symop_operation_xyz
  'x, y, z'

loop_
  _atom_site_type_symbol
  _atom_site_label
  _atom_site_symmetry_multiplicity
  _atom_site_fract_x
  _atom_site_fract_y
  _atom_site_fract_z
  _atom_site_occupancy
  Ca  Ca1       1.0  0.50000283260227  0.4999949853308793  0.5000038188780422  1.0000
  P   P1        1.0  0.8005063784948873  0.016577171465428402  0.4011856535033189  1.0000
  P   P2        1.0  0.19948993803925671  0.9834213488247273  0.5988147517508366  1.0000
  H   H1        1.0  0.19728251894297702  0.0486456365258334  0.44580293623295825  1.0000
  H   H2        1.0  0.8027194790230324  0.9513528646684293  0.5541962840549954  1.0000
  H   H3        1.0  0.04996747699862423  0.8546892596291615  0.19354014196139246  1.0000
  H   H4        1.0  0.9500458580444472  0.145307499067215  0.8064585092923195  1.0000
  H   H5        1.0  0.9664306198494897  0.4781105185105759  0.06331728067888058  1.0000
  H   H6        1.0  0.033563349416752396  0.5218844242910308  0.9366775824826303  1.0000
  H   H7        1.0  0.6066061910610613  0.5819509876310248  0.14987293322705847  1.0000
  H   H8        1.0  0.3933901512597656  0.4180492369652241  0.8501256711289498  1.0000
  H   H9        1.0  0.4712765717035198  0.32684064393041024  0.26044834683168  1.0000
  H   H10       1.0  0.5287330442585939  0.6731578504453922  0.7395503082755681  1.0000
  H   H11       1.0  0.7192248965357138  0.7402171426393734  0.2897378611053013  1.0000
  H   H12       1.0  0.2807734593058342  0.25978312779122353  0.710263189629785  1.0000
  H   H13       1.0  0.4597651937415533  0.9205341797083337  0.3076872094514442  1.0000
  H   H14       1.0  0.5402390748049156  0.07947125165847521  0.6923109068101921  1.0000
  H   H15       1.0  0.440510619447501  0.17020455712322052  0.9769905866682576  1.0000
  H   H16       1.0  0.5594764508903721  0.8298008644174429  0.023007431304776595  1.0000
  H   H17       1.0  0.1609718595552465  0.6859444977813923  0.38393595945586867  1.0000
  H   H18       1.0  0.8390379100508055  0.31405067746732845  0.6160711683639448  1.0000
  H   H19       1.0  0.0366065793974215  0.43415119494557786  0.39324487208929065  1.0000
  H   H20       1.0  0.9634034213471522  0.5658474672147946  0.6067629159859393  1.0000
  C   C1        1.0  0.75360163094836  0.07512115249389952  0.23541977862210214  1.0000
  C   C2        1.0  0.24639501946747802  0.9248825925709171  0.7645813125829193  1.0000
  C   C3        1.0  0.9536999553786172  0.015623664932178401  0.1857213151959769  1.0000
  C   C4        1.0  0.046300542648047824  0.9843817866223222  0.8142779969528107  1.0000
  C   C5        1.0  0.0302761936830791  0.15925578871172524  0.12336715601036727  1.0000
  C   C6        1.0  0.9697204055629527  0.8407496271022626  0.8766303077029178  1.0000
  C   C7        1.0  0.9076088959371305  0.3657242767366995  0.1113373410600218  1.0000
  C   C8        1.0  0.09238734364052448  0.6342742099965478  0.8886612376005372  1.0000
  C   C9        1.0  0.7068432846602589  0.424841398832001  0.16068023213091456  1.0000
  C   C10       1.0  0.29315287769185255  0.5751536681034181  0.8393213394614134  1.0000
  C   C11       1.0  0.630169991226971  0.28111513810303995  0.22240347914224398  1.0000
  C   C12       1.0  0.3698361882315595  0.7188902943555606  0.777594648040349  1.0000
  C   C13       1.0  0.6683952990132482  0.9206507232270341  0.30182389792524583  1.0000
  C   C14       1.0  0.33161064917224076  0.0793495291994617  0.6981759787646025  1.0000
  C   C15       1.0  0.23679031947842333  0.08558534541919731  0.06973478377006607  1.0000
  C   C16       1.0  0.7632044460810902  0.9144234891008268  0.930259676090486  1.0000
  O   O1        1.0  0.75857743642144  0.27213132423331393  0.420027866298831  1.0000
  O   O2        1.0  0.2414245614100494  0.7278654838404963  0.5799737637518092  1.0000
  O   O3        1.0  0.7026364874129526  0.8515190502616862  0.4651487763465524  1.0000
  O   O4        1.0  0.297363856431673  0.14848294793807074  0.5348517021404078  1.0000
  O   O5        1.0  0.10373574894224193  0.9880330790588022  0.3926416104374794  1.0000
  O   O6        1.0  0.8962644150681952  0.0119654546005776  0.6073594255231142  1.0000
  O   O7        1.0  0.29278622988553576  0.22896040503041348  0.011741840880468098  1.0000
  O   O8        1.0  0.7072087152391191  0.7710485077890752  0.9882568810318161  1.0000
  O   O9        1.0  0.3450178132806556  0.89994566317025  0.0788931631457785  1.0000
  O   O10       1.0  0.6549727451341666  0.10005622889979549  0.9211017809556166  1.0000
  O   O11       1.0  0.20317150951326815  0.5219621544915612  0.38761315241578126  1.0000
  O   O12       1.0  0.7968383884881263  0.47803476980580223  0.6123946099640064  1.0000
