data_image0
_chemical_formula_structural       Zn2H11C55N13O8F4
_chemical_formula_sum              "Zn2 H11 C55 N13 O8 F4"
_cell_length_a       12.699470389190589
_cell_length_b       13.370765434093217
_cell_length_c       17.43566417678286
_cell_angle_alpha    85.47665873449054
_cell_angle_beta     81.32789121823419
_cell_angle_gamma    83.68819846910499

_space_group_name_H-M_alt    "P 1"
_space_group_IT_number       1

loop_
  _space_group_symop_operation_xyz
  'x, y, z'

loop_
  _atom_site_type_symbol
  _atom_site_label
  _atom_site_symmetry_multiplicity
  _atom_site_fract_x
  _atom_site_fract_y
  _atom_site_fract_z
  _atom_site_occupancy
  Zn  Zn1       1.0  0.6183255791314938  0.5032596702714827  0.4780910506685528  1.0000
  Zn  Zn2       1.0  0.39819285159180856  0.4630013267341013  0.5196921390313987  1.0000
  H   H1        1.0  0.2812605810057392  0.529206034849551  0.14517018192962886  1.0000
  H   H2        1.0  0.6820019948931062  0.5003180427983978  0.7216052427614765  1.0000
  H   H3        1.0  0.5907707396441922  0.5543464407760369  0.9794929155800384  1.0000
  H   H4        1.0  0.2738151309225572  0.7640316134503211  0.6007655924296882  1.0000
  H   H5        1.0  0.7560616266604188  0.21143926874573543  0.4041353187909989  1.0000
  H   H6        1.0  0.6843967188162241  0.9039543997933989  0.44223136150332437  1.0000
  H   H7        1.0  0.7987064771401223  0.028962789461182598  0.3771447140053395  1.0000
  H   H8        1.0  0.4641193421405846  0.2166817056217383  0.6122196707923276  1.0000
  H   H9        1.0  0.08744177704149084  0.7260209388838558  0.38191632996338126  1.0000
  H   H10       1.0  0.8207423794655783  0.4366652268134672  0.5141863232985029  1.0000
  H   H11       1.0  0.34496742936541125  0.5766094415063988  0.019216945692939205  1.0000
  C   C1        1.0  0.5856939523793657  0.2961228122669155  0.49205830099315023  1.0000
  C   C2        1.0  0.4654473512795861  0.5133009859731458  0.2710816430897224  1.0000
  C   C3        1.0  0.3248942234816924  0.9092694597938688  0.6163184852281415  1.0000
  C   C4        1.0  0.51878370814552  0.4786633915130309  0.6454367656161817  1.0000
  C   C5        1.0  0.440647961145757  0.7706979684622793  0.5581793723146827  1.0000
  C   C6        1.0  0.7083249560467024  0.15456773613736632  0.43596254155013964  1.0000
  C   C7        1.0  0.7319940877610379  0.05234693982144731  0.4211751403428961  1.0000
  C   C8        1.0  0.6680413538302898  0.9810928516427212  0.45930174021552955  1.0000
  C   C9        1.0  0.5809344852103209  0.008336543575133205  0.5168672612134413  1.0000
  C   C10       1.0  0.5566954575366055  0.11257269907252268  0.5317153203219502  1.0000
  C   C11       1.0  0.5076397387850664  0.9371488694885884  0.5544992374631545  1.0000
  C   C12       1.0  0.6051131143655795  0.5132738369588805  0.7582111442223575  1.0000
  C   C13       1.0  0.4092012127172851  0.9734307721195418  0.5991931691243122  1.0000
  C   C14       1.0  0.4007442012386164  0.07436345226931  0.6252788356095136  1.0000
  C   C15       1.0  0.47208712217726406  0.14102289014519442  0.5918019675486615  1.0000
  C   C16       1.0  0.455045149587164  0.665961404363465  0.5310413541574659  1.0000
  C   C17       1.0  0.5263161151398422  0.8311193343731559  0.5454482723218416  1.0000
  C   C18       1.0  0.3398719079990756  0.8110703237413829  0.592163562609876  1.0000
  C   C19       1.0  0.6193589864781757  0.1853260085197874  0.4884623212469916  1.0000
  C   C20       1.0  0.8880771529870799  0.6725586232472339  0.3879289471649583  1.0000
  C   C21       1.0  0.19257470302429877  0.3902660833255284  0.5909510234379096  1.0000
  C   C22       1.0  0.08852418595767379  0.3675195764318673  0.6227258342593982  1.0000
  C   C23       1.0  0.5432228534967222  0.5669306696934412  0.13802369836157163  1.0000
  C   C24       1.0  0.004757465112028587  0.4188031548632267  0.5868882987709438  1.0000
  C   C25       1.0  0.026864804081604608  0.4910907544956374  0.5234571662181222  1.0000
  C   C26       1.0  0.134623083254283  0.5184706620748328  0.5059270431816782  1.0000
  C   C27       1.0  0.9452614156689166  0.5392332174282543  0.4793996126716633  1.0000
  C   C28       1.0  0.4768097833521524  0.4930093967560155  0.3554577781104482  1.0000
  C   C29       1.0  0.9690655063591367  0.62447541941237  0.4286087704052121  1.0000
  C   C30       1.0  0.07152868445670892  0.6588895946647141  0.4195015645524831  1.0000
  C   C31       1.0  0.1535466184433076  0.6070691525453782  0.4544794329598714  1.0000
  C   C32       1.0  0.8432441498446437  0.505595853785522  0.4814678671914974  1.0000
  C   C33       1.0  0.7874738217357307  0.638438417303746  0.39685901235856125  1.0000
  C   C34       1.0  0.5539596860498578  0.5391879581039163  0.21697433336397848  1.0000
  C   C35       1.0  0.5110588496183228  0.5046781234598257  0.7283834184232273  1.0000
  C   C36       1.0  0.4103748098133266  0.5223156130681162  0.7754693487183669  1.0000
  C   C37       1.0  0.4094247316054407  0.5463204449406334  0.8524297225450037  1.0000
  C   C38       1.0  0.5024773494791717  0.5508235626954486  0.8863944833305903  1.0000
  C   C39       1.0  0.5993804703866064  0.5350463742009524  0.8349713429775103  1.0000
  C   C40       1.0  0.31073154551889104  0.5187988032522596  0.7477191334103065  1.0000
  C   C41       1.0  0.3273621793167365  0.10474568911029539  0.6915578595608662  1.0000
  C   C42       1.0  0.2193695305356584  0.9456701330971384  0.6498101997072963  1.0000
  C   C43       1.0  0.633644268678438  0.7842515142908651  0.5343453875388132  1.0000
  C   C44       1.0  0.706331461408027  0.695444093264683  0.35893255299740884  1.0000
  C   C45       1.0  0.3666107100470129  0.511841340043091  0.24353476537555696  1.0000
  C   C46       1.0  0.659769558588799  0.5358407390120091  0.23683360061689018  1.0000
  C   C47       1.0  0.8996532278630414  0.3977057733116283  0.6212030826834292  1.0000
  C   C48       1.0  0.0686457804899447  0.29809205099787317  0.6877921631492538  1.0000
  C   C49       1.0  0.251117358460256  0.6528525167893093  0.4336560943025061  1.0000
  C   C50       1.0  0.2714182932733067  0.4845082698400347  0.2920104415074788  1.0000
  C   C51       1.0  0.633483032364758  0.6038920917286602  0.08996039132036056  1.0000
  C   C52       1.0  0.35794354999009664  0.5341992846579872  0.1647936437424277  1.0000
  C   C53       1.0  0.44500953416273603  0.5600528218628539  0.10973778544795455  1.0000
  C   C54       1.0  0.508473178214068  0.5612882484781779  0.9675902695542926  1.0000
  C   C55       1.0  0.42847940746813873  0.5704173444404078  0.02845725065084538  1.0000
  N   N1        1.0  0.7678580118440407  0.5535798727526641  0.44305451447820576  1.0000
  N   N2        1.0  0.04623434704473792  0.24309603204797267  0.7417740204478063  1.0000
  N   N3        1.0  0.3179571538776715  0.7046172315824819  0.40819190518593707  1.0000
  N   N4        1.0  0.1881303564899923  0.4630866474296553  0.32322595781687347  1.0000
  N   N5        1.0  0.7075735699812215  0.6368084173840316  0.05248791897664517  1.0000
  N   N6        1.0  0.21624190574907945  0.4630535171332113  0.5383093828892738  1.0000
  N   N7        1.0  0.22697960002506082  0.5185458282190254  0.7277912105736557  1.0000
  N   N8        1.0  0.2761248658809592  0.13205519433373067  0.7489095479415934  1.0000
  N   N9        1.0  0.12988348210424763  0.9716607756445582  0.6722603786545914  1.0000
  N   N10       1.0  0.7220651705123444  0.7496318430180222  0.5360330697229683  1.0000
  N   N11       1.0  0.6456120827188984  0.7495059989368896  0.32747062156025897  1.0000
  N   N12       1.0  0.750733193220178  0.5329152168935777  0.2419992587349994  1.0000
  N   N13       1.0  0.8166652976640664  0.3778961918005592  0.653976585886802  1.0000
  O   O1        1.0  0.6605158545450394  0.3537145402115343  0.4872539000615957  1.0000
  O   O2        1.0  0.48594025083727405  0.3239699655692477  0.4959927435842244  1.0000
  O   O3        1.0  0.5988554265670845  0.5067544346617437  0.5993165009099568  1.0000
  O   O4        1.0  0.4435270230968556  0.4327869729766362  0.6287114096383346  1.0000
  O   O5        1.0  0.5390015050945395  0.6432123609545144  0.4839034779469597  1.0000
  O   O6        1.0  0.3815641094269965  0.60883684054302  0.5549311446886873  1.0000
  O   O7        1.0  0.5704933711380563  0.4908077298484983  0.3721009470975073  1.0000
  O   O8        1.0  0.39179801087826865  0.4818033285426536  0.40301947613184536  1.0000
  F   F1        1.0  0.9084356788056099  0.7546120553844987  0.340746755174301  1.0000
  F   F2        1.0  0.2744004188432855  0.33294885688402326  0.6162786245707677  1.0000
  F   F3        1.0  0.6921327865634412  0.5401039970091973  0.8631081650832679  1.0000
  F   F4        1.0  0.31319076688244973  0.5642172667962341  0.8968244729656756  1.0000
