data_image0
_chemical_formula_structural       Cd4H16C24S12N8O16
_chemical_formula_sum              "Cd4 H16 C24 S12 N8 O16"
_cell_length_a       4.737428473014633
_cell_length_b       8.184859944012535
_cell_length_c       25.895997511112814
_cell_angle_alpha    90.00019006544106
_cell_angle_beta     89.99971840299891
_cell_angle_gamma    90.00004931424152

_space_group_name_H-M_alt    "P 1"
_space_group_IT_number       1

loop_
  _space_group_symop_operation_xyz
  'x, y, z'

loop_
  _atom_site_type_symbol
  _atom_site_label
  _atom_site_symmetry_multiplicity
  _atom_site_fract_x
  _atom_site_fract_y
  _atom_site_fract_z
  _atom_site_occupancy
  Cd  Cd1       1.0  0.8202654920878344  0.8482667153495174  0.0636848301943331  1.0000
  Cd  Cd2       1.0  0.6797389419210376  0.15173320854013642  0.5636861138886786  1.0000
  Cd  Cd3       1.0  0.1797311510112465  0.34826603652123833  0.4363146360544548  1.0000
  Cd  Cd4       1.0  0.32026081767592973  0.6517350460786349  0.9363140108439438  1.0000
  H   H1        1.0  0.023502452330518498  0.6500425792277941  0.17615728903368932  1.0000
  H   H2        1.0  0.476490187867661  0.3499631550841543  0.6761612213573186  1.0000
  H   H3        1.0  0.9764917682797787  0.15003989466450213  0.3238419654575821  1.0000
  H   H4        1.0  0.5235056616620992  0.849960264587587  0.8238398874583979  1.0000
  H   H5        1.0  0.19967168332091484  0.8270537142227427  0.20012123950890987  1.0000
  H   H6        1.0  0.30032453342589355  0.17295226684604614  0.7001235961543558  1.0000
  H   H7        1.0  0.8003291481071312  0.3270531437043616  0.29987974871702516  1.0000
  H   H8        1.0  0.6996731486603309  0.672947990570819  0.7998777097238658  1.0000
  H   H9        1.0  0.2229129003313304  0.8206590860545759  0.45686360437561296  1.0000
  H   H10       1.0  0.27708695851285364  0.17934098638171042  0.9568636717392281  1.0000
  H   H11       1.0  0.7770900319067449  0.3206558608610451  0.0431362185365671  1.0000
  H   H12       1.0  0.7229086227816521  0.6793414078926573  0.543136868647224  1.0000
  H   H13       1.0  0.15398599539857122  0.9671158097175052  0.4071143265986308  1.0000
  H   H14       1.0  0.34601942453824813  0.032882528663492394  0.9071134033413913  1.0000
  H   H15       1.0  0.846017167096569  0.4671131291776973  0.09288526660947131  1.0000
  H   H16       1.0  0.6539780373697965  0.5328858736238404  0.5928858221079452  1.0000
  C   C1        1.0  0.39009861033862586  0.732779349252354  0.1327381037385535  1.0000
  C   C2        1.0  0.1099015313845442  0.26722593795405203  0.6327407319445016  1.0000
  C   C3        1.0  0.6098957403504526  0.23277571784913687  0.3672608529775729  1.0000
  C   C4        1.0  0.8901047423216535  0.7672261102770007  0.8672602884822213  1.0000
  C   C5        1.0  0.23112559164772506  0.7055805712755687  0.18297797073048372  1.0000
  C   C6        1.0  0.268875308331083  0.2944227897316409  0.6829808715195754  1.0000
  C   C7        1.0  0.7688708271322751  0.20557894073476046  0.3170209569300511  1.0000
  C   C8        1.0  0.7311288972813087  0.7944211482865526  0.8170201779607709  1.0000
  C   C9        1.0  0.2723574980137967  0.6058530642651547  0.2836710658881644  1.0000
  C   C10       1.0  0.22764069103263299  0.3941464465396578  0.7836744963661391  1.0000
  C   C11       1.0  0.7276429856849019  0.10585159925877724  0.21632736907435662  1.0000
  C   C12       1.0  0.7723573388106927  0.8941450093544321  0.7163266596491981  1.0000
  C   C13       1.0  0.0160001297941577  0.6723835580704005  0.3611851256381513  1.0000
  C   C14       1.0  0.48400441578807823  0.3276143073782977  0.8611870965545451  1.0000
  C   C15       1.0  0.9840067910396895  0.1723826370495871  0.13881415271463743  1.0000
  C   C16       1.0  0.5159956203089422  0.8276156169256836  0.6388139883868574  1.0000
  C   C17       1.0  0.05757668529155779  0.8923193058479698  0.43741322066781413  1.0000
  C   C18       1.0  0.44242158637238294  0.10768178806428352  0.9374122908195162  1.0000
  C   C19       1.0  0.9424242487572909  0.39231635859066233  0.06258667879809822  1.0000
  C   C20       1.0  0.5575696605794249  0.6076823322156386  0.562587014537165  1.0000
  C   C21       1.0  0.9209897835555906  0.9978658126613813  0.47814234991651017  1.0000
  C   C22       1.0  0.5790098247343138  0.0021322701763253  0.978142405689404  1.0000
  C   C23       1.0  0.07900920558873989  0.49786326226804795  0.02185688998287111  1.0000
  C   C24       1.0  0.42099392136012165  0.5021311090092343  0.5218579453852145  1.0000
  S   S1        1.0  0.4473646000321735  0.5822567998836661  0.22540173840617686  1.0000
  S   S2        1.0  0.05263093607251789  0.41774577621041703  0.72540573727143  1.0000
  S   S3        1.0  0.5526337357232194  0.0822595180060404  0.27459667135227767  1.0000
  S   S4        1.0  0.9473713525602532  0.9177425776983912  0.7745962162717178  1.0000
  S   S5        1.0  0.017712930151453993  0.7499813883922286  0.29877204632433774  1.0000
  S   S6        1.0  0.48228696321804415  0.25001827790047326  0.7987731635647038  1.0000
  S   S7        1.0  0.9822898909826775  0.2499798874829935  0.2012269287655997  1.0000
  S   S8        1.0  0.5177108400548532  0.7500226744788564  0.7012266800054051  1.0000
  S   S9        1.0  0.7998783907067304  0.750363335124483  0.40976104829833565  1.0000
  S   S10       1.0  0.7001293911245127  0.24963526534479996  0.9097620321265651  1.0000
  S   S11       1.0  0.20012443102245203  0.2503615457554744  0.09023831335953501  1.0000
  S   S12       1.0  0.29987052239218304  0.7496347514242532  0.5902378110308107  1.0000
  N   N1        1.0  0.3402186006746959  0.5111198367151106  0.3233006611903519  1.0000
  N   N2        1.0  0.15978274312877255  0.48887641686728495  0.8233046399114841  1.0000
  N   N3        1.0  0.6597817340816261  0.011121597067322903  0.1766984448931126  1.0000
  N   N4        1.0  0.8402217681826939  0.9888746034737184  0.6766973896183616  1.0000
  N   N5        1.0  0.19417468223628728  0.5493369284143416  0.36657731908835695  1.0000
  N   N6        1.0  0.3058360507071923  0.4506585490303366  0.8665803536272066  1.0000
  N   N7        1.0  0.8058257126068397  0.049337089953020594  0.1334214416604595  1.0000
  N   N8        1.0  0.6941768439436585  0.9506611084857822  0.6334200904338375  1.0000
  O   O1        1.0  0.6386828453940224  0.6748663623661316  0.1288373585051374  1.0000
  O   O2        1.0  0.8613156128290667  0.32513545418967743  0.6288394368455172  1.0000
  O   O3        1.0  0.3613114142482558  0.17486387615075222  0.3711615363447436  1.0000
  O   O4        1.0  0.1386844193924048  0.8251377573125256  0.8711601008080834  1.0000
  O   O5        1.0  0.2763370084128312  0.8184971640245281  0.09779032880158671  1.0000
  O   O6        1.0  0.22367251758727485  0.18150776331915358  0.597793535685817  1.0000
  O   O7        1.0  0.7236574770304215  0.3184915023835586  0.4022091056435002  1.0000
  O   O8        1.0  0.7763378430568507  0.6815143509142703  0.9022077793321374  1.0000
  O   O9        1.0  0.7107002114863548  0.9429437554980853  0.5032594238185979  1.0000
  O   O10       1.0  0.7892995167964327  0.057054324398116314  0.0032596396353171  1.0000
  O   O11       1.0  0.2892978950911739  0.4429449721170756  0.9967406258467976  1.0000
  O   O12       1.0  0.210698779305929  0.5570506238722004  0.49674067399691085  1.0000
  O   O13       1.0  0.030187128518519988  0.1365192131964648  0.48839985917813783  1.0000
  O   O14       1.0  0.46981188129954876  0.8634799622049769  0.9883989398353068  1.0000
  O   O15       1.0  0.9698112925196936  0.6365157606195169  0.011600153184311101  1.0000
  O   O16       1.0  0.5301924329048403  0.3634824051660459  0.5116006387788516  1.0000
