data_image0
_chemical_formula_structural       Sc4H20C36O34
_chemical_formula_sum              "Sc4 H20 C36 O34"
_cell_length_a       8.710786339180107
_cell_length_b       10.567570918109253
_cell_length_c       11.917446633010838
_cell_angle_alpha    92.54630756829276
_cell_angle_beta     92.06913971238126
_cell_angle_gamma    105.11947788681728

_space_group_name_H-M_alt    "P 1"
_space_group_IT_number       1

loop_
  _space_group_symop_operation_xyz
  'x, y, z'

loop_
  _atom_site_type_symbol
  _atom_site_label
  _atom_site_symmetry_multiplicity
  _atom_site_fract_x
  _atom_site_fract_y
  _atom_site_fract_z
  _atom_site_occupancy
  Sc  Sc1       1.0  0.4849988754581744  0.0471077783246798  0.2943294011823596  1.0000
  Sc  Sc2       1.0  0.5150037910603656  0.9528929783250815  0.7056721164781266  1.0000
  Sc  Sc3       1.0  0.9227910346278277  0.2691131367735339  0.058583344221204904  1.0000
  Sc  Sc4       1.0  0.0772076249663982  0.7308787883022064  0.9414176901733242  1.0000
  H   H1        1.0  0.3593596369400629  0.9078009389012963  0.09388327646951922  1.0000
  H   H2        1.0  0.6406425132041704  0.09220178967552783  0.9061174779228054  1.0000
  H   H3        1.0  0.5431479344680739  0.8938712090782132  0.1032026962835317  1.0000
  H   H4        1.0  0.45685829781159265  0.10613346643508954  0.8967990764213667  1.0000
  H   H5        1.0  0.7974116097250104  0.9893458850102734  0.9968083765790466  1.0000
  H   H6        1.0  0.20258976840778334  0.010650962382627003  0.0031895816868399  1.0000
  H   H7        1.0  0.8956836009948432  0.07393508334680382  0.8946861519856029  1.0000
  H   H8        1.0  0.10431707086166146  0.92606668079403  0.1053120086207073  1.0000
  H   H9        1.0  0.3985174674122974  0.4513115726215134  0.2679726739462183  1.0000
  H   H10       1.0  0.6014773438041132  0.5486862807306779  0.7320251798534159  1.0000
  H   H11       1.0  0.4865605499469865  0.7082830722927228  0.20837109741453472  1.0000
  H   H12       1.0  0.513431644294009  0.29171381182013795  0.7916258147741856  1.0000
  H   H13       1.0  0.20680560542420784  0.25160797792889167  0.3934995599332254  1.0000
  H   H14       1.0  0.7932011344779681  0.7483947344981419  0.6065012979836196  1.0000
  H   H15       1.0  0.2187145848508436  0.2176135274223513  0.6210341672030566  1.0000
  H   H16       1.0  0.7812919563975597  0.7823921386663387  0.37896597826615164  1.0000
  H   H17       1.0  0.23958544826010106  0.5514698688052635  0.5455836226128881  1.0000
  H   H18       1.0  0.7604210929883024  0.4485357972834267  0.4544165228563202  1.0000
  H   H19       1.0  0.034249149212939825  0.4157845000976154  0.37401474942881663  1.0000
  H   H20       1.0  0.965751447335812  0.5842132844430383  0.625992463085737  1.0000
  C   C1        1.0  0.5823870548347685  0.2916647694901258  0.1463250105575682  1.0000
  C   C2        1.0  0.417609724788278  0.7083321028933441  0.853671166127569  1.0000
  C   C3        1.0  0.5759262370859376  0.42932209849249164  0.1478266092071792  1.0000
  C   C4        1.0  0.42406823453043074  0.5706747952270421  0.8521669986313469  1.0000
  C   C5        1.0  0.48652107380506493  0.49528035584932456  0.20921313318034152  1.0000
  C   C6        1.0  0.5134776917282124  0.5047155178838665  0.7907847225027425  1.0000
  C   C7        1.0  0.5320988933746379  0.6274204417308626  0.1787368914519618  1.0000
  C   C8        1.0  0.4678915092339935  0.37257449179101343  0.8212582151583234  1.0000
  C   C9        1.0  0.6464524724635934  0.6346171382311568  0.1004633334228799  1.0000
  C   C10       1.0  0.3535385655861135  0.3653797587599358  0.8995318748284831  1.0000
  C   C11       1.0  0.7372803182321518  0.7461614411528573  0.0394157386266372  1.0000
  C   C12       1.0  0.2627212629303273  0.2538324481579934  0.9605837711149974  1.0000
  C   C13       1.0  0.8742799741528485  0.14211262100410246  0.2948463244945785  1.0000
  C   C14       1.0  0.12573135988318287  0.8578900708527546  0.7051554759749052  1.0000
  C   C15       1.0  0.953277229301392  0.15372995355483712  0.40727822900058197  1.0000
  C   C16       1.0  0.04672849097985939  0.8462766894651285  0.5927236194642589  1.0000
  C   C17       1.0  0.1093290637065252  0.20829266579146122  0.4455278018733182  1.0000
  C   C18       1.0  0.8906791369797774  0.7917110287531276  0.5544722937170832  1.0000
  C   C19       1.0  0.11574299553872439  0.19052630258986622  0.5625313792881315  1.0000
  C   C20       1.0  0.8842614494844768  0.8094764179120592  0.4374694268664499  1.0000
  C   C21       1.0  0.9636886656011754  0.1250251918788763  0.5892151631223683  1.0000
  C   C22       1.0  0.03631693123741543  0.8749775201652102  0.41078650794145943  1.0000
  C   C23       1.0  0.8992965525999069  0.07478539199346562  0.6965173665688411  1.0000
  C   C24       1.0  0.10070643601507365  0.9252163419705186  0.30348504094030204  1.0000
  C   C25       1.0  0.4356135568795095  0.8092525467610726  0.4648945556202264  1.0000
  C   C26       1.0  0.5643848200980202  0.19074922545464554  0.53510355322382  1.0000
  C   C27       1.0  0.3101672367993302  0.6957648808843687  0.4172646708398773  1.0000
  C   C28       1.0  0.6898309459003189  0.30423984057262043  0.5827335645846432  1.0000
  C   C29       1.0  0.22480650735967345  0.5808676615583723  0.4606583329633338  1.0000
  C   C30       1.0  0.7751974256651195  0.41913702645021544  0.5393425489511969  1.0000
  C   C31       1.0  0.11854872408904531  0.5111017406289733  0.37229949731084133  1.0000
  C   C32       1.0  0.8814510252371477  0.488897047365292  0.6277043840306575  1.0000
  C   C33       1.0  0.14482465899812524  0.587528831547843  0.280513946037189  1.0000
  C   C34       1.0  0.8551738019423214  0.4124660471895612  0.7194863759097033  1.0000
  C   C35       1.0  0.07852639914914761  0.5675578607158513  0.1638650563795778  1.0000
  C   C36       1.0  0.9214536807833653  0.4324262404849365  0.836140243283502  1.0000
  O   O1        1.0  0.45851306472069103  0.9252685747974143  0.1419653747492831  1.0000
  O   O2        1.0  0.5414887633271022  0.07473317646518753  0.8580344897943918  1.0000
  O   O3        1.0  0.8355526416312246  0.07936068084093512  0.9662087021756207  1.0000
  O   O4        1.0  0.16444561627954365  0.9206371559785184  0.0337900682955237  1.0000
  O   O5        1.0  0.4817039659794845  0.21589687298452995  0.2043752008968909  1.0000
  O   O6        1.0  0.5182874160461638  0.7841009792188204  0.7956250923436913  1.0000
  O   O7        1.0  0.6857337775421044  0.25582575224965615  0.0889088800799769  1.0000
  O   O8        1.0  0.31426252071383226  0.7441730566977399  0.9110932455619006  1.0000
  O   O9        1.0  0.6742777975241694  0.5139639919996031  0.08104247360446953  1.0000
  O   O10       1.0  0.32571617522148705  0.48603485596542145  0.9189537270783461  1.0000
  O   O11       1.0  0.8496003800779307  0.7280696408622875  0.9799838464772321  1.0000
  O   O12       1.0  0.15040819603642322  0.2719281684609315  0.020013478867866804  1.0000
  O   O13       1.0  0.6978357464421522  0.8531270432259322  0.048405448164196216  1.0000
  O   O14       1.0  0.3021683326289732  0.14686387992797736  0.95159566481545  1.0000
  O   O15       1.0  0.7284887697307241  0.08040816861079494  0.2807296554124719  1.0000
  O   O16       1.0  0.2715131905115271  0.9195975047868998  0.7192720645884378  1.0000
  O   O17       1.0  0.9601164568346692  0.1972923650243033  0.2172893355850007  1.0000
  O   O18       1.0  0.03989280723157399  0.8027073547234379  0.7827181597385432  1.0000
  O   O19       1.0  0.8637551751879614  0.10205331578936243  0.4948247241945722  1.0000
  O   O20       1.0  0.13624907993326468  0.8979523495334406  0.5051770475686013  1.0000
  O   O21       1.0  0.7537898782632267  0.005396803586379001  0.6942692585187586  1.0000
  O   O22       1.0  0.24621126538777832  0.9946098423221914  0.3057350035059017  1.0000
  O   O23       1.0  0.9913656272989115  0.10101750540063391  0.7826430184360262  1.0000
  O   O24       1.0  0.00863448360346549  0.8989930843620473  0.2173597170522896  1.0000
  O   O25       1.0  0.502451096811811  0.8971309034322065  0.40032684140778235  1.0000
  O   O26       1.0  0.4975507006046768  0.10287087877313184  0.5996671499390871  1.0000
  O   O27       1.0  0.4693844010508101  0.8094659664962908  0.5695740156104137  1.0000
  O   O28       1.0  0.5306113501995072  0.19053484532089027  0.4304214735664901  1.0000
  O   O29       1.0  0.2608382342532778  0.7006091841297748  0.3077263512848631  1.0000
  O   O30       1.0  0.7391593882164216  0.29938668922046935  0.6922723175452034  1.0000
  O   O31       1.0  0.11809451002228147  0.6624963060233643  0.10074451504679162  1.0000
  O   O32       1.0  0.8818955792417142  0.3374976413435179  0.8992513797710728  1.0000
  O   O33       1.0  0.9862785162154709  0.4551501134085074  0.13606856826038444  1.0000
  O   O34       1.0  0.01371914563733161  0.5448457201582145  0.8639376518227094  1.0000
