data_image0
_chemical_formula_structural       Hg2H16C12Br4N4
_chemical_formula_sum              "Hg2 H16 C12 Br4 N4"
_cell_length_a       4.083462960647894
_cell_length_b       10.280011279152324
_cell_length_c       12.156875901780483
_cell_angle_alpha    106.78872211797967
_cell_angle_beta     94.45108064936687
_cell_angle_gamma    99.06931766792779

_space_group_name_H-M_alt    "P 1"
_space_group_IT_number       1

loop_
  _space_group_symop_operation_xyz
  'x, y, z'

loop_
  _atom_site_type_symbol
  _atom_site_label
  _atom_site_symmetry_multiplicity
  _atom_site_fract_x
  _atom_site_fract_y
  _atom_site_fract_z
  _atom_site_occupancy
  Hg  Hg1       1.0  0.7401733889351547  0.8471904684162722  0.07653267631282996  1.0000
  Hg  Hg2       1.0  0.2598160728140613  0.15281022512174047  0.9234690752524202  1.0000
  H   H1        1.0  0.4144516661510733  0.5746241336782345  0.15699029638490455  1.0000
  H   H2        1.0  0.5855482068755506  0.4253826837764406  0.8430098965894999  1.0000
  H   H3        1.0  0.5736862462296556  0.3533311927286462  0.3022947507852792  1.0000
  H   H4        1.0  0.4263198484462976  0.6466683183010815  0.6977038738759305  1.0000
  H   H5        1.0  0.20675770948138705  0.39567308514578764  0.245998224995823  1.0000
  H   H6        1.0  0.7932463444622612  0.6043222794169337  0.7539985382109862  1.0000
  H   H7        1.0  0.3069377979647355  0.43070915499160384  0.3997608431987345  1.0000
  H   H8        1.0  0.693064828162626  0.5692882947975733  0.6002363768887733  1.0000
  H   H9        1.0  0.12988887583660585  0.9154082779793952  0.34617773406536395  1.0000
  H   H10       1.0  0.870107010212017  0.0845955291895777  0.6538290412856824  1.0000
  H   H11       1.0  0.08472715974087199  0.8434486554259947  0.6208767849693472  1.0000
  H   H12       1.0  0.9152710763832275  0.15654989554779059  0.37912386971473216  1.0000
  H   H13       1.0  0.3419399666187174  0.9394373877205097  0.5484783182157216  1.0000
  H   H14       1.0  0.6580523523720957  0.06055911827746031  0.4515208703561413  1.0000
  H   H15       1.0  0.4214367718752354  0.7768912436320432  0.5573936687345266  1.0000
  H   H16       1.0  0.578564421608725  0.22310834264500554  0.44260895592965  1.0000
  C   C1        1.0  0.5839840485481033  0.626918953647646  0.23709350988207228  1.0000
  C   C2        1.0  0.4160157203376613  0.37308268368157366  0.7629062731988158  1.0000
  C   C3        1.0  0.6071034293729837  0.56872792454876  0.32821775791358476  1.0000
  C   C4        1.0  0.39290266449845035  0.43127159502453344  0.6717816913636199  1.0000
  C   C5        1.0  0.4091378319390841  0.43011726036832676  0.31863552725508265  1.0000
  C   C6        1.0  0.5908677531571839  0.5698812076369747  0.6813620135805322  1.0000
  C   C7        1.0  0.9786933143704386  0.8164746526395701  0.34294651036806556  1.0000
  C   C8        1.0  0.021305025090001106  0.1835290870032367  0.6570553788255182  1.0000
  C   C9        1.0  0.999555981207571  0.7609307421200953  0.43514726129242126  1.0000
  C   C10       1.0  0.0004461297084645682  0.23906572444964516  0.5648546472814573  1.0000
  C   C11       1.0  0.2243860820871005  0.8350457843131736  0.5461753240428918  1.0000
  C   C12       1.0  0.7756111340731026  0.16495068915532576  0.4538239876059862  1.0000
  Br  Br1       1.0  0.22539246612338087  0.6694215057516643  0.965117986076848  1.0000
  Br  Br2       1.0  0.7746048541776887  0.3305801478422907  0.03488173546553951  1.0000
  Br  Br3       1.0  0.2245780069471692  0.0506627591568005  0.1661590707183365  1.0000
  Br  Br4       1.0  0.7754182909764463  0.9493368425625799  0.8338417816368418  1.0000
  N   N1        1.0  0.7698467440534742  0.7493053715310225  0.2454311073198738  1.0000
  N   N2        1.0  0.23015598219215141  0.25069730110146077  0.7545706457411258  1.0000
  N   N3        1.0  0.8137311518263816  0.6372463410932383  0.4264647041434272  1.0000
  N   N4        1.0  0.18626953610049662  0.3627521594415341  0.5735327136151723  1.0000
