data_image0
_chemical_formula_structural       Zn8H64C72O34
_chemical_formula_sum              "Zn8 H64 C72 O34"
_cell_length_a       17.80446352565059
_cell_length_b       18.64629478700788
_cell_length_c       23.3650518116496
_cell_angle_alpha    66.59720417611456
_cell_angle_beta     69.70220667432396
_cell_angle_gamma    89.94596389835047

_space_group_name_H-M_alt    "P 1"
_space_group_IT_number       1

loop_
  _space_group_symop_operation_xyz
  'x, y, z'

loop_
  _atom_site_type_symbol
  _atom_site_label
  _atom_site_symmetry_multiplicity
  _atom_site_fract_x
  _atom_site_fract_y
  _atom_site_fract_z
  _atom_site_occupancy
  Zn  Zn1       1.0  0.11844117381676258  0.5310138209192273  0.9415247981511358  1.0000
  Zn  Zn2       1.0  0.9722331007587287  0.5595985307999457  0.051321673142851375  1.0000
  Zn  Zn3       1.0  0.9760311033000306  0.38924173175038135  0.05096006284828986  1.0000
  Zn  Zn4       1.0  0.9387204816692573  0.5305179699597031  0.9347969277787204  1.0000
  Zn  Zn5       1.0  0.38515452751907725  0.9769013369761552  0.05012054088971491  1.0000
  Zn  Zn6       1.0  0.5291841721471329  0.1160095494195801  0.9369430196960169  1.0000
  Zn  Zn7       1.0  0.5236587975812056  0.946026819459341  0.9372327288243271  1.0000
  Zn  Zn8       1.0  0.5674091881702381  0.9727291554759321  0.05111854673651088  1.0000
  H   H1        1.0  0.49767521869341635  0.8674071751356608  0.2638262380387176  1.0000
  H   H2        1.0  0.26013021025062943  0.8742962149742795  0.2531787185646692  1.0000
  H   H3        1.0  0.25155267974224665  0.63160089192543  0.7368038252646376  1.0000
  H   H4        1.0  0.01501951058930468  0.6377326271044124  0.7242179710350244  1.0000
  H   H5        1.0  0.629900422148836  0.018697297328707  0.7297060738716895  1.0000
  H   H6        1.0  0.6272611632199983  0.24992470564878738  0.7305079183088027  1.0000
  H   H7        1.0  0.8699977006384144  0.25509900846929406  0.25819399085128236  1.0000
  H   H8        1.0  0.8680010038334557  0.4865126686008879  0.2587648471638603  1.0000
  H   H9        1.0  0.19772848899812348  0.3013717726928036  0.9110033330213984  1.0000
  H   H10       1.0  0.1257868661971386  0.2296541383257136  0.9873804497434266  1.0000
  H   H11       1.0  0.2148753269859043  0.13777732881262492  0.9849286069079429  1.0000
  H   H12       1.0  0.286485816427998  0.2101574838345144  0.9087604756420337  1.0000
  H   H13       1.0  0.21461505241071416  0.12363509875948608  0.09606676851559834  1.0000
  H   H14       1.0  0.2864220962435055  0.18450206480390818  0.10029349561173721  1.0000
  H   H15       1.0  0.1263380056314176  0.21653534380664746  0.0988124389966245  1.0000
  H   H16       1.0  0.19941809347103856  0.27755139414468727  0.10156222155759315  1.0000
  H   H17       1.0  0.30201245566654217  0.3908883654258373  0.9143443869029613  1.0000
  H   H18       1.0  0.3026386716575827  0.38188975122633195  0.9919634476207622  1.0000
  H   H19       1.0  0.39117222711452365  0.2894589301022136  0.9906472945029496  1.0000
  H   H20       1.0  0.3909620096072146  0.2991125850217458  0.9128331122281639  1.0000
  H   H21       1.0  0.8906704022298513  0.8004546973225573  0.904846215128892  1.0000
  H   H22       1.0  0.8878862570788826  0.7878297733443701  0.9847858150700831  1.0000
  H   H23       1.0  0.7989456687615686  0.8801485916934411  0.9860178859754074  1.0000
  H   H24       1.0  0.8019315758149544  0.8917337914299568  0.9062296427960282  1.0000
  H   H25       1.0  0.6959498036521907  0.7769385054874648  0.09170517214619153  1.0000
  H   H26       1.0  0.6236608948154867  0.7153759618301551  0.08855866861360778  1.0000
  H   H27       1.0  0.7833138078350926  0.6831298713472976  0.09076839251236636  1.0000
  H   H28       1.0  0.7113326375691073  0.6232215647784898  0.08573224518924868  1.0000
  H   H29       1.0  0.7891944361555758  0.7128031014103017  0.8971637494306679  1.0000
  H   H30       1.0  0.7163399652336508  0.6398922810283736  0.9707642351611913  1.0000
  H   H31       1.0  0.626873354915517  0.7313318700542624  0.9732333548828793  1.0000
  H   H32       1.0  0.6994629760449839  0.8039148381102946  0.8993702965384716  1.0000
  H   H33       1.0  0.16211806723736538  0.7932421494133237  0.9370553207793865  1.0000
  H   H34       1.0  0.246389922076375  0.7572395412688238  0.8960375734977152  1.0000
  H   H35       1.0  0.3335330559095837  0.852827417662347  0.8937985504180761  1.0000
  H   H36       1.0  0.24876883403733532  0.8876149182141122  0.9356668196762146  1.0000
  H   H37       1.0  0.39390437336454914  0.7439846770021888  0.9606737786866404  1.0000
  H   H38       1.0  0.35293412646681327  0.7026182523474914  0.04955288266170037  1.0000
  H   H39       1.0  0.3056624838976063  0.6482014753350142  0.9637086684808412  1.0000
  H   H40       1.0  0.2646390855160803  0.608155416716734  0.052596811383672504  1.0000
  H   H41       1.0  0.10188903142443445  0.7350618912584748  0.06508031912794371  1.0000
  H   H42       1.0  0.1432373537059703  0.659196648025322  0.11231941115553212  1.0000
  H   H43       1.0  0.2318326856332362  0.7534443744967518  0.11014740299705032  1.0000
  H   H44       1.0  0.18987435514437578  0.8292729350488912  0.06350003861086148  1.0000
  H   H45       1.0  0.8992567498899361  0.2671597734844441  0.929511089167676  1.0000
  H   H46       1.0  0.8550202245798814  0.34325065372907904  0.8842618681638755  1.0000
  H   H47       1.0  0.7687511864220369  0.24768267541045935  0.8856324398610272  1.0000
  H   H48       1.0  0.8121514776060649  0.17204541372630905  0.9322332212650652  1.0000
  H   H49       1.0  0.6494762344199784  0.2981169283729202  0.9454519052294119  1.0000
  H   H50       1.0  0.6065041021748739  0.2571661576731755  0.03425814059163911  1.0000
  H   H51       1.0  0.7363679842442393  0.3924168931558043  0.945423909331595  1.0000
  H   H52       1.0  0.693755403328744  0.34993891071395916  0.034269887852218524  1.0000
  H   H53       1.0  0.8394301866721959  0.20525129417607954  0.05749672436728292  1.0000
  H   H54       1.0  0.7564837042355279  0.2393141512682604  0.10083150892386077  1.0000
  H   H55       1.0  0.6671880014010297  0.14668423934219282  0.1019955779039989  1.0000
  H   H56       1.0  0.7502412260028065  0.11121349058751659  0.06025743317806591  1.0000
  H   H57       1.0  0.16405487829602086  0.7843401539221588  0.43095244997327603  1.0000
  H   H58       1.0  0.41210813770356214  0.7784158883259948  0.44219983801455953  1.0000
  H   H59       1.0  0.10195473764304808  0.7268818522699121  0.545996965938869  1.0000
  H   H60       1.0  0.34915955106430363  0.720752360924834  0.5590592767200138  1.0000
  H   H61       1.0  0.7299754676588462  0.34392262157916054  0.5531674894559587  1.0000
  H   H62       1.0  0.7317985919838961  0.10286355917232727  0.5522193452998891  1.0000
  H   H63       1.0  0.7795727319801457  0.4021616206376777  0.4371580358735231  1.0000
  H   H64       1.0  0.7805346260351271  0.16103262887540384  0.43652195563345964  1.0000
  C   C1        1.0  0.14177208064628388  0.6350271091802924  0.0032466817268568897  1.0000
  C   C2        1.0  0.9089331819594761  0.41190877276224575  0.17627982849484156  1.0000
  C   C3        1.0  0.14435201084616267  0.36388976538979984  0.0010585239038078532  1.0000
  C   C4        1.0  0.860929839533668  0.3657878432831509  0.9904675326072339  1.0000
  C   C5        1.0  0.09092998032109989  0.5932993474408192  0.8131074730625303  1.0000
  C   C6        1.0  0.861128709293176  0.6434143170273854  0.9891194717283941  1.0000
  C   C7        1.0  0.3601397738022812  0.14172357460824261  0.9969155862173056  1.0000
  C   C8        1.0  0.5833309516018659  0.09322764380485181  0.8119446178933104  1.0000
  C   C9        1.0  0.3557968896084703  0.8631404193236493  0.9981914396463982  1.0000
  C   C10       1.0  0.6441756514232891  0.8652825827036422  0.992345851285677  1.0000
  C   C11       1.0  0.4197077043498111  0.9126364802891302  0.17583014935047478  1.0000
  C   C12       1.0  0.6468580499245178  0.1398472536793633  0.9923393597584254  1.0000
  C   C13       1.0  0.382480308672207  0.8744376994282772  0.25134101703066863  1.0000
  C   C14       1.0  0.43192978314831976  0.8550957527682995  0.28889449841768317  1.0000
  C   C15       1.0  0.3962324815174014  0.8200903416661234  0.358885154746325  1.0000
  C   C16       1.0  0.31043922793190143  0.8034011448641465  0.39259942282539834  1.0000
  C   C17       1.0  0.2621093713519897  0.8236302535092505  0.3528491101146257  1.0000
  C   C18       1.0  0.2978047567708089  0.8588914396069784  0.28299984178781296  1.0000
  C   C19       1.0  0.27364423684323913  0.767885197592946  0.4636125809614669  1.0000
  C   C20       1.0  0.24020548326441118  0.7370025001492024  0.5255002066876673  1.0000
  C   C21       1.0  0.20292984114943377  0.7015878284437919  0.5964640852521583  1.0000
  C   C22       1.0  0.2506454383404346  0.6815400918040169  0.636740857838767  1.0000
  C   C23       1.0  0.21433091276459484  0.6466063703888878  0.7065998421303024  1.0000
  C   C24       1.0  0.1296155243973018  0.6310254397771685  0.737664221197065  1.0000
  C   C25       1.0  0.0807839469435336  0.6500587175558296  0.6995623310175176  1.0000
  C   C26       1.0  0.11707889805069976  0.6850020824772257  0.6296446344819986  1.0000
  C   C27       1.0  0.6240617353800885  0.13090654097573662  0.7368495890032566  1.0000
  C   C28       1.0  0.6441927527494328  0.082779792811273  0.7023215790653199  1.0000
  C   C29       1.0  0.6830522333737646  0.1177249281627226  0.6326749016781793  1.0000
  C   C30       1.0  0.7020169380255294  0.20141977027784466  0.5964225654549439  1.0000
  C   C31       1.0  0.6818200931081008  0.24847742536157108  0.6331645337866051  1.0000
  C   C32       1.0  0.6427225735332412  0.2134753127147775  0.7027985845603201  1.0000
  C   C33       1.0  0.739118556983584  0.2369911024413582  0.5255613749343697  1.0000
  C   C34       1.0  0.769718318742328  0.26817460952985084  0.4635718968636696  1.0000
  C   C35       1.0  0.8041783738366916  0.3037212411361594  0.3925900940654757  1.0000
  C   C36       1.0  0.8221548155989564  0.2566208299007614  0.35583398084861534  1.0000
  C   C37       1.0  0.8563192477047464  0.29162415358849353  0.2859123371092736  1.0000
  C   C38       1.0  0.8725079426514739  0.3742477868977899  0.25162172108731073  1.0000
  C   C39       1.0  0.8552194392384748  0.42239351931518593  0.2862439502916275  1.0000
  C   C40       1.0  0.8213008119869727  0.3874292719172345  0.3561764258686111  1.0000
  C   C41       1.0  0.18920269683152918  0.25920172847430933  0.962481503506368  1.0000
  C   C42       1.0  0.2483086585320962  0.19823890817563244  0.9609895165908146  1.0000
  C   C43       1.0  0.30329946262953195  0.20253925188176683  0.9987232759891359  1.0000
  C   C44       1.0  0.24828796911956627  0.18392149475554484  0.07211801085536249  1.0000
  C   C45       1.0  0.1898821028213575  0.24544662336305825  0.07341654769681574  1.0000
  C   C46       1.0  0.20410059187429397  0.3054463375566741  0.0009451088388416929  1.0000
  C   C47       1.0  0.2923453041069237  0.3477089854714634  0.9656274015038593  1.0000
  C   C48       1.0  0.351055395859369  0.28672324008569205  0.9646245425810638  1.0000
  C   C49       1.0  0.8497472748965008  0.7866569906316344  0.9568389872292756  1.0000
  C   C50       1.0  0.7905875705033124  0.8477579330961049  0.9577707729900454  1.0000
  C   C51       1.0  0.7018688188465418  0.8049416764476902  0.9908984316924503  1.0000
  C   C52       1.0  0.6871910730284797  0.7447990659148118  0.06346099055719619  1.0000
  C   C53       1.0  0.7455606549421246  0.683355395379131  0.06225298713957269  1.0000
  C   C54       1.0  0.8015348568725499  0.702167351505082  0.9889220779805473  1.0000
  C   C55       1.0  0.7494548831720422  0.7001176069876324  0.9491104230620812  1.0000
  C   C56       1.0  0.6901999742316319  0.7606918599433002  0.9505680406142576  1.0000
  C   C57       1.0  0.21883929714680755  0.7713248322911637  0.939491750522102  1.0000
  C   C58       1.0  0.27676444407610024  0.8343659202187226  0.9382114463767623  1.0000
  C   C59       1.0  0.2968735803758591  0.8004231500924136  0.002409972406333144  1.0000
  C   C60       1.0  0.33694019686256377  0.7263104425744018  0.004751601999011246  1.0000
  C   C61       1.0  0.2784274439766321  0.6632592219820453  0.006608582272420343  1.0000
  C   C62       1.0  0.19858136565757428  0.6944764465407401  0.004928613524640477  1.0000
  C   C63       1.0  0.15926139313911847  0.713909031449674  0.06579586052914273  1.0000
  C   C64       1.0  0.2177100527834099  0.7764541572452898  0.06448224158263112  1.0000
  C   C65       1.0  0.8412688729745809  0.2878064232532934  0.9298427592468461  1.0000
  C   C66       1.0  0.7833664375864159  0.22459626812287334  0.9310313276317573  1.0000
  C   C67       1.0  0.7036467409946354  0.199612801220205  0.9938175077823177  1.0000
  C   C68       1.0  0.6642537409040726  0.27428926837146855  0.9907081722836684  1.0000
  C   C69       1.0  0.7221810998848922  0.33644487052568917  0.9904993286730819  1.0000
  C   C70       1.0  0.8017162476299546  0.30489693557021275  0.9925471435920417  1.0000
  C   C71       1.0  0.7825364568235499  0.22709477792702865  0.056181970741967326  1.0000
  C   C72       1.0  0.7237598964903498  0.1651470731773088  0.0573354382234185  1.0000
  O   O1        1.0  0.001009867583270802  0.5032038578756115  0.9935173767828264  1.0000
  O   O2        1.0  0.1717940965169049  0.6070849400075887  0.9597477073056385  1.0000
  O   O3        1.0  0.919649080680955  0.4873443401186249  0.14734862144593555  1.0000
  O   O4        1.0  0.07049518898853789  0.3348958974235146  0.039985986554185574  1.0000
  O   O5        1.0  0.0682549837619462  0.6189544450755804  0.04416333801297866  1.0000
  O   O6        1.0  0.17174552579043478  0.43667302464226043  0.961564783282427  1.0000
  O   O7        1.0  0.9262498423389472  0.3654130264394483  0.14727221222995007  1.0000
  O   O8        1.0  0.8993231757569261  0.3394876679486459  0.029640639339831472  1.0000
  O   O9        1.0  0.01354247892742678  0.5799788772944581  0.8393402424716643  1.0000
  O   O10       1.0  0.8688512627038276  0.4379155226305186  0.9492458145298885  1.0000
  O   O11       1.0  0.13903917554083728  0.5777256848139488  0.8446496812103208  1.0000
  O   O12       1.0  0.9006250138037046  0.6356448250558556  0.027061060468156463  1.0000
  O   O13       1.0  0.8676307790022334  0.6070249314081976  0.9519507911549142  1.0000
  O   O14       1.0  0.5016567549246602  0.002210016862441911  0.9951228000655593  1.0000
  O   O15       1.0  0.3285038599076698  0.0688256231025619  0.031921329078429025  1.0000
  O   O16       1.0  0.5646528330774672  0.1397063968957895  0.8408837283835243  1.0000
  O   O17       1.0  0.42712185414822557  0.8793938610610396  0.953140061791679  1.0000
  O   O18       1.0  0.43491108218840674  0.16801107989814312  0.9601637764263774  1.0000
  O   O19       1.0  0.3298581287166087  0.8953306323369858  0.03884155647288865  1.0000
  O   O20       1.0  0.5709694799575613  0.01774585657661731  0.8408479917211982  1.0000
  O   O21       1.0  0.6034664178578666  0.8769936855892126  0.9550060245303843  1.0000
  O   O22       1.0  0.49689466495423323  0.9223290802914266  0.1480867562259218  1.0000
  O   O23       1.0  0.6409814501583709  0.8995170767560623  0.03074944546364113  1.0000
  O   O24       1.0  0.3702981855926452  0.9323274485163109  0.14573600660715877  1.0000
  O   O25       1.0  0.6177548169169497  0.16643145878386184  0.9463590091728876  1.0000
  O   O26       1.0  0.632874824875337  0.06840866752445152  0.036185967917184224  1.0000
  O   O27       1.0  0.17948068660224686  0.8090558814885754  0.3821551219200501  1.0000
  O   O28       1.0  0.44588662591664263  0.8022711302935405  0.394234096442908  1.0000
  O   O29       1.0  0.06788671189023178  0.7029107663333888  0.5938926770944309  1.0000
  O   O30       1.0  0.3332881051158195  0.6960555694413416  0.6078976173301529  1.0000
  O   O31       1.0  0.7000836564924383  0.32902302469621963  0.6010634327994282  1.0000
  O   O32       1.0  0.7022919126510415  0.069662081808886  0.6000853620204651  1.0000
  O   O33       1.0  0.8048369286659136  0.435481413208656  0.3888679435204951  1.0000
  O   O34       1.0  0.8062949032274245  0.17601862005782457  0.38821190763880525  1.0000
