data_image0
_chemical_formula_structural       CoH18C20N8O6
_chemical_formula_sum              "Co1 H18 C20 N8 O6"
_cell_length_a       8.023034754120882
_cell_length_b       8.203533987425633
_cell_length_c       10.098940179813756
_cell_angle_alpha    85.94989180589245
_cell_angle_beta     75.95446485569738
_cell_angle_gamma    62.87714312212529

_space_group_name_H-M_alt    "P 1"
_space_group_IT_number       1

loop_
  _space_group_symop_operation_xyz
  'x, y, z'

loop_
  _atom_site_type_symbol
  _atom_site_label
  _atom_site_symmetry_multiplicity
  _atom_site_fract_x
  _atom_site_fract_y
  _atom_site_fract_z
  _atom_site_occupancy
  Co  Co1       1.0  2.8849461982900865e-06  0.9999967834368634  0.9999982764868423  1.0000
  H   H1        1.0  0.0829278176896365  0.5781351265103966  0.8075185663429707  1.0000
  H   H2        1.0  0.9170781777196383  0.4218621245740836  0.19248571840880402  1.0000
  H   H3        1.0  0.1123584879390762  0.35583825807057673  0.7656684719675227  1.0000
  H   H4        1.0  0.8876469589135001  0.6441547419775233  0.23433027344739799  1.0000
  H   H5        1.0  0.24140213048843145  0.37852161693422914  0.5243689969040092  1.0000
  H   H6        1.0  0.7585960545530174  0.6214837487196262  0.47563229880803  1.0000
  H   H7        1.0  0.3219851610417024  0.6255867509583978  0.4357091246210914  1.0000
  H   H8        1.0  0.6780144128392819  0.3744130425957053  0.5642883232535854  1.0000
  H   H9        1.0  0.3773749485605151  0.4100359656042656  0.6250540498021735  1.0000
  H   H10       1.0  0.6226194194242821  0.5899692312121658  0.3749410755226635  1.0000
  H   H11       1.0  0.0682367829274709  0.7137939873646959  0.49752323004651106  1.0000
  H   H12       1.0  0.9317621360664534  0.28620711902596707  0.5024712845575509  1.0000
  H   H13       1.0  0.9895986143301204  0.1107986387065836  0.25564078955023456  1.0000
  H   H14       1.0  0.010406077399188954  0.8892011993474326  0.7443556495201947  1.0000
  H   H15       1.0  0.24117811578937412  0.8691935173129226  0.5648928158479265  1.0000
  H   H16       1.0  0.7588252084300039  0.1308117573783534  0.43510054406946347  1.0000
  H   H17       1.0  0.20947421461190174  0.9630941880215431  0.18519681110664274  1.0000
  H   H18       1.0  0.7905254017694646  0.03690289132734391  0.8148027972301153  1.0000
  C   C1        1.0  0.3985602689200433  0.896177791144254  0.8242129574237681  1.0000
  C   C2        1.0  0.6014464148942339  0.10381793423404424  0.17578337532800964  1.0000
  C   C3        1.0  0.6437430135508466  0.9126981853033628  0.6366919412838288  1.0000
  C   C4        1.0  0.3562610444621939  0.08730038684447552  0.36331065196844753  1.0000
  C   C5        1.0  0.7363234427987064  0.6636389105212218  0.7919098083967171  1.0000
  C   C6        1.0  0.2636748333376816  0.3363609880186118  0.2080938290993615  1.0000
  C   C7        1.0  0.591418857951382  0.824210581133933  0.7520774278932553  1.0000
  C   C8        1.0  0.40858264723166127  0.1757879300603875  0.24792369062103606  1.0000
  C   C9        1.0  0.08683421422308857  0.49175254226877047  0.7274465211548177  1.0000
  C   C10       1.0  0.9131698134779074  0.5082486666771616  0.2725499533551528  1.0000
  C   C11       1.0  0.23713063760273903  0.4738475844168236  0.5975408358221231  1.0000
  C   C12       1.0  0.7628746362012109  0.5261562918039573  0.40245025731454126  1.0000
  C   C13       1.0  0.20604483107333485  0.6529983421096188  0.5286949393280694  1.0000
  C   C14       1.0  0.7939576146287379  0.3469848207792054  0.47129616508589595  1.0000
  C   C15       1.0  0.7139381156238683  0.5876874348745177  0.9221454570037296  1.0000
  C   C16       1.0  0.28605703474914884  0.4123083064896847  0.0778590829779588  1.0000
  C   C17       1.0  0.8188852607500365  0.40057727907942825  0.9403632216984834  1.0000
  C   C18       1.0  0.181104583490601  0.5994293907164591  0.059639622659482  1.0000
  C   C19       1.0  0.5781894012411257  0.6914241335400961  0.03948473584259205  1.0000
  C   C20       1.0  0.4217920078978707  0.3085868835833808  0.9605343193901774  1.0000
  N   N1        1.0  0.23946998501605757  0.9496108572268228  0.8873146883595456  1.0000
  N   N2        1.0  0.7605199564136882  0.0503903067514884  0.11268851864235785  1.0000
  N   N3        1.0  0.691863808122392  0.9826031693436761  0.5403245340881782  1.0000
  N   N4        1.0  0.30814011934241853  0.017403564771626603  0.4596725673479158  1.0000
  N   N5        1.0  0.900240704717788  0.24496597121870425  0.9602972825373899  1.0000
  N   N6        1.0  0.09975630109777708  0.7550338581407986  0.0397036384495806  1.0000
  N   N7        1.0  0.46986444113517223  0.7721058455638855  0.14043194151810212  1.0000
  N   N8        1.0  0.5301461752073705  0.2278844267235485  0.8595649868444754  1.0000
  O   O1        1.0  0.09382576206209588  0.07021245024549931  0.1689850242991398  1.0000
  O   O2        1.0  0.9061764071492676  0.9297846900569058  0.8310160587756031  1.0000
  O   O3        1.0  0.8978846499641265  0.5820067645379012  0.6935380561795911  1.0000
  O   O4        1.0  0.10211230116271246  0.4179958564339614  0.3064646626255297  1.0000
  O   O5        1.0  0.20748219897338757  0.7785472048095415  0.6203630339523302  1.0000
  O   O6        1.0  0.7925165923605776  0.22145960091654623  0.3796410137083511  1.0000
