data_image0
_chemical_formula_structural       Cu4H40C44S8I4N8
_chemical_formula_sum              "Cu4 H40 C44 S8 I4 N8"
_cell_length_a       8.839387535141322
_cell_length_b       8.863794102708162
_cell_length_c       17.1225
_cell_angle_alpha    87.14284851794142
_cell_angle_beta     87.13495302067977
_cell_angle_gamma    80.70509022905978

_space_group_name_H-M_alt    "P 1"
_space_group_IT_number       1

loop_
  _space_group_symop_operation_xyz
  'x, y, z'

loop_
  _atom_site_type_symbol
  _atom_site_label
  _atom_site_symmetry_multiplicity
  _atom_site_fract_x
  _atom_site_fract_y
  _atom_site_fract_z
  _atom_site_occupancy
  Cu  Cu1       1.0  0.06911569455846939  0.0035734090930859  0.4287810855178336  1.0000
  Cu  Cu2       1.0  0.9963719157926575  0.9307214591728511  0.07096813955940459  1.0000
  Cu  Cu3       1.0  0.9308834876074386  0.9964284771588794  0.571215966778631  1.0000
  Cu  Cu4       1.0  0.003629278483536802  0.0692678406237803  0.9290338578099266  1.0000
  H   H1        1.0  0.7497894196209103  0.7257395917438956  0.12295192843064483  1.0000
  H   H2        1.0  0.2736637554261492  0.2511352549341268  0.3772364244267834  1.0000
  H   H3        1.0  0.2502141104896936  0.27426343873128906  0.8770455661740685  1.0000
  H   H4        1.0  0.726335609658868  0.7488654870946263  0.6227659089167403  1.0000
  H   H5        1.0  0.8900526802971026  0.5611556690605113  0.13235157664156114  1.0000
  H   H6        1.0  0.4386819825665143  0.11126197675099553  0.367800905835864  1.0000
  H   H7        1.0  0.10995103273261718  0.438846217191454  0.8676488629027476  1.0000
  H   H8        1.0  0.5613160668834354  0.8887399095009698  0.6322049360919239  1.0000
  H   H9        1.0  0.03926235100249191  0.11884474398117821  0.2650223000589165  1.0000
  H   H10       1.0  0.8813793898229249  0.9600009869611769  0.234910329392747  1.0000
  H   H11       1.0  0.9607298871498171  0.8811651518332724  0.7349776448767003  1.0000
  H   H12       1.0  0.1186284882323818  0.04000318773722  0.7650928637619927  1.0000
  H   H13       1.0  0.9249753425947346  0.3481367777859532  0.19312817856112474  1.0000
  H   H14       1.0  0.6520036643123887  0.0751285519189366  0.3069782338188675  1.0000
  H   H15       1.0  0.07501667743720469  0.6518673969124364  0.8068684154679814  1.0000
  H   H16       1.0  0.3479998305969687  0.9248676132169678  0.6930270311950295  1.0000
  H   H17       1.0  0.8319041922151199  0.5669831978825073  0.4162626122861824  1.0000
  H   H18       1.0  0.43228413077031286  0.1689045095343147  0.08395677202496193  1.0000
  H   H19       1.0  0.1680971076648206  0.43302669793195053  0.5837376828495947  1.0000
  H   H20       1.0  0.5677144674369856  0.8310939440480072  0.9160456401574352  1.0000
  H   H21       1.0  0.9496702443987386  0.3191959400685676  0.4794453612526084  1.0000
  H   H22       1.0  0.6801760256593212  0.05038930183837921  0.020646983453254105  1.0000
  H   H23       1.0  0.050329521725764395  0.6808093788530343  0.5205539235071869  1.0000
  H   H24       1.0  0.3198288200863574  0.9496125844135861  0.9793563469970367  1.0000
  H   H25       1.0  0.2614129845681532  0.9538885465592344  0.16714261357918764  1.0000
  H   H26       1.0  0.04551220408677639  0.7388603993232721  0.3327746867862942  1.0000
  H   H27       1.0  0.7385804988167237  0.046106474353457806  0.8328565149995057  1.0000
  H   H28       1.0  0.9544871609982477  0.261140342705481  0.6672200542079807  1.0000
  H   H29       1.0  0.515911041502946  0.8030410235436349  0.18829983961808952  1.0000
  H   H30       1.0  0.19631049728443634  0.4848096636433255  0.31175085909756467  1.0000
  H   H31       1.0  0.4840888723394271  0.1969562858154745  0.8116967278725795  1.0000
  H   H32       1.0  0.8036911332324905  0.5151910783854277  0.6882455755206252  1.0000
  H   H33       1.0  0.3680851020486031  0.4368941723906802  0.0669394090857551  1.0000
  H   H34       1.0  0.5635678543336269  0.6315848962451227  0.4332662657892001  1.0000
  H   H35       1.0  0.6319217558073617  0.5630951274059443  0.9330606900612821  1.0000
  H   H36       1.0  0.43643074387367164  0.3684135573371989  0.5667332262588689  1.0000
  H   H37       1.0  0.11989225068768404  0.602568539795705  0.052143014235341  1.0000
  H   H38       1.0  0.39803113229609716  0.8794682688089213  0.447822387332856  1.0000
  H   H39       1.0  0.880113840290562  0.3974184715544952  0.9478577477774336  1.0000
  H   H40       1.0  0.6019663331952501  0.12053018477340062  0.5521771339435518  1.0000
  C   C1        1.0  0.7759297330160493  0.6141526556005061  0.1542746005927569  1.0000
  C   C2        1.0  0.3855504768539859  0.2250790039358179  0.3458857427157298  1.0000
  C   C3        1.0  0.22407171458176123  0.3858492306514592  0.8457247293544938  1.0000
  C   C4        1.0  0.6144502038661058  0.774920593869723  0.6541148341241297  1.0000
  C   C5        1.0  0.9894277219132306  0.21913934123899284  0.2972027949962169  1.0000
  C   C6        1.0  0.7808651678465991  0.010208759503200304  0.2028216534997043  1.0000
  C   C7        1.0  0.01056828022517209  0.7808682661290405  0.7027965278380535  1.0000
  C   C8        1.0  0.21913854518312087  0.989793126748765  0.7971817061789254  1.0000
  C   C9        1.0  0.9241612813897219  0.3509687302372414  0.2566199843838746  1.0000
  C   C10       1.0  0.6489908888294735  0.0759134890428115  0.24348600515384083  1.0000
  C   C11       1.0  0.07583395387096202  0.6490365886843605  0.7433776652086692  1.0000
  C   C12       1.0  0.35101373879583514  0.924082676093093  0.756518062577996  1.0000
  C   C13       1.0  0.8633710720804258  0.48020645365886594  0.298691421211288  1.0000
  C   C14       1.0  0.5194858069753892  0.1371500269370429  0.20147594525808904  1.0000
  C   C15       1.0  0.1366213489909995  0.5198022979323795  0.7013079645027318  1.0000
  C   C16       1.0  0.4805182366913172  0.8628427055292178  0.7985264740372885  1.0000
  C   C17       1.0  0.8736565435257403  0.4687253179432034  0.3807103013027557  1.0000
  C   C18       1.0  0.5307376580449628  0.1268440084607718  0.11946584787245482  1.0000
  C   C19       1.0  0.12633890985532048  0.5312857220944666  0.6192889471157131  1.0000
  C   C20       1.0  0.4692632055942451  0.8731544451215569  0.8805359218264002  1.0000
  C   C21       1.0  0.9400364335485419  0.3318865197199941  0.4161327283499574  1.0000
  C   C22       1.0  0.6676256716056697  0.059989334592451406  0.08397263833473541  1.0000
  C   C23       1.0  0.05995861879302571  0.6681199434248201  0.5838660644910549  1.0000
  C   C24       1.0  0.3323812566528018  0.9400136958827261  0.9160306088536103  1.0000
  C   C25       1.0  0.28935230339734364  0.8380061964755898  0.1461144593834831  1.0000
  C   C26       1.0  0.1616303725639057  0.7108154883813854  0.3538724840115536  1.0000
  C   C27       1.0  0.7106420945831218  0.1619831033210417  0.8538865453021458  1.0000
  C   C28       1.0  0.8383688096019951  0.28918639787058  0.6461239842580468  1.0000
  C   C29       1.0  0.4337772691862368  0.753119708999229  0.15673057337498625  1.0000
  C   C30       1.0  0.2465244724755848  0.5666433635883479  0.34330454786573483  1.0000
  C   C31       1.0  0.56622246173702  0.24687874458309983  0.8432683054178796  1.0000
  C   C32       1.0  0.7534737598934739  0.4333573784404052  0.6566937265180712  1.0000
  C   C33       1.0  0.4691030770198805  0.6064291489151685  0.12657105996649426  1.0000
  C   C34       1.0  0.39353102650702704  0.5311564248714405  0.3735260602595858  1.0000
  C   C35       1.0  0.5309000520512369  0.3935693046671602  0.873424811007034  1.0000
  C   C36       1.0  0.6064685214971134  0.46884317293410055  0.6264722097011486  1.0000
  C   C37       1.0  0.35056775990906175  0.5501345110763367  0.0910274328586311  1.0000
  C   C38       1.0  0.45008910339624436  0.649283740898291  0.40910378700946387  1.0000
  C   C39       1.0  0.6494375993927193  0.449857077166719  0.9089708938256181  1.0000
  C   C40       1.0  0.5499089460537049  0.3507181453536745  0.5908950465959392  1.0000
  C   C41       1.0  0.20996584218480757  0.6425946119971755  0.08299824659547991  1.0000
  C   C42       1.0  0.3576677412148967  0.7897028135538593  0.417015798197653  1.0000
  C   C43       1.0  0.7900363018882287  0.3573958320226609  0.9170031127133811  1.0000
  C   C44       1.0  0.6423291755191016  0.21029907269810622  0.5829818965823605  1.0000
  S   S1        1.0  0.7786791928819454  0.6546867629083906  0.2567827762641528  1.0000
  S   S2        1.0  0.3448137592299361  0.2223351566719032  0.24338790656923243  1.0000
  S   S3        1.0  0.22131472674367103  0.34531970023642344  0.743215461778334  1.0000
  S   S4        1.0  0.6551874350462582  0.777654143124721  0.7566152588538273  1.0000
  S   S5        1.0  0.647293979562825  0.4883418807007587  0.12772829236612893  1.0000
  S   S6        1.0  0.5117754814858912  0.3533292627249268  0.37238517134700544  1.0000
  S   S7        1.0  0.3527136803721119  0.5116565728815701  0.8722692137746364  1.0000
  S   S8        1.0  0.48822614903103556  0.6466714793038264  0.6276141834055197  1.0000
  I   I1        1.0  0.20809397409558267  0.0945677600785331  0.5530089928047062  1.0000
  I   I2        1.0  0.9053377936972566  0.7925748138175877  0.9467297276790632  1.0000
  I   I3        1.0  0.7919061226659067  0.9054284050573715  0.4469899355986938  1.0000
  I   I4        1.0  0.0946586867960022  0.2074156302022487  0.053279954147598105  1.0000
  N   N1        1.0  0.9975333298472222  0.20637896397159494  0.3757647219029607  1.0000
  N   N2        1.0  0.7933826430317198  0.0020756209077319  0.1242632006152675  1.0000
  N   N3        1.0  0.002459457062442966  0.7936274991732264  0.6242347134215935  1.0000
  N   N4        1.0  0.2066233354299101  0.9979262653442333  0.8757395165798203  1.0000
  N   N5        1.0  0.17812288377062663  0.7875791352711943  0.10783873297923212  1.0000
  N   N6        1.0  0.21236615900237873  0.8217376308382286  0.39209210647123177  1.0000
  N   N7        1.0  0.821873413803516  0.2124124529718614  0.8921615796123207  1.0000
  N   N8        1.0  0.7876330231635293  0.17826425541373686  0.6079055298521041  1.0000
