data_image0
_chemical_formula_structural       Zn4H40C24N16O20
_chemical_formula_sum              "Zn4 H40 C24 N16 O20"
_cell_length_a       6.493330118096973
_cell_length_b       7.746998545424105
_cell_length_c       21.38064639818772
_cell_angle_alpha    90.00046169204752
_cell_angle_beta     89.99993197189927
_cell_angle_gamma    113.75820447667256

_space_group_name_H-M_alt    "P 1"
_space_group_IT_number       1

loop_
  _space_group_symop_operation_xyz
  'x, y, z'

loop_
  _atom_site_type_symbol
  _atom_site_label
  _atom_site_symmetry_multiplicity
  _atom_site_fract_x
  _atom_site_fract_y
  _atom_site_fract_z
  _atom_site_occupancy
  Zn  Zn1       1.0  0.26542652031807273  0.34279968711286557  0.9026031909411499  1.0000
  Zn  Zn2       1.0  0.2345747610776812  0.157194491505642  0.4026035433802305  1.0000
  Zn  Zn3       1.0  0.7345705758378857  0.657199553132621  0.0973973201747071  1.0000
  Zn  Zn4       1.0  0.7654260929992702  0.8428061599379434  0.5973960323116003  1.0000
  H   H1        1.0  0.09384702338746814  0.5924713441997226  0.6842121526306998  1.0000
  H   H2        1.0  0.4061554885380828  0.9075120360691571  0.1842136408106825  1.0000
  H   H3        1.0  0.9061498873647197  0.40753071628843435  0.3157874230638882  1.0000
  H   H4        1.0  0.5938477686212807  0.0924872059202144  0.8157878057294922  1.0000
  H   H5        1.0  0.18762712808242546  0.3669910980795735  0.7533070055259473  1.0000
  H   H6        1.0  0.3123680193045857  0.1329922940007151  0.2533044533546587  1.0000
  H   H7        1.0  0.8123670729661399  0.6330053210220542  0.246691634735491  1.0000
  H   H8        1.0  0.6876323427473919  0.8670041268447973  0.7466951223310971  1.0000
  H   H9        1.0  0.6740205928583619  0.5939849292541624  0.8729804318227606  1.0000
  H   H10       1.0  0.825974609514894  0.9060135744263249  0.3729800734435216  1.0000
  H   H11       1.0  0.3259787209724649  0.40601572176807826  0.1270200792947591  1.0000
  H   H12       1.0  0.17402402689096874  0.09398566625220889  0.6270204376720656  1.0000
  H   H13       1.0  0.5897404802861459  0.41512496800976356  0.8225383063077203  1.0000
  H   H14       1.0  0.9102569878116357  0.0848733808473696  0.3225388528771589  1.0000
  H   H15       1.0  0.4102581561178269  0.5848742726629156  0.1774617370951574  1.0000
  H   H16       1.0  0.08974164859422722  0.9151258598311713  0.6774616582384212  1.0000
  H   H17       1.0  0.6944324289017132  0.3897316015762657  0.8906634126090368  1.0000
  H   H18       1.0  0.8055686702844583  0.1102684521521482  0.3906631351963696  1.0000
  H   H19       1.0  0.305564667254238  0.6102676386692282  0.1093370985068205  1.0000
  H   H20       1.0  0.1944306435463616  0.8897321988700996  0.6093373759211432  1.0000
  H   H21       1.0  0.2662700425383093  0.07589548719233363  0.9752591646564214  1.0000
  H   H22       1.0  0.23372923758699216  0.42410473848486424  0.47525795656171255  1.0000
  H   H23       1.0  0.7337270536176489  0.9241037530531528  0.024741346459435903  1.0000
  H   H24       1.0  0.7662700762400476  0.5758959125256811  0.5247416191303955  1.0000
  H   H25       1.0  0.1717119314612958  0.20947739389640674  0.0165512240372436  1.0000
  H   H26       1.0  0.3282827143663738  0.2905254594138499  0.5165530353445291  1.0000
  H   H27       1.0  0.828283624442868  0.7905218459101845  0.9834488193661811  1.0000
  H   H28       1.0  0.6717150592145413  0.7094751911753433  0.4834474757732607  1.0000
  H   H29       1.0  0.44637294977713543  0.28145253262174924  0.0040221917857579  1.0000
  H   H30       1.0  0.053624675283707283  0.2185500081465719  0.5040224884772471  1.0000
  H   H31       1.0  0.5536234689500787  0.7185452972683352  0.9959773839027549  1.0000
  H   H32       1.0  0.9463753159682964  0.7814520532076799  0.4959770872167937  1.0000
  H   H33       1.0  0.8313976842467455  0.09663320285362428  0.8994087209944368  1.0000
  H   H34       1.0  0.668597324616087  0.403367067877177  0.3994074757705519  1.0000
  H   H35       1.0  0.16859941190732294  0.9033660373860147  0.1005913224087109  1.0000
  H   H36       1.0  0.33140044896104837  0.5966335827003209  0.6005920999218262  1.0000
  H   H37       1.0  0.8463274083904225  0.21150786415510942  0.9626141777471774  1.0000
  H   H38       1.0  0.6536684821020131  0.28848834702296244  0.4626126031301325  1.0000
  H   H39       1.0  0.1536696877636459  0.7884913760845295  0.0373858656559705  1.0000
  H   H40       1.0  0.3463308317231436  0.7115123039817348  0.537386504849259  1.0000
  C   C1        1.0  0.151965386196693  0.6606693746152957  0.8594075995969065  1.0000
  C   C2        1.0  0.34803767883568776  0.8393197977021529  0.3594065712921761  1.0000
  C   C3        1.0  0.8480427983317044  0.33933691950811357  0.1405924438145405  1.0000
  C   C4        1.0  0.6519638526718908  0.1606822641026895  0.6405944075397089  1.0000
  C   C5        1.0  0.08933092540104323  0.7797598828412404  0.8213542107670618  1.0000
  C   C6        1.0  0.4106603729072587  0.7202269242717633  0.3213532807570374  1.0000
  C   C7        1.0  0.9106738720025619  0.22023935956363522  0.1786458326347145  1.0000
  C   C8        1.0  0.5893389409235611  0.27977372675048434  0.6786472303604825  1.0000
  C   C9        1.0  0.10858512628187351  0.610833495308782  0.7347878225844227  1.0000
  C   C10       1.0  0.391415697940289  0.8891596103111752  0.2347869239827034  1.0000
  C   C11       1.0  0.8914109858241376  0.3891572837405521  0.2652126885192843  1.0000
  C   C12       1.0  0.6085904543151203  0.11084245278696161  0.7652135871356478  1.0000
  C   C13       1.0  0.16136391768778674  0.4870599123630015  0.7724305545975199  1.0000
  C   C14       1.0  0.33863483557055213  0.012918318454900705  0.2724313848626636  1.0000
  C   C15       1.0  0.8386314528144894  0.512942147692108  0.22756902109733798  1.0000
  C   C16       1.0  0.6613715020867305  0.9870809243947181  0.7275695939642546  1.0000
  C   C17       1.0  0.19163554345856673  0.6875095663092169  0.9291983185768942  1.0000
  C   C18       1.0  0.308368884284576  0.8124926331588612  0.429199097123707  1.0000
  C   C19       1.0  0.8083683911181936  0.3124910860004633  0.0708012571143897  1.0000
  C   C20       1.0  0.6916355423228284  0.1875122497664492  0.5708018817117662  1.0000
  C   C21       1.0  0.032791653663934967  0.9382836045618319  0.8468508746224189  1.0000
  C   C22       1.0  0.46719985071013787  0.5617038402998704  0.34684993018714755  1.0000
  C   C23       1.0  0.9672054424863462  0.06171563566611132  0.1531482333553171  1.0000
  C   C24       1.0  0.532798108268871  0.43829399002910924  0.6531501132137976  1.0000
  N   N1        1.0  0.18413034171723544  0.5148710766515164  0.8341522983976687  1.0000
  N   N2        1.0  0.315854036197237  0.9851174587456198  0.3341503032972497  1.0000
  N   N3        1.0  0.8158729154307877  0.48512816530276137  0.1658463418662564  1.0000
  N   N4        1.0  0.6841512532294446  0.014886014251480601  0.6658492723978924  1.0000
  N   N5        1.0  0.07236698424021876  0.7556350716908895  0.7589379179302541  1.0000
  N   N6        1.0  0.4276241804248926  0.744344533722675  0.2589393907012649  1.0000
  N   N7        1.0  0.9276277088408876  0.244365578032216  0.24106259318808299  1.0000
  N   N8        1.0  0.572378399311397  0.25565329792883773  0.7410625235496795  1.0000
  N   N9        1.0  0.5971424812220506  0.44963831391319803  0.8692694026546873  1.0000
  N   N10       1.0  0.902852469457635  0.05035838270282511  0.3692693835904919  1.0000
  N   N11       1.0  0.4028523972590392  0.5503595155555346  0.1307311084595071  1.0000
  N   N12       1.0  0.09714838462309665  0.9496422687524629  0.6307311275267509  1.0000
  N   N13       1.0  0.28979931537853787  0.21272938410434963  0.9842165258528438  1.0000
  N   N14       1.0  0.21019695664696064  0.2872710647760358  0.48421679831293574  1.0000
  N   N15       1.0  0.7101977807774206  0.787269856141137  0.015783985263013302  1.0000
  N   N16       1.0  0.7898023571819762  0.7127295862403573  0.5157832450918747  1.0000
  O   O1        1.0  0.27183865834582827  0.5821799040905589  0.9561837708192655  1.0000
  O   O2        1.0  0.22817898691554467  0.9178243841602414  0.45618348183268864  1.0000
  O   O3        1.0  0.7281637359810277  0.41782074778607387  0.04381580487228829  1.0000
  O   O4        1.0  0.7718293830204032  0.08217908973220032  0.5438184324254465  1.0000
  O   O5        1.0  0.14557053354172203  0.8134010702259361  0.9558076215456808  1.0000
  O   O6        1.0  0.35444575383999694  0.6866003879607663  0.4558098876333858  1.0000
  O   O7        1.0  0.8544281028584707  0.18659817043504753  0.0441914864317852  1.0000
  O   O8        1.0  0.6455663740112741  0.31340449711223073  0.5441896880625947  1.0000
  O   O9        1.0  0.8321343152915546  0.8936064702263451  0.8650213052253619  1.0000
  O   O10       1.0  0.6678400008477609  0.6063805472643652  0.3650187272010612  1.0000
  O   O11       1.0  0.16786191803378614  0.1063941799122574  0.1349778027545838  1.0000
  O   O12       1.0  0.3321608532310734  0.39362010418507515  0.6349813162034792  1.0000
  O   O13       1.0  0.1908649140987323  0.10117925735204382  0.8441490535830952  1.0000
  O   O14       1.0  0.30910687970549594  0.39879793934552055  0.3441524219407768  1.0000
  O   O15       1.0  0.8091315046265919  0.8988185725321928  0.1558500543927153  1.0000
  O   O16       1.0  0.6908910792716226  0.6011998909776038  0.6558471537474588  1.0000
  O   O17       1.0  0.8645993082945154  0.2253347452810672  0.9163770518548162  1.0000
  O   O18       1.0  0.6353960231098624  0.27466312963192513  0.4163763789122328  1.0000
  O   O19       1.0  0.1353993281075674  0.7746644953857641  0.0836225238353521  1.0000
  O   O20       1.0  0.36459885536933706  0.7253346998309596  0.5836236644892595  1.0000
