data_image0
_chemical_formula_structural       Cd4H76C128N20O24
_chemical_formula_sum              "Cd4 H76 C128 N20 O24"
_cell_length_a       9.457859224257472
_cell_length_b       13.634719676585696
_cell_length_c       24.996637655043077
_cell_angle_alpha    90.00017859596349
_cell_angle_beta     90.00009233253883
_cell_angle_gamma    97.2247996682766

_space_group_name_H-M_alt    "P 1"
_space_group_IT_number       1

loop_
  _space_group_symop_operation_xyz
  'x, y, z'

loop_
  _atom_site_type_symbol
  _atom_site_label
  _atom_site_symmetry_multiplicity
  _atom_site_fract_x
  _atom_site_fract_y
  _atom_site_fract_z
  _atom_site_occupancy
  Cd  Cd1       1.0  0.546773008934771  0.24026758983279708  0.16658077441782387  1.0000
  Cd  Cd2       1.0  0.45322417089963807  0.25973408637239  0.6665812096239989  1.0000
  Cd  Cd3       1.0  0.45322618659944414  0.7597330362149818  0.8334196743628226  1.0000
  Cd  Cd4       1.0  0.5467760818138316  0.7402665388928541  0.3334192391569673  1.0000
  H   H1        1.0  0.07403760864480798  0.36287126079844967  0.12438306034422912  1.0000
  H   H2        1.0  0.9259569584429099  0.13712867791137742  0.6243823728825009  1.0000
  H   H3        1.0  0.9259648935841934  0.6371301021952575  0.8756181885456584  1.0000
  H   H4        1.0  0.0740410447539475  0.8628712096241813  0.3756168757357444  1.0000
  H   H5        1.0  0.93588253703318  0.33324821560663753  0.2882717381865163  1.0000
  H   H6        1.0  0.0641150302197673  0.1667527331788037  0.7882713791082595  1.0000
  H   H7        1.0  0.06411389243216803  0.6667546306668087  0.7117303108104026  1.0000
  H   H8        1.0  0.9358841653122879  0.8332478928665097  0.21172826956478022  1.0000
  H   H9        1.0  0.38063816794549143  0.4154379695238006  0.2515803052473231  1.0000
  H   H10       1.0  0.6193609098885985  0.0845605333391788  0.7515805425855575  1.0000
  H   H11       1.0  0.61936116274574  0.5845633958174971  0.7484209436416052  1.0000
  H   H12       1.0  0.38064026484494917  0.9154393518475599  0.24841830597983974  1.0000
  H   H13       1.0  0.6278124906956464  0.20440815146778138  0.29130834349879114  1.0000
  H   H14       1.0  0.37218536328072827  0.2955942946451344  0.7913083906611577  1.0000
  H   H15       1.0  0.3721873565543348  0.7955902559255607  0.7086925053339643  1.0000
  H   H16       1.0  0.6278100089988783  0.7044085524034285  0.20869125801261396  1.0000
  H   H17       1.0  0.5165971356523542  0.15811096394811133  0.3804046532655008  1.0000
  H   H18       1.0  0.48340594516003677  0.34188907105539806  0.8804048467161892  1.0000
  H   H19       1.0  0.4834021709771221  0.8418844862798096  0.6195957955107688  1.0000
  H   H20       1.0  0.5165945778620653  0.658113032790709  0.11959520201231301  1.0000
  H   H21       1.0  0.25031990108116275  0.1146529512324719  0.3856612425572409  1.0000
  H   H22       1.0  0.7496813640966877  0.38534859636886404  0.8856624715217978  1.0000
  H   H23       1.0  0.74967756149627  0.885343979138895  0.6143380060583185  1.0000
  H   H24       1.0  0.2503191589264944  0.6146535074784792  0.11433797726051152  1.0000
  H   H25       1.0  0.016790480790007195  0.0866629953767273  0.3376426897714354  1.0000
  H   H26       1.0  0.9832132909216896  0.4133360355954636  0.8376429077749848  1.0000
  H   H27       1.0  0.9832085795839518  0.913336891373831  0.6623557587395228  1.0000
  H   H28       1.0  0.016788805836256426  0.5866631095176943  0.16235594079006432  1.0000
  H   H29       1.0  0.8825182802184626  0.07379978083172029  0.2522078506020691  1.0000
  H   H30       1.0  0.1174866034632345  0.4261957640451826  0.7522079660155756  1.0000
  H   H31       1.0  0.1174835462297636  0.926197885699345  0.7477909979616371  1.0000
  H   H32       1.0  0.8825161450115502  0.5738011624147745  0.24779168265538945  1.0000
  H   H33       1.0  0.8817702596722938  0.08769022767472022  0.15252965611098554  1.0000
  H   H34       1.0  0.118229204823507  0.41230692370062627  0.65252934825115  1.0000
  H   H35       1.0  0.11822720290622604  0.9123067026978828  0.8474699925583808  1.0000
  H   H36       1.0  0.8817719699100336  0.5876929614861126  0.3474695003142473  1.0000
  H   H37       1.0  0.0167698227294579  0.13023597305218  0.06783323919106721  1.0000
  H   H38       1.0  0.9832253607385084  0.3697628765214063  0.5678337829998413  1.0000
  H   H39       1.0  0.9832280453103833  0.8697631751898668  0.9321652093188962  1.0000
  H   H40       1.0  0.016771720432871038  0.6302377510864902  0.432165065564945  1.0000
  H   H41       1.0  0.28026182074364664  0.18633523335409305  0.0738013694811528  1.0000
  H   H42       1.0  0.7197335301368638  0.3136643923506099  0.5738020580829827  1.0000
  H   H43       1.0  0.7197360473005219  0.813663914892892  0.9261986792440243  1.0000
  H   H44       1.0  0.2802634158839865  0.6863354959711785  0.4261983906963566  1.0000
  H   H45       1.0  0.5977415225456468  0.029413390161522595  0.22924703843340677  1.0000
  H   H46       1.0  0.40225903237461574  0.4705879312226955  0.729246201886049  1.0000
  H   H47       1.0  0.4022566158093142  0.9705872366687843  0.7707534103469202  1.0000
  H   H48       1.0  0.5977469116986143  0.5294149080018115  0.27075384684471976  1.0000
  H   H49       1.0  0.6962764836063755  0.8716362408892592  0.21080490550294687  1.0000
  H   H50       1.0  0.30372474067561933  0.6283662745859286  0.710803426026182  1.0000
  H   H51       1.0  0.3037250965993081  0.12836586217925827  0.7891967434410959  1.0000
  H   H52       1.0  0.6962778967028314  0.37163582769264986  0.289195822595353  1.0000
  H   H53       1.0  0.757668778269597  0.832580968692014  0.11533165026391863  1.0000
  H   H54       1.0  0.242333503725888  0.6674179987239128  0.615330200144669  1.0000
  H   H55       1.0  0.24233464598380286  0.16741965422811228  0.884669598625621  1.0000
  H   H56       1.0  0.7576697853672486  0.3325818848989996  0.3846690484751676  1.0000
  H   H57       1.0  0.7700329930448149  0.8841240844452685  0.019135560146310102  1.0000
  H   H58       1.0  0.22996665466043706  0.615874290744692  0.5191344147465459  1.0000
  H   H59       1.0  0.2299691037185312  0.11587506067406388  0.9808652886877597  1.0000
  H   H60       1.0  0.7700324057178348  0.38412559601080437  0.4808656339796259  1.0000
  H   H61       1.0  0.7378879075942563  0.010240763061595704  0.9494679297959935  1.0000
  H   H62       1.0  0.2621131618273935  0.48975822122859813  0.4494665471372202  1.0000
  H   H63       1.0  0.26211868819473955  0.9897598575084815  0.0505325189868913  1.0000
  H   H64       1.0  0.7378811292144363  0.5102387114928248  0.5505335015849867  1.0000
  H   H65       1.0  0.6662111300913764  0.17336570817942487  0.9249687520786056  1.0000
  H   H66       1.0  0.3337876925560225  0.32663312644966436  0.42496753490103606  1.0000
  H   H67       1.0  0.3337924293147124  0.8266356540292817  0.07503169670398792  1.0000
  H   H68       1.0  0.6662067336417435  0.6733645455640412  0.5750329138756456  1.0000
  H   H69       1.0  0.5737705769222642  0.3309836792750644  0.9550525044451988  1.0000
  H   H70       1.0  0.4262227169651922  0.16901312709282482  0.4550514747125974  1.0000
  H   H71       1.0  0.4262317901497141  0.6690169444251237  0.04494794433640691  1.0000
  H   H72       1.0  0.5737705168973904  0.8309838064111332  0.5449485740092896  1.0000
  H   H73       1.0  0.5046889244178486  0.3479722108448797  0.050932899511892116  1.0000
  H   H74       1.0  0.495306954570644  0.1520250550384077  0.550931976498788  1.0000
  H   H75       1.0  0.4953122503210991  0.6520276743480267  0.949067949322526  1.0000
  H   H76       1.0  0.5046907783197412  0.8479733539187605  0.4490684722795282  1.0000
  C   C1        1.0  0.2401237056040628  0.39160767926082934  0.18351428792195185  1.0000
  C   C2        1.0  0.7598738120035335  0.1083896649400131  0.6835142509579344  1.0000
  C   C3        1.0  0.7598771988251726  0.6083907273499846  0.8164865609111234  1.0000
  C   C4        1.0  0.24012722757515087  0.8916094809556795  0.31648459760678804  1.0000
  C   C5        1.0  0.09871077434888065  0.366737150501173  0.16696599825309733  1.0000
  C   C6        1.0  0.9012850800755743  0.13326305027880642  0.6669652892536178  1.0000
  C   C7        1.0  0.9012894783678361  0.6332634747677801  0.8330356506892826  1.0000
  C   C8        1.0  0.09871411545539387  0.8667375757652706  0.3330339593656221  1.0000
  C   C9        1.0  0.9890896207008097  0.34321696975242594  0.20425046245673437  1.0000
  C   C10       1.0  0.010906840707640694  0.15678567904711116  0.7042496540974242  1.0000
  C   C11       1.0  0.010910385766869972  0.6567880920465752  0.795751586543162  1.0000
  C   C12       1.0  0.989092625134127  0.8432164255802944  0.2957499945769514  1.0000
  C   C13       1.0  0.0196242643801696  0.35036374675852494  0.2587923104157355  1.0000
  C   C14       1.0  0.980372873228262  0.1496355414755897  0.7587916772401115  1.0000
  C   C15       1.0  0.9803750663121489  0.6496376185840022  0.7412093385269998  1.0000
  C   C16       1.0  0.019626187148936953  0.8503643452786703  0.2412079714322531  1.0000
  C   C17       1.0  0.1596813375316657  0.3795178307182353  0.2748225336467415  1.0000
  C   C18       1.0  0.8403148295414341  0.1204815572506206  0.7748225660296841  1.0000
  C   C19       1.0  0.8403152270863713  0.6204857548437914  0.7251787152432457  1.0000
  C   C20       1.0  0.15968330881352705  0.8795190695796863  0.22517788275064282  1.0000
  C   C21       1.0  0.2711013911359644  0.39797029951157736  0.23812004686269014  1.0000
  C   C22       1.0  0.7288966919212356  0.10202886033756897  0.7381199802869816  1.0000
  C   C23       1.0  0.7288947680164243  0.6020310681760679  0.7618808019714794  1.0000
  C   C24       1.0  0.27110540483670315  0.8979702847755889  0.2618788682780675  1.0000
  C   C25       1.0  0.3595201658078792  0.4070005450066462  0.14238400543626284  1.0000
  C   C26       1.0  0.6404751502919197  0.09299728616655757  0.6423846700017535  1.0000
  C   C27       1.0  0.6404810089321487  0.5929993401874895  0.857617243451962  1.0000
  C   C28       1.0  0.35952285290494507  0.9070026013690011  0.3576145786164916  1.0000
  C   C29       1.0  0.839743416988668  0.30768067592560305  0.18584751185710505  1.0000
  C   C30       1.0  0.1602526746460882  0.1923203806984262  0.6858476546579979  1.0000
  C   C31       1.0  0.16025604885417977  0.6923214287030319  0.8141525368710846  1.0000
  C   C32       1.0  0.8397477132200777  0.8076809838553984  0.31415199401602933  1.0000
  C   C33       1.0  0.5131602262154971  0.18353868681220584  0.2953988411341157  1.0000
  C   C34       1.0  0.4868408214066661  0.31646378220172977  0.7953985932802896  1.0000
  C   C35       1.0  0.4868409485212908  0.8164611983782347  0.7046012075926954  1.0000
  C   C36       1.0  0.5131574520999037  0.6835375839159211  0.20460065533929858  1.0000
  C   C37       1.0  0.44949515161150794  0.15918088388743706  0.3451162877841726  1.0000
  C   C38       1.0  0.5505065701933773  0.3408241098907467  0.8451157199662094  1.0000
  C   C39       1.0  0.5505045604825369  0.8408167842136223  0.6548841609941151  1.0000
  C   C40       1.0  0.44949330111187885  0.6591802126085539  0.15488352865637722  1.0000
  C   C41       1.0  0.3032773078558435  0.135267785705274  0.3478185865603295  1.0000
  C   C42       1.0  0.696723101069388  0.36473574695800437  0.8478193482520809  1.0000
  C   C43       1.0  0.6967210767459873  0.8647284045925188  0.6521806620548747  1.0000
  C   C44       1.0  0.3032755779039178  0.6352678370352579  0.1521807004771318  1.0000
  C   C45       1.0  0.2219574153468926  0.1324161102423815  0.30030456915653053  1.0000
  C   C46       1.0  0.7780426016150628  0.3675863898403051  0.8003057850344604  1.0000
  C   C47       1.0  0.778041239563571  0.8675815586362746  0.6996942794062164  1.0000
  C   C48       1.0  0.22195699938372124  0.6324164540806124  0.19969466374819694  1.0000
  C   C49       1.0  0.07097374991919028  0.10407609805310612  0.2996760147381964  1.0000
  C   C50       1.0  0.9290281076924883  0.39592491800049606  0.7996765702899327  1.0000
  C   C51       1.0  0.9290259621705274  0.8959215700430151  0.7003228338248704  1.0000
  C   C52       1.0  0.07097255048230983  0.6040779251341847  0.2003226783316308  1.0000
  C   C53       1.0  0.997278869837956  0.09631432442878923  0.2526347619646714  1.0000
  C   C54       1.0  0.0027233852346953266  0.4036841825972317  0.7526355695816562  1.0000
  C   C55       1.0  0.0027194036675340185  0.9036870416876254  0.7473640866011098  1.0000
  C   C56       1.0  0.9972796335498089  0.5963142224448245  0.24736407909064442  1.0000
  C   C57       1.0  0.06854956591976702  0.11728237813517951  0.20261217077039365  1.0000
  C   C58       1.0  0.9314516319153938  0.382717299480177  0.7026131053369371  1.0000
  C   C59       1.0  0.9314487075857301  0.8827189879812352  0.7973866777953875  1.0000
  C   C60       1.0  0.06854900220088211  0.6172796285448356  0.2973865433333884  1.0000
  C   C61       1.0  0.9962027838285934  0.11002386384912198  0.1531373915397864  1.0000
  C   C62       1.0  0.003797089418412705  0.3899755091528831  0.6531377763908212  1.0000
  C   C63       1.0  0.003796276549685691  0.8899760229063743  0.8468626571863852  1.0000
  C   C64       1.0  0.9962027578294084  0.6100228982379933  0.3468622723343345  1.0000
  C   C65       1.0  0.0707437195947804  0.13368089067210323  0.10641764783964901  1.0000
  C   C66       1.0  0.9292518075748146  0.3663189363645643  0.6064185531282931  1.0000
  C   C67       1.0  0.9292533615766061  0.8663197369357931  0.8935812007251374  1.0000
  C   C68       1.0  0.07074711764752811  0.6336802110986497  0.3935810955434036  1.0000
  C   C69       1.0  0.2178753112513903  0.16495175078760138  0.10960094718554812  1.0000
  C   C70       1.0  0.7821205034330204  0.335049574480351  0.6096017100326494  1.0000
  C   C71       1.0  0.7821228271014107  0.8350488760402398  0.8903987014871648  1.0000
  C   C72       1.0  0.2178767128964622  0.6649517924222933  0.39039833869422585  1.0000
  C   C73       1.0  0.2178724828361496  0.1484059432516958  0.20161050780311035  1.0000
  C   C74       1.0  0.7821281930248816  0.3515966861269461  0.7016112988523562  1.0000
  C   C75       1.0  0.7821276347213838  0.8515939427212729  0.7983895409233812  1.0000
  C   C76       1.0  0.2178719245337319  0.6484031998472589  0.2983891499279423  1.0000
  C   C77       1.0  0.29613677896909957  0.15552617442279634  0.25150684832581055  1.0000
  C   C78       1.0  0.7038632445532897  0.344477503025601  0.7515075798192258  1.0000
  C   C79       1.0  0.7038630682765541  0.8444722329656074  0.748492400291731  1.0000
  C   C80       1.0  0.29613635644441416  0.65552534089408  0.24849246890963175  1.0000
  C   C81       1.0  0.6248194150218537  0.010275524788354999  0.18838793503429943  1.0000
  C   C82       1.0  0.3751821113922206  0.4897262828924339  0.6883871146958855  1.0000
  C   C83       1.0  0.37518162456332504  0.9897236211147417  0.8116133138532506  1.0000
  C   C84       1.0  0.6248217183235809  0.510276557898365  0.31161333408805103  1.0000
  C   C85       1.0  0.6789970753549569  0.920937478164973  0.1776456825634298  1.0000
  C   C86       1.0  0.32101123480585153  0.5790640878609493  0.6776449296449628  1.0000
  C   C87       1.0  0.3210060785865636  0.07906166617059539  0.8223547662171597  1.0000
  C   C88       1.0  0.6789954961380075  0.42093727200016673  0.32235551913858984  1.0000
  C   C89       1.0  0.7125131944710786  0.9001467090969654  0.12534024024469662  1.0000
  C   C90       1.0  0.2874872975721203  0.5998538002473452  0.6253391023932622  1.0000
  C   C91       1.0  0.2874871933972472  0.09985465545933178  0.8746602085369448  1.0000
  C   C92       1.0  0.7125161266769522  0.4001468226678427  0.37466054628105644  1.0000
  C   C93       1.0  0.6914537513522561  0.9679199696403559  0.08416915435239501  1.0000
  C   C94       1.0  0.3085451906751118  0.5320788077663039  0.5841679137582148  1.0000
  C   C95       1.0  0.30854755854154786  0.03208065484359679  0.915831694482698  1.0000
  C   C96       1.0  0.6914570412398505  0.46792107664037275  0.41583173491511627  1.0000
  C   C97       1.0  0.7272133806127743  0.9524030877301259  0.029401386039040706  1.0000
  C   C98       1.0  0.2727852654022271  0.547595351613907  0.529401350382692  1.0000
  C   C99       1.0  0.272788851303268  0.04759679667778019  0.9705986626880903  1.0000
  C   C100      1.0  0.7272135246674195  0.45240305656073326  0.470599098395944  1.0000
  C   C101      1.0  0.7096531276412534  0.021402196803194298  0.9911343346257696  1.0000
  C   C102      1.0  0.2903448602925991  0.4785963077400054  0.49113335010588344  1.0000
  C   C103      1.0  0.2903512186332975  0.978597686039656  0.0088657141020008  1.0000
  C   C104      1.0  0.709651815417459  0.5214021019984543  0.5088666986183128  1.0000
  C   C105      1.0  0.6543794304936198  0.111341148028977  0.0047345298521861015  1.0000
  C   C106      1.0  0.3456185834641942  0.3886573097012728  0.5047335193598174  1.0000
  C   C107      1.0  0.34562293657835846  0.8886594756712184  0.9952659189294198  1.0000
  C   C108      1.0  0.6543812637847066  0.6113410976908398  0.49526692941913814  1.0000
  C   C109      1.0  0.6375532581451182  0.1854805298388059  0.9665151414511755  1.0000
  C   C110      1.0  0.3624435395450618  0.31451782351993524  0.4665143210443717  1.0000
  C   C111      1.0  0.3624525507743356  0.8145215700958911  0.03348530733273242  1.0000
  C   C112      1.0  0.6375508866527112  0.6854798484937775  0.5334861277323101  1.0000
  C   C113      1.0  0.5855626733008138  0.2709956311408206  0.982759383310871  1.0000
  C   C114      1.0  0.4144351342112671  0.22900208241398454  0.4827580486149047  1.0000
  C   C115      1.0  0.41444180813076065  0.7290049909955486  0.017241465525181403  1.0000
  C   C116      1.0  0.5855635207024433  0.7709955864683664  0.5172420001092563  1.0000
  C   C117      1.0  0.5479919515911362  0.28190953189571394  0.036676939005545306  1.0000
  C   C118      1.0  0.45200398550007037  0.21808838528077254  0.5366761023407279  1.0000
  C   C119      1.0  0.45201160781495986  0.7180918303129926  0.9633235097770554  1.0000
  C   C120      1.0  0.5479925550551242  0.7819092851666483  0.4633239463827935  1.0000
  C   C121      1.0  0.6157442322845696  0.1290923770669323  0.05850496506301541  1.0000
  C   C122      1.0  0.38425076560463367  0.3709056756286842  0.5585035476733182  1.0000
  C   C123      1.0  0.38425588527404386  0.8709075089072655  0.941495483717276  1.0000
  C   C124      1.0  0.615748159618789  0.6290934718357662  0.4414965010521855  1.0000
  C   C125      1.0  0.6359392071995272  0.05635917994325719  0.09914237469143931  1.0000
  C   C126      1.0  0.36405798953789764  0.44363838274259837  0.5991418691270667  1.0000
  C   C127      1.0  0.36406196753726056  0.9436407052471764  0.9008576740353719  1.0000
  C   C128      1.0  0.6359431851988901  0.5563615024478351  0.40085817959974435  1.0000
  N   N1        1.0  0.19036025572575  0.3883524648112556  0.3321102553104822  1.0000
  N   N2        1.0  0.8096382001866901  0.1116465359227092  0.8321102540485371  1.0000
  N   N3        1.0  0.8096376123205786  0.6116466834381881  0.6678905935223085  1.0000
  N   N4        1.0  0.190359938166111  0.8883540909051317  0.16788939462418287  1.0000
  N   N5        1.0  0.43885414557609437  0.18248889854383074  0.25016153359350574  1.0000
  N   N6        1.0  0.5611458706713748  0.3175147705961976  0.7501609324993127  1.0000
  N   N7        1.0  0.5611470291617734  0.8175109866478394  0.7498389151871127  1.0000
  N   N8        1.0  0.4388535951703929  0.682487334031201  0.24983871617506287  1.0000
  N   N9        1.0  0.2892152784605173  0.1718353142709148  0.1555391530645238  1.0000
  N   N10       1.0  0.7107828988769215  0.32816629299816924  0.6555406610625953  1.0000
  N   N11       1.0  0.7107847039389126  0.8281638324072986  0.8444596954998859  1.0000
  N   N12       1.0  0.2892153746318157  0.671835073121947  0.3444593876645997  1.0000
  N   N13       1.0  0.6051740906009613  0.0758709819166583  0.15067771317963266  1.0000
  N   N14       1.0  0.3948236549907165  0.42412837746469734  0.6506771930056204  1.0000
  N   N15       1.0  0.39482350713349496  0.9241266877482276  0.8493223355442086  1.0000
  N   N16       1.0  0.605177790056864  0.5758729863090651  0.3493232557763407  1.0000
  N   N17       1.0  0.5621807446726379  0.2126721722141909  0.07307737994700153  1.0000
  N   N18       1.0  0.43781750351898546  0.2873259680874725  0.5730766526821116  1.0000
  N   N19       1.0  0.43782043006414983  0.7873277129762499  0.9269226687798097  1.0000
  N   N20       1.0  0.5621824788836918  0.71267317859445  0.4269233960437049  1.0000
  O   O1        1.0  0.48469796490543615  0.39506511478487033  0.15989318806263952  1.0000
  O   O2        1.0  0.5152995601874366  0.10493282290122609  0.6598933970678758  1.0000
  O   O3        1.0  0.5153038615492775  0.6049325517535991  0.8401080608238944  1.0000
  O   O4        1.0  0.48469936503165906  0.8950663245582788  0.34010505144240716  1.0000
  O   O5        1.0  0.328183701167589  0.42896354784009105  0.09564252821741091  1.0000
  O   O6        1.0  0.6718126897859235  0.07103547260911822  0.5956427742878818  1.0000
  O   O7        1.0  0.6718203988611718  0.5710407715365022  0.904359120729282  1.0000
  O   O8        1.0  0.3281862354353393  0.9289636748528595  0.40435647433001526  1.0000
  O   O9        1.0  0.7458196543758361  0.284530474696453  0.2226616149503613  1.0000
  O   O10       1.0  0.2541753087498009  0.2154693313741021  0.7226626542211395  1.0000
  O   O11       1.0  0.2541792708475867  0.7154686727679974  0.7773384337751355  1.0000
  O   O12       1.0  0.745822694450304  0.7845305561651588  0.2773377945585196  1.0000
  O   O13       1.0  0.8142294477856777  0.30045337673089995  0.13660167471098117  1.0000
  O   O14       1.0  0.18576808657309837  0.1995451564740307  0.6366018452865987  1.0000
  O   O15       1.0  0.1857729192863076  0.6995472469692885  0.8633987740706248  1.0000
  O   O16       1.0  0.814232030984435  0.800454729498938  0.36339820343989265  1.0000
  O   O17       1.0  0.3130006060757253  0.42328150879707493  0.3459793875325375  1.0000
  O   O18       1.0  0.686999498538121  0.0767146188187979  0.8459796524849282  1.0000
  O   O19       1.0  0.6870008149155067  0.5767139398694922  0.6540222614057855  1.0000
  O   O20       1.0  0.3129995618379909  0.9232852679342259  0.15401959613363667  1.0000
  O   O21       1.0  0.09323212205062248  0.36077419018250373  0.3644281489480648  1.0000
  O   O22       1.0  0.9067666436916396  0.1392257493310538  0.8644278534849337  1.0000
  O   O23       1.0  0.9067668031749675  0.639224957284412  0.6355726998850457  1.0000
  O   O24       1.0  0.09323241668447928  0.8607741374219698  0.13557139513363134  1.0000
