data_image0
_chemical_formula_structural       Cd2H30C38N4O12
_chemical_formula_sum              "Cd2 H30 C38 N4 O12"
_cell_length_a       7.801709219139823
_cell_length_b       9.838173496606071
_cell_length_c       12.37509222594063
_cell_angle_alpha    103.87597488717215
_cell_angle_beta     95.2724709696875
_cell_angle_gamma    108.15275152440753

_space_group_name_H-M_alt    "P 1"
_space_group_IT_number       1

loop_
  _space_group_symop_operation_xyz
  'x, y, z'

loop_
  _atom_site_type_symbol
  _atom_site_label
  _atom_site_symmetry_multiplicity
  _atom_site_fract_x
  _atom_site_fract_y
  _atom_site_fract_z
  _atom_site_occupancy
  Cd  Cd1       1.0  0.6557410093283806  0.0629313536156175  0.9011076162878383  1.0000
  Cd  Cd2       1.0  0.3442576930125013  0.9370672593459303  0.09889087358482125  1.0000
  H   H1        1.0  0.13911791915438695  0.5283376853653153  0.5774365639045416  1.0000
  H   H2        1.0  0.8608785853786927  0.4716586860375786  0.4225621889868877  1.0000
  H   H3        1.0  0.13761980026664838  0.39860017612476645  0.3772187210391565  1.0000
  H   H4        1.0  0.8623754479155393  0.6013995079977619  0.6227773679542424  1.0000
  H   H5        1.0  0.5739386615581239  0.7861822449703201  0.3608445643771249  1.0000
  H   H6        1.0  0.4260571156913003  0.21381856692224238  0.6391566171416444  1.0000
  H   H7        1.0  0.5667042882495751  0.9156610530571785  0.5584368782351775  1.0000
  H   H8        1.0  0.4332910422126447  0.08433864543770402  0.4415648745768124  1.0000
  H   H9        1.0  0.3131930884979822  0.3830904329276024  0.2222246381715891  1.0000
  H   H10       1.0  0.6868108904132768  0.6169115686232304  0.7777763947582843  1.0000
  H   H11       1.0  0.22311716681218033  0.5112610730561472  0.18204350766262686  1.0000
  H   H12       1.0  0.7768855078656786  0.48874091373139095  0.8179566456995815  1.0000
  H   H13       1.0  0.6158046092796782  0.4138961184877348  0.23463331481544716  1.0000
  H   H14       1.0  0.384194093061204  0.5861024944738136  0.7653651750572125  1.0000
  H   H15       1.0  0.8848074224925145  0.4845415168765615  0.14110838806262654  1.0000
  H   H16       1.0  0.11519314927721783  0.5154615640480389  0.8588934804557553  1.0000
  H   H17       1.0  0.9085807159922156  0.6753907271351737  0.034850934126872325  1.0000
  H   H18       1.0  0.09142830601012972  0.3246202251050647  0.9651577356621035  1.0000
  H   H19       1.0  0.803474273631302  0.24408192187159025  0.7330803179060227  1.0000
  H   H20       1.0  0.19651968120643912  0.7559144302706927  0.2669207214348006  1.0000
  H   H21       1.0  0.9085719221275215  0.21421864674370997  0.5501709124566433  1.0000
  H   H22       1.0  0.09141988278491905  0.7857787913228478  0.4498286055725771  1.0000
  H   H23       1.0  0.02467495685000637  0.8294821099113464  0.6037913500364455  1.0000
  H   H24       1.0  0.9753346270105823  0.17052105382436625  0.39620858428614275  1.0000
  H   H25       1.0  0.9147433623105102  0.8786360957481351  0.7849536344944426  1.0000
  H   H26       1.0  0.08526263636350957  0.12136147802313962  0.21504504025880783  1.0000
  H   H27       1.0  0.8309397406484181  0.2157955092654121  0.13011982885356593  1.0000
  H   H28       1.0  0.1690571989175709  0.7842019734819702  0.8698775436277019  1.0000
  H   H29       1.0  0.9889436382793945  0.18747688346780222  0.05782018246557639  1.0000
  H   H30       1.0  0.01105506406148747  0.8125217294937387  0.9421783074070832  1.0000
  C   C1        1.0  0.33879676307223866  0.8121504622468979  0.6974256882281723  1.0000
  C   C2        1.0  0.6611992946736363  0.18784479575833052  0.3025736359564775  1.0000
  C   C3        1.0  0.3519040736238069  0.7304619302174091  0.5801064781283999  1.0000
  C   C4        1.0  0.6480920555131604  0.269536659377124  0.4198926799597658  1.0000
  C   C5        1.0  0.2338810484470031  0.5833435704386575  0.5290303912750575  1.0000
  C   C6        1.0  0.7661145037402123  0.4166505639029269  0.4709654586181032  1.0000
  C   C7        1.0  0.23482366500567758  0.510970536718645  0.4179095352808346  1.0000
  C   C8        1.0  0.7651746619390849  0.48903029443452795  0.5820893597885545  1.0000
  C   C9        1.0  0.3560789131840991  0.5831159887247354  0.35586046680749217  1.0000
  C   C10       1.0  0.6439180263818897  0.41688149402264685  0.6441369056737757  1.0000
  C   C11       1.0  0.4791469022432223  0.7279727073273392  0.4079526395431685  1.0000
  C   C12       1.0  0.5208510845682993  0.2720303481770544  0.5920490880737789  1.0000
  C   C13       1.0  0.47603356918068573  0.8010792496012656  0.5188557378736364  1.0000
  C   C14       1.0  0.5239595164565712  0.19891819912220401  0.48114304148936077  1.0000
  C   C15       1.0  0.3397439626374278  0.5022638766982013  0.23321906968278236  1.0000
  C   C16       1.0  0.660257419561333  0.49773809737924074  0.7667810132287088  1.0000
  C   C17       1.0  0.6345875917516183  0.4978257838363051  0.18913149347041985  1.0000
  C   C18       1.0  0.3654080788438491  0.5021716903073639  0.8108674267940118  1.0000
  C   C19       1.0  0.7836003025712444  0.5390597483697734  0.13824111286858456  1.0000
  C   C20       1.0  0.21640230071553648  0.46093890682846  0.8617592065901151  1.0000
  C   C21       1.0  0.7933120795564577  0.6443255824510388  0.07817675187047261  1.0000
  C   C22       1.0  0.20669293484603912  0.35568198980361393  0.9218278270781258  1.0000
  C   C23       1.0  0.6592882160080151  0.7089023199380335  0.07019296196966003  1.0000
  C   C24       1.0  0.340716703494813  0.2911019166209243  0.9298101648415414  1.0000
  C   C25       1.0  0.5042982500849433  0.668081172412599  0.12664037650589685  1.0000
  C   C26       1.0  0.4957018631432958  0.33192079306113  0.8733612541887583  1.0000
  C   C27       1.0  0.6770262793094305  0.8139127318163804  0.9983474233662906  1.0000
  C   C28       1.0  0.32297781801008085  0.18609260953653722  0.0016566799348609954  1.0000
  C   C29       1.0  0.8553630551741521  0.1543752864215336  0.7012033768112361  1.0000
  C   C30       1.0  0.14463297906313957  0.8456199674773048  0.2987943291395327  1.0000
  C   C31       1.0  0.9141765565476303  0.1355287324228129  0.5977837566161099  1.0000
  C   C32       1.0  0.08581701113970304  0.8644698358579107  0.4022168788044952  1.0000
  C   C33       1.0  0.9729009094575359  0.014832174761018302  0.5563020200864344  1.0000
  C   C34       1.0  0.02709780463763423  0.9851664402537142  0.44369727890316585  1.0000
  C   C35       1.0  0.9763361785056406  0.9230560803940053  0.6270664846862675  1.0000
  C   C36       1.0  0.023668247192823285  0.0769470345545002  0.3729339769503852  1.0000
  C   C37       1.0  0.9158275972545553  0.9497682370012939  0.7296459155997255  1.0000
  C   C38       1.0  0.0841788717152454  0.05023045427404332  0.2703538060941924  1.0000
  N   N1        1.0  0.5010019331094853  0.5583259115693979  0.18299026631923715  1.0000
  N   N2        1.0  0.4990002830268877  0.44167495976727633  0.8170096492192446  1.0000
  N   N3        1.0  0.8528160088433976  0.06216591454896301  0.766086337991972  1.0000
  N   N4        1.0  0.14718577226005886  0.9378338454432296  0.23391495795667794  1.0000
  O   O1        1.0  0.4460109614296498  0.9469967711439723  0.737310178181616  1.0000
  O   O2        1.0  0.5539924640404479  0.053000779260294506  0.26268916478714033  1.0000
  O   O3        1.0  0.21900950705784789  0.7405187166051733  0.7454778762230846  1.0000
  O   O4        1.0  0.7809875274078096  0.25948210183790377  0.2545209483955802  1.0000
  O   O5        1.0  0.8085767777124034  0.8373609468589579  0.9445005266820132  1.0000
  O   O6        1.0  0.191429082381994  0.16264552470812538  0.05550469401052281  1.0000
  O   O7        1.0  0.555801635133541  0.8760038618534413  0.9897803715511487  1.0000
  O   O8        1.0  0.4441997588195078  0.1239981142771995  0.010220520477282892  1.0000
  O   O9        1.0  0.3720917634846472  0.7153309910604622  0.12993829310767077  1.0000
  O   O10       1.0  0.627907772793847  0.2846665191603108  0.8700600293919794  1.0000
  O   O11       1.0  0.8745721310595868  0.21228737382965332  0.0552793630884949  1.0000
  O   O12       1.0  0.12542482026069743  0.7877101109709204  0.9447188185097206  1.0000
