data_image0
_chemical_formula_structural       Mn4H24C48O16
_chemical_formula_sum              "Mn4 H24 C48 O16"
_cell_length_a       4.863584786062924
_cell_length_b       13.323437042418366
_cell_length_c       15.00075159211255
_cell_angle_alpha    90.00022045167938
_cell_angle_beta     90.00037773991083
_cell_angle_gamma    92.43326610331381

_space_group_name_H-M_alt    "P 1"
_space_group_IT_number       1

loop_
  _space_group_symop_operation_xyz
  'x, y, z'

loop_
  _atom_site_type_symbol
  _atom_site_label
  _atom_site_symmetry_multiplicity
  _atom_site_fract_x
  _atom_site_fract_y
  _atom_site_fract_z
  _atom_site_occupancy
  Mn  Mn1       1.0  0.7503535800417892  0.5032442821898327  0.5631341199982883  1.0000
  Mn  Mn2       1.0  0.7496453227608696  0.9967546992941293  0.0631333538239076  1.0000
  Mn  Mn3       1.0  0.24964539823911736  0.496754622084836  0.4368658985311384  1.0000
  Mn  Mn4       1.0  0.2503516752590116  0.0032449521516894992  0.9368659980714114  1.0000
  H   H1        1.0  0.5764660541648681  0.23609733851441206  0.593256631688682  1.0000
  H   H2        1.0  0.9235354911045163  0.2639018284494411  0.0932554382462314  1.0000
  H   H3        1.0  0.42353086757823627  0.7639015617094458  0.406743386838528  1.0000
  H   H4        1.0  0.0764637160205979  0.7360993294942091  0.9067439136540472  1.0000
  H   H5        1.0  0.8148039595635834  0.12796035425658658  0.70238323360541  1.0000
  H   H6        1.0  0.6851936094301507  0.37203855452116125  0.2023805672411285  1.0000
  H   H7        1.0  0.18518679258689014  0.8720385338194631  0.2976187848149578  1.0000
  H   H8        1.0  0.3148054451414025  0.6279611009785595  0.7976201179229321  1.0000
  H   H9        1.0  0.5687476248706248  0.2542432445956564  0.9895074666639161  1.0000
  H   H10       1.0  0.9312515738643083  0.2457547316298089  0.4895048941411915  1.0000
  H   H11       1.0  0.4312595795892377  0.7457556758884322  0.0104952184074207  1.0000
  H   H12       1.0  0.0687432150503398  0.7542434133181856  0.5104944577491679  1.0000
  H   H13       1.0  0.310863114771294  0.3978475433630491  0.0421249064978326  1.0000
  H   H14       1.0  0.1891300144494892  0.10215171399478612  0.5421232147459278  1.0000
  H   H15       1.0  0.6891317504409357  0.6021513528115392  0.9578757786604299  1.0000
  H   H16       1.0  0.8108668309891057  0.8978464350009357  0.4578748038801237  1.0000
  H   H17       1.0  0.06073028823540479  0.5028376206444348  0.9323028818983018  1.0000
  H   H18       1.0  0.4392665783417086  0.9971603880381252  0.43230185729457554  1.0000
  H   H19       1.0  0.9392643481187476  0.49715902185808125  0.0676971366225843  1.0000
  H   H20       1.0  0.5607346090305683  0.0028400227312915  0.567696827973279  1.0000
  H   H21       1.0  0.07385221181311862  0.46363003895029914  0.7728341522872384  1.0000
  H   H22       1.0  0.42614975254737425  0.03636954333887129  0.2728335156838924  1.0000
  H   H23       1.0  0.926146766474723  0.5363688653259117  0.227166532875458  1.0000
  H   H24       1.0  0.5738493020103163  0.9636301121577658  0.7271658362136435  1.0000
  C   C1        1.0  0.23603312452318898  0.3808684303500413  0.6240669715115317  1.0000
  C   C2        1.0  0.263969782552948  0.11912972011391078  0.12406760469091438  1.0000
  C   C3        1.0  0.7639679102816571  0.619130477972348  0.3759317137535731  1.0000
  C   C4        1.0  0.736029195714096  0.8808691841576745  0.8759310805719878  1.0000
  C   C5        1.0  0.37370902894893726  0.3200129249068695  0.69327688010722  1.0000
  C   C6        1.0  0.12629547010052988  0.17998704839816068  0.1932740939229163  1.0000
  C   C7        1.0  0.6262964241010422  0.679988996418899  0.3067251383341301  1.0000
  C   C8        1.0  0.8737057935554587  0.820014113594766  0.8067245913463097  1.0000
  C   C9        1.0  0.5468687470566209  0.24658502313707936  0.6645670448737279  1.0000
  C   C10       1.0  0.9531323773777769  0.2534159723506875  0.1645665455176228  1.0000
  C   C11       1.0  0.4531306126497866  0.7534176372566816  0.3354336402958253  1.0000
  C   C12       1.0  0.04686477320259997  0.7465851815406095  0.8354321397471764  1.0000
  C   C13       1.0  0.6818081518001832  0.18619803656356737  0.7258420155948002  1.0000
  C   C14       1.0  0.818189905108717  0.3138009808181009  0.2258407676569973  1.0000
  C   C15       1.0  0.31819105535266357  0.8138031213862645  0.2741600028385419  1.0000
  C   C16       1.0  0.18180709290423638  0.686198670626176  0.7741579176050594  1.0000
  C   C17       1.0  0.6459397565383468  0.19868929447094524  0.8167607763308382  1.0000
  C   C18       1.0  0.8540561545255018  0.30131088693412517  0.31675956241052466  1.0000
  C   C19       1.0  0.35406173599651675  0.8013141211986792  0.1832405754755655  1.0000
  C   C20       1.0  0.14594701311473557  0.6986887766656764  0.6832404561247004  1.0000
  C   C21       1.0  0.48117686670467913  0.27719522778435385  0.8495970892038186  1.0000
  C   C22       1.0  0.018820600854525093  0.22280544894349663  0.349596219521473  1.0000
  C   C23       1.0  0.5188308716995849  0.7228089512550468  0.1504015960775433  1.0000
  C   C24       1.0  0.9811783774055839  0.7771934553265467  0.6504017991081597  1.0000
  C   C25       1.0  0.34022889072642926  0.33832595501240803  0.7866601965878246  1.0000
  C   C26       1.0  0.15977351375684629  0.16167519373006906  0.2866594191876146  1.0000
  C   C27       1.0  0.6597809042364419  0.6616782280824297  0.2133404885955343  1.0000
  C   C28       1.0  0.8402318629816891  0.8383259763660149  0.7133399327193003  1.0000
  C   C29       1.0  0.4629863050798376  0.300430862655233  0.9418304881639727  1.0000
  C   C30       1.0  0.0370149084403408  0.1995679914371706  0.4418282443797494  1.0000
  C   C31       1.0  0.5370212044940813  0.6995710627182629  0.05817019701306239  1.0000
  C   C32       1.0  0.9629860500877212  0.8004301656632578  0.5581711075172465  1.0000
  C   C33       1.0  0.3163464729234916  0.38025682053751086  0.9711336664451338  1.0000
  C   C34       1.0  0.1836530646753616  0.11973991149354649  0.4711327961530714  1.0000
  C   C35       1.0  0.6836587512614826  0.6197428471146438  0.028867018725563298  1.0000
  C   C36       1.0  0.8163457610311793  0.8802574903325532  0.5288665557403434  1.0000
  C   C37       1.0  0.17587783459793369  0.43940566133223763  0.9094127100114164  1.0000
  C   C38       1.0  0.3241249138044465  0.06059454918423769  0.4094112711549868  1.0000
  C   C39       1.0  0.8241212199874822  0.560593994170567  0.09058930841917599  1.0000
  C   C40       1.0  0.6758762735678303  0.9394058615851717  0.5905874141128749  1.0000
  C   C41       1.0  0.18536198833992049  0.4183490211019033  0.8196498483340235  1.0000
  C   C42       1.0  0.31464094970186807  0.08165077791675658  0.31964912813569407  1.0000
  C   C43       1.0  0.8146433121426285  0.581651397776845  0.18035217010457663  1.0000
  C   C44       1.0  0.6853581811325995  0.9183496288018488  0.6803495571299507  1.0000
  C   C45       1.0  0.7756716991572928  0.1254517007764804  0.8773637530516537  1.0000
  C   C46       1.0  0.7243193027187047  0.3745487490313977  0.3773618458913077  1.0000
  C   C47       1.0  0.22431935812804227  0.8745501921936167  0.1226382653742064  1.0000
  C   C48       1.0  0.27567967557606476  0.6254501552463553  0.6226395059046439  1.0000
  O   O1        1.0  0.3788287465589447  0.4041781937360582  0.5536740252050052  1.0000
  O   O2        1.0  0.12117467672074869  0.09581888367554817  0.0536742719188865  1.0000
  O   O3        1.0  0.6211721356784706  0.5958192121393181  0.4463246600573568  1.0000
  O   O4        1.0  0.8788241489857923  0.9041785181505588  0.9463250799745282  1.0000
  O   O5        1.0  0.9908270593815941  0.4062603537150266  0.6364918689458038  1.0000
  O   O6        1.0  0.5091753851152702  0.09373901340580909  0.1364918682295269  1.0000
  O   O7        1.0  0.009174051720833593  0.5937393058339565  0.3635081495872043  1.0000
  O   O8        1.0  0.4908258022570067  0.9062613973636074  0.8635068170383278  1.0000
  O   O9        1.0  0.012024248554581599  0.09530380043424459  0.8575938726416652  1.0000
  O   O10       1.0  0.4879691959670963  0.40469615398966136  0.35759330135399386  1.0000
  O   O11       1.0  0.9879685601129111  0.9046950916879976  0.14240614588112518  1.0000
  O   O12       1.0  0.512029858597522  0.5953035015085175  0.6424067171768044  1.0000
  O   O13       1.0  0.633307969839592  0.09353773605355542  0.9452301449635173  1.0000
  O   O14       1.0  0.866688480331362  0.4064622848156602  0.44522865291879304  1.0000
  O   O15       1.0  0.36668720050056447  0.9064641650135316  0.0547698735669755  1.0000
  O   O16       1.0  0.1333165912861816  0.5935358803894742  0.5547720322491614  1.0000
