data_image0
_chemical_formula_structural       Hg2H6C12S4Br2N8
_chemical_formula_sum              "Hg2 H6 C12 S4 Br2 N8"
_cell_length_a       5.935586235200587
_cell_length_b       7.336046580075797
_cell_length_c       13.519578645013132
_cell_angle_alpha    88.79270264254247
_cell_angle_beta     86.74420608507194
_cell_angle_gamma    66.22155469992634

_space_group_name_H-M_alt    "P 1"
_space_group_IT_number       1

loop_
  _space_group_symop_operation_xyz
  'x, y, z'

loop_
  _atom_site_type_symbol
  _atom_site_label
  _atom_site_symmetry_multiplicity
  _atom_site_fract_x
  _atom_site_fract_y
  _atom_site_fract_z
  _atom_site_occupancy
  Hg  Hg1       1.0  0.041047005086589566  0.39521744128409625  0.7542572377118902  1.0000
  Hg  Hg2       1.0  0.43445036914603463  0.6023618191728985  0.2527495365627246  1.0000
  H   H1        1.0  0.3633496781133444  0.4498665844510157  0.9386245780061488  1.0000
  H   H2        1.0  0.8206102244802549  0.5458670739455016  0.4336479098063109  1.0000
  H   H3        1.0  0.9715074980875683  0.92463518749242  0.12863650910270513  1.0000
  H   H4        1.0  0.8927930951342586  0.08195137278745078  0.6291015665172566  1.0000
  H   H5        1.0  0.6151459559516043  0.7533117085393358  0.8985797257856094  1.0000
  H   H6        1.0  0.3665707680236068  0.24721813375576573  0.3989801984120903  1.0000
  C   C1        1.0  0.18977229846587562  0.5706521691963786  0.962564457255752  1.0000
  C   C2        1.0  0.7650320261168202  0.4272705200300919  0.4592061660555942  1.0000
  C   C3        1.0  0.9726681111949061  0.8289066952676482  0.0677134427057879  1.0000
  C   C4        1.0  0.8010260210248888  0.1744011859073495  0.5669522441627706  1.0000
  C   C5        1.0  0.7565661828508965  0.8570946094700889  0.021742095438987998  1.0000
  C   C6        1.0  0.6127810862632685  0.14522759597179663  0.5215846934640993  1.0000
  C   C7        1.0  0.7734889731090744  0.7367556861421037  0.9407702164453868  1.0000
  C   C8        1.0  0.5104971439915785  0.26325453394463944  0.4400727437463275  1.0000
  C   C9        1.0  0.40466534998824216  0.6009324271600249  0.7079263966420655  1.0000
  C   C10       1.0  0.003970745558220295  0.3981161015417101  0.2064764983232621  1.0000
  C   C11       1.0  0.7306799181240817  0.1395734432520115  0.8177663934623213  1.0000
  C   C12       1.0  0.8690719975650011  0.8591165157799312  0.3171108530443335  1.0000
  S   S1        1.0  0.1718846185808757  0.6106773671530874  0.6435562207543271  1.0000
  S   S2        1.0  0.7816447108307043  0.3890623032990349  0.14131427098074315  1.0000
  S   S3        1.0  0.029250947888193896  0.08481490556358302  0.8214860541956669  1.0000
  S   S4        1.0  0.1147599692676736  0.9113139630594276  0.32261946987651413  1.0000
  Br  Br1       1.0  0.45303297420127814  0.0524420233842378  0.06970538677249752  1.0000
  Br  Br2       1.0  0.502219299061096  0.9519696343092934  0.5709564413747188  1.0000
  N   N1        1.0  0.9923909970470604  0.5947129574506534  0.9112903062993355  1.0000
  N   N2        1.0  0.5901400393888137  0.4028338817356102  0.4089800476223432  1.0000
  N   N3        1.0  0.1890305108470686  0.6830087573093949  0.0391817162564152  1.0000
  N   N4        1.0  0.8744530573778492  0.31789409051840783  0.5366827662343924  1.0000
  N   N5        1.0  0.5707141936824414  0.5996772465640063  0.7523639433344231  1.0000
  N   N6        1.0  0.16862393652047572  0.39877245077036594  0.2512410234430007  1.0000
  N   N7        1.0  0.5195674210643731  0.17222295532222628  0.8164979723080776  1.0000
  N   N8        1.0  0.6889929646425654  0.828852342252688  0.3146568167564753  1.0000
