data_image0
_chemical_formula_structural       Zn6H29C42ClO25
_chemical_formula_sum              "Zn6 H29 C42 Cl1 O25"
_cell_length_a       18.747141660000892
_cell_length_b       18.756075236723404
_cell_length_c       18.990731767402924
_cell_angle_alpha    109.50300401740515
_cell_angle_beta     109.04162878667186
_cell_angle_gamma    109.51797741523278

_space_group_name_H-M_alt    "P 1"
_space_group_IT_number       1

loop_
  _space_group_symop_operation_xyz
  'x, y, z'

loop_
  _atom_site_type_symbol
  _atom_site_label
  _atom_site_symmetry_multiplicity
  _atom_site_fract_x
  _atom_site_fract_y
  _atom_site_fract_z
  _atom_site_occupancy
  Zn  Zn1       1.0  0.44457956386879965  0.5037817472556866  0.44143362393020147  1.0000
  Zn  Zn2       1.0  0.5543187641848064  0.4927460347658652  0.5651313006057347  1.0000
  Zn  Zn3       1.0  9.720068905490251e-05  0.9427414209637703  0.4390655881256149  1.0000
  Zn  Zn4       1.0  0.005092248851468597  0.0671066534099651  0.5665023020163744  1.0000
  Zn  Zn5       1.0  0.4491254022861709  0.9498397630481391  0.005274700522448708  1.0000
  Zn  Zn6       1.0  0.5670933745042886  0.07842086727109181  0.003772564326602801  1.0000
  H   H1        1.0  0.30683105404295224  0.15184075009734946  0.5539442595404437  1.0000
  H   H2        1.0  0.40426007959408133  0.1842137157546375  0.8859322358644871  1.0000
  H   H3        1.0  0.35224631282780905  0.33059067995431235  0.6355580291462102  1.0000
  H   H4        1.0  0.28165180124630496  0.9863808789250187  0.7967361191955218  1.0000
  H   H5        1.0  0.2575942254526211  0.17388647477150707  0.8065945307983567  1.0000
  H   H6        1.0  0.22783330293987086  0.0020557283993696  0.6739654521621856  1.0000
  H   H7        1.0  0.6491958956088695  0.9266826160477919  0.16267399274074254  1.0000
  H   H8        1.0  0.7855533553537555  0.114868109761872  0.2292626173674747  1.0000
  H   H9        1.0  0.7801232742637013  0.9245299433574488  0.2537999889570485  1.0000
  H   H10       1.0  0.8212668673597534  0.10403995784730569  0.3833787099664504  1.0000
  H   H11       1.0  0.1729145766670968  0.27848605286300915  0.5410255091766983  1.0000
  H   H12       1.0  0.42233904106697645  0.7025472242892475  0.629621534533754  1.0000
  H   H13       1.0  0.2019192883658647  0.2970497518862132  0.4076028331432651  1.0000
  H   H14       1.0  0.1590237753239592  0.11875046784854248  0.3274387577613566  1.0000
  H   H15       1.0  0.43139995830586036  0.7076768429359036  0.8303028644163742  1.0000
  H   H16       1.0  0.5189801379744026  0.8411582915608733  0.7829858140529492  1.0000
  H   H17       1.0  0.4806810876402708  0.623209994215273  0.7402093032785328  1.0000
  H   H18       1.0  0.5655778291620805  0.3814963864284806  0.1857110370645286  1.0000
  H   H19       1.0  0.47645376625112584  0.3550378277661039  0.09026903503792026  1.0000
  H   H20       1.0  0.540939792985462  0.29499435536153834  0.0034508132434893316  1.0000
  H   H21       1.0  0.6149473701890074  0.40665889057883214  0.08362845328663568  1.0000
  H   H22       1.0  0.6292838756731529  0.32266987216764426  0.09920446117035903  1.0000
  H   H23       1.0  0.7868396566781755  0.8726786847611478  0.5487170644750845  1.0000
  H   H24       1.0  0.8299370126337636  0.732685123068343  0.46656186151669465  1.0000
  H   H25       1.0  0.6519993061085074  0.7372523855836732  0.5046225812405536  1.0000
  H   H26       1.0  0.787945393168883  0.6901105823860618  0.5851738703301589  1.0000
  H   H27       1.0  0.41344698125024587  0.1390358535990046  0.19094286276619235  1.0000
  H   H28       1.0  0.4230455979238315  0.3343607133103531  0.1930322258095457  1.0000
  H   H29       1.0  0.5206084252298452  0.2914873385817812  0.32378283782365685  1.0000
  C   C1        1.0  0.45964576409789976  0.6033142394439964  0.5886504572504802  1.0000
  C   C2        1.0  0.8352386791890538  0.7964335281124164  0.4959218182202248  1.0000
  C   C3        1.0  0.715913029005236  0.7417490956341197  0.5273818076536396  1.0000
  C   C4        1.0  0.39560360355368823  0.36844080879586727  0.5054521783911025  1.0000
  C   C5        1.0  0.7252265896296137  0.6860044778318297  0.5546650359896361  1.0000
  C   C6        1.0  0.4600901382758806  0.23295470899638104  0.1555697832955615  1.0000
  C   C7        1.0  0.4438983772458159  0.15594953063016703  0.15466944124205628  1.0000
  C   C8        1.0  0.4527586925422895  0.2995794099909119  0.2157167218472934  1.0000
  C   C9        1.0  0.48618290900871836  0.32187518591214104  0.2990391328855819  1.0000
  C   C10       1.0  0.1344479731839812  0.044554050346747  0.6399791907460963  1.0000
  C   C11       1.0  0.11324225857298836  0.08916035036601498  0.4658475060283961  1.0000
  C   C12       1.0  0.20077621275899554  0.16656826811485803  0.395854388512525  1.0000
  C   C13       1.0  0.887458473745987  0.03417674176389339  0.41823650007535895  1.0000
  C   C14       1.0  0.8968746582846308  0.8669876094455873  0.49199563348555103  1.0000
  C   C15       1.0  0.6515070129185148  0.04648425630162481  0.12193323490495793  1.0000
  C   C16       1.0  0.48467567164576036  0.39062044704091636  0.3642636466585783  1.0000
  C   C17       1.0  0.4879611214923259  0.8793089381221366  0.8855859211453986  1.0000
  C   C18       1.0  0.4147352565541951  0.044422392450073296  0.8949448048950044  1.0000
  C   C19       1.0  0.46208935351915403  0.09280479232835148  0.10505686041857831  1.0000
  C   C20       1.0  0.34504787054581243  0.1214152417527501  0.8388927380476827  1.0000
  C   C21       1.0  0.34269528218110423  0.048272870980795794  0.8373028135082874  1.0000
  C   C22       1.0  0.2692146833856555  0.11960131370518212  0.7824870860979514  1.0000
  C   C23       1.0  0.2985905100658357  0.19501245137580986  0.44925611675957794  1.0000
  C   C24       1.0  0.21389017176286274  0.0535418611838949  0.7010201723332512  1.0000
  C   C25       1.0  0.71185450078314  0.9869065113970592  0.20736666737188594  1.0000
  C   C26       1.0  0.7233037992260947  0.05454143662301189  0.19300974923116598  1.0000
  C   C27       1.0  0.7756591149787865  0.9841108738646156  0.2731005808936897  1.0000
  C   C28       1.0  0.6494580487217692  0.6184335937798054  0.5472301062223008  1.0000
  C   C29       1.0  0.8260542136814594  0.045618013470949806  0.35678897438400264  1.0000
  C   C30       1.0  0.3077695154983431  0.28336249002861547  0.5672840310453039  1.0000
  C   C31       1.0  0.28437013704536435  0.18574785312100056  0.5229728876112459  1.0000
  C   C32       1.0  0.18535693915362114  0.15805759312287648  0.4699361985746079  1.0000
  C   C33       1.0  0.2099497545647822  0.2558610540864095  0.5147220521705689  1.0000
  C   C34       1.0  0.3222285289834517  0.294094074909502  0.49366350335721154  1.0000
  C   C35       1.0  0.22433934931670052  0.2645315754069486  0.440521386961336  1.0000
  C   C36       1.0  0.5254171908719414  0.33710886811946494  0.11587132297713505  1.0000
  C   C37       1.0  0.580831565139249  0.34046492995300776  0.07287378328123129  1.0000
  C   C38       1.0  0.4567048587104664  0.7300232187472985  0.7927439207781216  1.0000
  C   C39       1.0  0.4869998129745525  0.8145166024465597  0.8141948288781717  1.0000
  C   C40       1.0  0.4627376456904316  0.669007652023538  0.7268217152680874  1.0000
  C   C41       1.0  0.4473707441474418  0.6641111112757089  0.6503769394661346  1.0000
  C   C42       1.0  0.7828193753127977  0.808855512911613  0.527253617172782  1.0000
  Cl  Cl1       1.0  0.35766928379362645  0.1576844315538253  0.40799548840554667  1.0000
  O   O1        1.0  0.4197881727410859  0.5848793210580184  0.5096522060101234  1.0000
  O   O2        1.0  0.6725031766873498  0.10159799724684149  0.0956754005284849  1.0000
  O   O3        1.0  0.43932181423792127  0.851669494081655  0.9161029196798081  1.0000
  O   O4        1.0  0.5077040698494031  0.5735063308605605  0.615856344981047  1.0000
  O   O5        1.0  0.5384123974485959  0.958960187724351  0.9119883342599517  1.0000
  O   O6        1.0  0.3918916046552425  0.9830039169443977  0.9117085776076688  1.0000
  O   O7        1.0  0.4941657741198285  0.10162815362970427  0.9243776006749724  1.0000
  O   O8        1.0  0.4161433955539309  0.0113722571189641  0.08180515318819905  1.0000
  O   O9        1.0  0.5231757131818  0.1199841165955959  0.08855372928127273  1.0000
  O   O10       1.0  0.377327948509695  0.40082547287838116  0.45773100645158127  1.0000
  O   O11       1.0  0.4726506269082904  0.39497284257623727  0.5636194603403692  1.0000
  O   O12       1.0  0.1058109478108804  0.09600656807948837  0.6668261834939528  1.0000
  O   O13       1.0  0.4382386680416914  0.42427703833401154  0.3396763746199837  1.0000
  O   O14       1.0  0.5310720858291873  0.4124545281505334  0.44177461166378856  1.0000
  O   O15       1.0  0.5737997439734598  0.5988952762421818  0.4953430145806476  1.0000
  O   O16       1.0  0.6651745077758164  0.5827943380866359  0.5938600931731981  1.0000
  O   O17       1.0  0.09833359289452655  0.9844828547031524  0.5626043809892277  1.0000
  O   O18       1.0  0.4808633852480568  0.24820265391412738  0.0980895532469858  1.0000
  O   O19       1.0  0.08286909347398821  0.0082511624661663  0.4128134952649701  1.0000
  O   O20       1.0  0.08729468964476439  0.11544571807486648  0.5180557923230962  1.0000
  O   O21       1.0  0.9048220983407873  0.974236058281271  0.38947990930884624  1.0000
  O   O22       1.0  0.9199046868200753  0.08758070920227108  0.4988133746402778  1.0000
  O   O23       1.0  0.9222837652136917  0.8423123359715419  0.43722877457113174  1.0000
  O   O24       1.0  0.91967207599658  0.9454722442038558  0.5406886635475412  1.0000
  O   O25       1.0  0.5747147104812386  0.9861695160624393  0.09119034298803522  1.0000
