data_image0
_chemical_formula_structural       Zn8H24C88O42F16
_chemical_formula_sum              "Zn8 H24 C88 O42 F16"
_cell_length_a       23.702138025149612
_cell_length_b       23.703239142590945
_cell_length_c       23.70192293107995
_cell_angle_alpha    65.80011061753923
_cell_angle_beta     72.84463904216939
_cell_angle_gamma    107.16255668793983

_space_group_name_H-M_alt    "P 1"
_space_group_IT_number       1

loop_
  _space_group_symop_operation_xyz
  'x, y, z'

loop_
  _atom_site_type_symbol
  _atom_site_label
  _atom_site_symmetry_multiplicity
  _atom_site_fract_x
  _atom_site_fract_y
  _atom_site_fract_z
  _atom_site_occupancy
  Zn  Zn1       1.0  0.06000120530488571  0.9596150493954095  0.48435782799638366  1.0000
  Zn  Zn2       1.0  0.0600024174738607  0.10038381008485689  0.45563873544773503  1.0000
  Zn  Zn3       1.0  0.9399954412646493  0.9843644425016717  0.4596095053527165  1.0000
  Zn  Zn4       1.0  0.9400075351136221  0.9556400806884393  0.6003801921140312  1.0000
  Zn  Zn5       1.0  0.9439754115413164  0.5443583748918497  0.015638815955810518  1.0000
  Zn  Zn6       1.0  0.05603253391795703  0.5156390338979477  0.044360756356276454  1.0000
  Zn  Zn7       1.0  0.9439819342921253  0.3996187587883638  0.040383005128873675  1.0000
  Zn  Zn8       1.0  0.05601965109898533  0.5403855030093324  0.8996094898790191  1.0000
  H   H1        1.0  0.9214999554859983  0.6527644735951195  0.11479234704395254  1.0000
  H   H2        1.0  0.07851506378125354  0.6147740118255739  0.15278059958040302  1.0000
  H   H3        1.0  0.9277286986265451  0.8959778596790283  0.34236516164369174  1.0000
  H   H4        1.0  0.0721954850993853  0.8423440222782402  0.3960259769241006  1.0000
  H   H5        1.0  0.07849926143195772  0.4636949786460958  0.7687311037212937  1.0000
  H   H6        1.0  0.9214857597038488  0.2687131553542129  0.963743483749859  1.0000
  H   H7        1.0  0.0722150965278061  0.22987831424204327  0.5317690039020065  1.0000
  H   H8        1.0  0.9277601427100991  0.03176222783967135  0.7298663442374149  1.0000
  H   H9        1.0  0.7383668024429823  0.4682189975591695  0.10398240574819802  1.0000
  H   H10       1.0  0.7383608765653165  0.2701087146359456  0.15764277139054167  1.0000
  H   H11       1.0  0.26755575481664096  0.23127996006525106  0.34722648337694306  1.0000
  H   H12       1.0  0.2675676593602887  0.03629658445134954  0.38519810543207467  1.0000
  H   H13       1.0  0.26164976102034404  0.6039953817256816  0.96823019584739  1.0000
  H   H14       1.0  0.26163325972166973  0.6576537825764389  0.7701156153272494  1.0000
  H   H15       1.0  0.7324621374450897  0.8472220787721055  0.7312776407766892  1.0000
  H   H16       1.0  0.7324244675901  0.8851989639108024  0.5362888901054178  1.0000
  H   H17       1.0  0.8366761116027771  0.7322155606544452  0.8115126544860091  1.0000
  H   H18       1.0  0.0437571606493989  0.648220302584498  0.6884431072380933  1.0000
  H   H19       1.0  0.9562398993555872  0.7677716640752547  0.8955558260022162  1.0000
  H   H20       1.0  0.16333250874203023  0.851803119154553  0.6044586061221795  1.0000
  H   H21       1.0  0.8366649738325124  0.10446292557195144  0.3517936071794168  1.0000
  H   H22       1.0  0.043744867081173304  0.3955395248926336  0.2677977845682236  1.0000
  H   H23       1.0  0.9562544676460759  0.1884782329105122  0.14819569145435452  1.0000
  H   H24       1.0  0.16333220138520943  0.3115391681601736  0.23221944128344055  1.0000
  C   C1        1.0  0.18490683498966126  0.09245704803978333  0.4075454667511451  1.0000
  C   C2        1.0  3.604579475804498e-06  0.1373079325541156  0.36268262400076173  1.0000
  C   C3        1.0  0.9999645216433848  0.9103616736657614  0.4103911047754494  1.0000
  C   C4        1.0  0.8150968210095401  0.907543788896568  0.5924526277978187  1.0000
  C   C5        1.0  5.130086151497594e-06  0.8626897117972305  0.6373063491889112  1.0000
  C   C6        1.0  0.9999955096699724  0.08962537610857155  0.5896158930867091  1.0000
  C   C7        1.0  5.884352582070557e-06  0.5924510983454141  0.09245423455207905  1.0000
  C   C8        1.0  1.2826790317920508e-05  0.362698826778633  0.1373025327898034  1.0000
  C   C9        1.0  0.8207582947876305  0.41036201290690866  0.08962362391161352  1.0000
  C   C10       1.0  0.9999926195708042  0.4075413661188207  0.9075513014388291  1.0000
  C   C11       1.0  0.999995672627911  0.6373068868403848  0.8626917298667464  1.0000
  C   C12       1.0  0.17924648280387606  0.589628923122511  0.9103717941819769  1.0000
  C   C13       1.0  3.1456983365866327e-06  0.8044620922588875  0.6955313778439915  1.0000
  C   C14       1.0  0.9999924838027282  0.6955319772804527  0.8044650450495184  1.0000
  C   C15       1.0  0.9571858796416349  0.7777420403972214  0.7660087304869022  1.0000
  C   C16       1.0  0.04375701545708202  0.723195105315021  0.7339883424400853  1.0000
  C   C17       1.0  0.9562400599554765  0.7222552640366829  0.8205638256104351  1.0000
  C   C18       1.0  0.04282124824712249  0.7768044276286759  0.6794363933876894  1.0000
  C   C19       1.0  0.9999964315549263  0.19553478387840792  0.30446063879624313  1.0000
  C   C20       1.0  6.1091628751288845e-06  0.30446900362763063  0.1955391442838703  1.0000
  C   C21       1.0  0.9571762762466064  0.17943969943281937  0.27680058446307493  1.0000
  C   C22       1.0  0.04376229180837042  0.32056350534210754  0.22226264753030742  1.0000
  C   C23       1.0  0.9562449075279392  0.23399414897235005  0.22319069311527773  1.0000
  C   C24       1.0  0.04281822789440069  0.2660087910115365  0.2777485521718575  1.0000
  C   C25       1.0  8.878991565082531e-06  0.6298880453810511  0.1298993240940831  1.0000
  C   C26       1.0  0.9558157567538927  0.658026308289898  0.13656244145408178  1.0000
  C   C27       1.0  0.9568029377713856  0.6927518482226489  0.17127666462356936  1.0000
  C   C28       1.0  6.618529241172967e-06  0.7008576651375903  0.20090377551051838  1.0000
  C   C29       1.0  0.0432127225602202  0.671238857489655  0.19278826693413004  1.0000
  C   C30       1.0  0.04420036421802113  0.636540723671608  0.1580446739326148  1.0000
  C   C31       1.0  0.9999974456526673  0.7361257254922579  0.23618051585287228  1.0000
  C   C32       1.0  0.9999791069792392  0.7667609327815794  0.26679946989838754  1.0000
  C   C33       1.0  0.9999650255604422  0.8020309419241937  0.3020739375194453  1.0000
  C   C34       1.0  0.9596326340909371  0.8352462403119105  0.30654013597632007  1.0000
  C   C35       1.0  0.9590724014398193  0.8705120122184414  0.3407009540871257  1.0000
  C   C36       1.0  0.9999586201379458  0.8729174732229551  0.37296203983309084  1.0000
  C   C37       1.0  0.040848226289547505  0.8406645020338388  0.37056076287945666  1.0000
  C   C38       1.0  0.04029763351996246  0.8065118734623977  0.33528970076793024  1.0000
  C   C39       1.0  0.9999924182692227  0.3700876158249071  0.870121848933792  1.0000
  C   C40       1.0  0.04418052744468787  0.4076107485666043  0.7977912891240352  1.0000
  C   C41       1.0  0.04319050482671839  0.3719024221786711  0.7640542559201434  1.0000
  C   C42       1.0  0.9999848333607918  0.2990747058587645  0.7991529595959507  1.0000
  C   C43       1.0  0.9567855249518474  0.2639968679064282  0.8719755825609852  1.0000
  C   C44       1.0  0.955800946903537  0.29775630262813013  0.9076603930618392  1.0000
  C   C45       1.0  0.999984804775899  0.2638068373526822  0.7638847961065165  1.0000
  C   C46       1.0  0.9999893510405542  0.23319588470304342  0.7332378610229142  1.0000
  C   C47       1.0  0.9999890591915702  0.19793413646343075  0.6979614045519612  1.0000
  C   C48       1.0  0.040315995144524726  0.23379462371141096  0.6244132891162978  1.0000
  C   C49       1.0  0.04087185541654041  0.20020053095505116  0.5885797773862367  1.0000
  C   C50       1.0  0.9999887525580037  0.1270594686965795  0.6270540737598863  1.0000
  C   C51       1.0  0.959101875398666  0.0885749319953959  0.7001991498754735  1.0000
  C   C52       1.0  0.9596594531443755  0.12439155500833708  0.7338098797819727  1.0000
  C   C53       1.0  0.7458880162676778  0.3729265647803856  0.12705126839605901  1.0000
  C   C54       1.0  0.7112279312579518  0.4114087949229913  0.1294479207508344  1.0000
  C   C55       1.0  0.6418032823841244  0.3755897471928193  0.1647092910076823  1.0000
  C   C56       1.0  0.6041104554462818  0.30204425931412954  0.19792367764650018  1.0000
  C   C57       1.0  0.6418006374783972  0.2661856224612649  0.19345862510299838  1.0000
  C   C58       1.0  0.7112266607134216  0.29978469017737536  0.1593060358356055  1.0000
  C   C59       1.0  0.5335635328491364  0.2667786123352584  0.233194731856841  1.0000
  C   C60       1.0  0.47231104351514125  0.23617028237170254  0.26381439438880255  1.0000
  C   C61       1.0  0.40176913975529527  0.20090540007078048  0.2990908148450444  1.0000
  C   C62       1.0  0.36403196239420055  0.2359895496169031  0.3072111641032222  1.0000
  C   C63       1.0  0.2945901685403244  0.2022354648098171  0.3419557575620402  1.0000
  C   C64       1.0  0.2597927441482142  0.12990304297473187  0.370097516343968  1.0000
  C   C65       1.0  0.2945959229556365  0.092378779028742  0.3634299318650421  1.0000
  C   C66       1.0  0.36403632841808087  0.12807892791073527  0.3287163554822997  1.0000
  C   C67       1.0  0.2541186544792425  0.6270631822730974  0.8729356248833186  1.0000
  C   C68       1.0  0.2887830084040885  0.6294588469552876  0.9114205164503917  1.0000
  C   C69       1.0  0.35820901714471637  0.6647244702050229  0.8755968396331968  1.0000
  C   C70       1.0  0.3958962809495786  0.6979388458864405  0.8020481501467387  1.0000
  C   C71       1.0  0.3582006019358205  0.6934700110193717  0.7661913373875464  1.0000
  C   C72       1.0  0.2887758066201017  0.6593204687854453  0.7997901756637448  1.0000
  C   C73       1.0  0.46644326986631046  0.7332081921003134  0.7667827590493915  1.0000
  C   C74       1.0  0.5276960462782654  0.763825706988321  0.7361681722476731  1.0000
  C   C75       1.0  0.5982383248357339  0.7990977218836974  0.7009010031888393  1.0000
  C   C76       1.0  0.6359808796553071  0.8072125610184814  0.735988576265484  1.0000
  C   C77       1.0  0.7054222987612775  0.8419523712590972  0.7022310288894928  1.0000
  C   C78       1.0  0.7402128048276424  0.8700965425556788  0.629899251224728  1.0000
  C   C79       1.0  0.7054043586283499  0.8634316108286627  0.5923729072471459  1.0000
  C   C80       1.0  0.6359632046169921  0.8287205097166248  0.6280718814525201  1.0000
  C   C81       1.0  0.9161207198117155  0.8116104940470237  0.785135006938269  1.0000
  C   C82       1.0  0.09675123799369342  0.7012570463884626  0.7148647384731746  1.0000
  C   C83       1.0  0.9032385912548051  0.6883767187784214  0.8954908363884544  1.0000
  C   C84       1.0  0.08388062075247417  0.7987353120079634  0.6045095382725947  1.0000
  C   C85       1.0  0.9161112070338221  0.10451883941036744  0.2987269543336595  1.0000
  C   C86       1.0  0.09675655318837778  0.39548674670844963  0.18840321084472578  1.0000
  C   C87       1.0  0.903248337410915  0.21487480479053286  0.2012462546074189  1.0000
  C   C88       1.0  0.08387820961871736  0.2851267392773876  0.3116299785041934  1.0000
  O   O1        1.0  4.052720115101121e-06  2.2496236339889152e-07  0.49999536668047284  1.0000
  O   O2        1.0  0.15580415836364384  0.027907216226864803  0.4275302133696499  1.0000
  O   O3        1.0  0.05188592024884998  0.15331752723268008  0.3707470184564984  1.0000
  O   O4        1.0  0.9634661540132115  0.9407185268171858  0.4088901852489002  1.0000
  O   O5        1.0  0.15580031815152753  0.1278912099062453  0.41667275920636376  1.0000
  O   O6        1.0  0.036475484928956636  0.9088701394039658  0.4407453609557662  1.0000
  O   O7        1.0  0.948117146103222  0.07736839715272474  0.39855571138231477  1.0000
  O   O8        1.0  0.844194417542653  0.9275343778553163  0.5279022699410376  1.0000
  O   O9        1.0  0.948123835571458  0.870750194576722  0.6533175836750049  1.0000
  O   O10       1.0  0.8442062603141737  0.9166656507487259  0.6278920433163081  1.0000
  O   O11       1.0  0.05188232465138055  0.8985586217143505  0.5773650165200833  1.0000
  O   O12       1.0  0.0364969524516567  0.1276249430978851  0.5227570451258148  1.0000
  O   O13       1.0  0.9635018656196835  0.022766879014675074  0.6276139474261486  1.0000
  O   O14       1.0  2.4989224555677096e-06  0.5000030525420198  0.999997602652684  1.0000
  O   O15       1.0  0.9554411491509925  0.5833347544357962  0.07246742528799649  1.0000
  O   O16       1.0  0.024078760273923163  0.42263722706611867  0.12924743106803055  1.0000
  O   O17       1.0  0.8496198194795282  0.37236864892881266  0.09112451951030216  1.0000
  O   O18       1.0  0.04456678650188202  0.5724664188738373  0.08333108413226849  1.0000
  O   O19       1.0  0.8496159720758313  0.47721973394458655  0.05926620663039732  1.0000
  O   O20       1.0  0.9759395568335093  0.3466849611055947  0.10143256864795086  1.0000
  O   O21       1.0  0.9554333080940156  0.3721060749093184  0.9720960929307622  1.0000
  O   O22       1.0  0.024062022785969427  0.6014349456551215  0.8466822351788822  1.0000
  O   O23       1.0  0.044554444640063084  0.47208697189351057  0.872105949266448  1.0000
  O   O24       1.0  0.9759255195118187  0.6292462601592418  0.9226320075065929  1.0000
  O   O25       1.0  0.15038982393953407  0.5592707115716706  0.9772313768100178  1.0000
  O   O26       1.0  0.15037951513683379  0.5911240808076244  0.872375436319942  1.0000
  O   O27       1.0  0.8489051441518142  0.775428389083366  0.8114703709276514  1.0000
  O   O28       1.0  0.9416911413285052  0.8659432920328456  0.7823559202537494  1.0000
  O   O29       1.0  0.08691481622701501  0.6603958853696098  0.6885097269384987  1.0000
  O   O30       1.0  0.14829916782029795  0.7240370343221229  0.7176624983703164  1.0000
  O   O31       1.0  0.9130745722635966  0.72455832163169  0.9265240248466711  1.0000
  O   O32       1.0  0.8516875203013188  0.6340441248771073  0.9242410348343314  1.0000
  O   O33       1.0  0.15109478961785083  0.8396078536161582  0.573484151602912  1.0000
  O   O34       1.0  0.05830922203323053  0.7759388548724786  0.5757463367574687  1.0000
  O   O35       1.0  0.8488999373932701  0.07348832722709625  0.33959741421335826  1.0000
  O   O36       1.0  0.9416791054878643  0.07575942549153349  0.27592868329919895  1.0000
  O   O37       1.0  0.08691566711877387  0.4265151490968788  0.22458788025241463  1.0000
  O   O38       1.0  0.14831349767768381  0.424246883141329  0.13407542285637677  1.0000
  O   O39       1.0  0.913089313265175  0.18853413683653047  0.1603705162255266  1.0000
  O   O40       1.0  0.8517015563783302  0.2176695781826296  0.22402432560105007  1.0000
  O   O41       1.0  0.15109487140749422  0.3114755639481075  0.27544609379933854  1.0000
  O   O42       1.0  0.05830377941173026  0.2823270202072762  0.36597394183261406  1.0000
  F   F1        1.0  0.08532633404993822  0.6776863584163164  0.2205404761850431  1.0000
  F   F2        1.0  0.9146746183303305  0.7204803426789607  0.17774946101554462  1.0000
  F   F3        1.0  0.07980424708691179  0.7755344074967139  0.33200546664004105  1.0000
  F   F4        1.0  0.9201494388434242  0.8319749360556442  0.27553367066710177  1.0000
  F   F5        1.0  0.9146689568561968  0.19413800797163827  0.9076457953725239  1.0000
  F   F6        1.0  0.0853143364106046  0.4075554487800375  0.6941939502935669  1.0000
  F   F7        1.0  0.9201607460768954  0.08816609062520794  0.8042978968410213  1.0000
  F   F8        1.0  0.07981241751711823  0.3042795792940821  0.5882036565923414  1.0000
  F   F9        1.0  0.6075292569023176  0.1957005904622236  0.2244519160917803  1.0000
  F   F10       1.0  0.607536705156207  0.41180745822719445  0.1679847883176038  1.0000
  F   F11       1.0  0.3982368755159413  0.09242560091061594  0.3222452512023962  1.0000
  F   F12       1.0  0.3982231343704683  0.3058439318305872  0.2794711702339471  1.0000
  F   F13       1.0  0.3924642704274604  0.7244618604197298  0.6957057853763047  1.0000
  F   F14       1.0  0.39248062073806256  0.6679983099287126  0.9118133746887551  1.0000
  F   F15       1.0  0.6017526209108297  0.8222527529967891  0.5924195935754567  1.0000
  F   F16       1.0  0.601794152248644  0.7794705682393754  0.8058457413305362  1.0000
