data_image0
_chemical_formula_structural       K4H20C32O8
_chemical_formula_sum              "K4 H20 C32 O8"
_cell_length_a       3.863370090051499
_cell_length_b       11.320825506390095
_cell_length_c       16.21987365674923
_cell_angle_alpha    93.43133800950338
_cell_angle_beta     90.00046100195092
_cell_angle_gamma    89.9996030323668

_space_group_name_H-M_alt    "P 1"
_space_group_IT_number       1

loop_
  _space_group_symop_operation_xyz
  'x, y, z'

loop_
  _atom_site_type_symbol
  _atom_site_label
  _atom_site_symmetry_multiplicity
  _atom_site_fract_x
  _atom_site_fract_y
  _atom_site_fract_z
  _atom_site_occupancy
  K   K1        1.0  0.31473281352760557  0.37725316727480157  0.06353855678050731  1.0000
  K   K2        1.0  0.8147410438092281  0.1227467393293225  0.9364594225284935  1.0000
  K   K3        1.0  0.685250571976944  0.6227464799356001  0.9364620784242988  1.0000
  K   K4        1.0  0.18526822573218032  0.8772591162666925  0.063539023109314  1.0000
  H   H1        1.0  0.37633361770385687  0.7759489031482969  0.2530863443208348  1.0000
  H   H2        1.0  0.8763359876905384  0.7240518398222733  0.7469161421222026  1.0000
  H   H3        1.0  0.6236678867277448  0.22405073349461446  0.7469161400281551  1.0000
  H   H4        1.0  0.12366292833781503  0.27594779330766533  0.2530869586002993  1.0000
  H   H5        1.0  0.2603134278276755  0.7366671876117291  0.399361653260094  1.0000
  H   H6        1.0  0.7603204214375053  0.7633320486033455  0.6006393095471483  1.0000
  H   H7        1.0  0.739682899797316  0.26332803153223944  0.6006394012518045  1.0000
  H   H8        1.0  0.23968367141399946  0.23666582173801484  0.3993624795960856  1.0000
  H   H9        1.0  0.720880479144114  0.39045473282583026  0.3592579961443932  1.0000
  H   H10       1.0  0.22088679478656564  0.1095444995015882  0.640739155832151  1.0000
  H   H11       1.0  0.2791132599692433  0.609543165653612  0.6407388619823778  1.0000
  H   H12       1.0  0.7791198864181652  0.8904542733233425  0.3592595908502006  1.0000
  H   H13       1.0  0.8275099176586879  0.43031498361035847  0.21413053677231636  1.0000
  H   H14       1.0  0.32751675953615234  0.0696884273962652  0.7858688563050154  1.0000
  H   H15       1.0  0.17248382144433802  0.5696873288579025  0.7858683675626923  1.0000
  H   H16       1.0  0.6724925100677199  0.930312996631763  0.21413062500393928  1.0000
  H   H17       1.0  0.26966334680928844  0.6109537910583853  0.5109063073136257  1.0000
  H   H18       1.0  0.7696666144697206  0.8890445466518739  0.4890934004116688  1.0000
  H   H19       1.0  0.7303329807677842  0.38904320844761026  0.48909297690289594  1.0000
  H   H20       1.0  0.23033488994102672  0.1109550970227033  0.5109078511855716  1.0000
  C   C1        1.0  0.7065137575515339  0.6304223531493207  0.1359018005303199  1.0000
  C   C2        1.0  0.20650938122417983  0.8695796705881235  0.8640967166789937  1.0000
  C   C3        1.0  0.29348515838297123  0.3695773116231037  0.8640957528093056  1.0000
  C   C4        1.0  0.7934869463133866  0.1304226348456226  0.1359034204101306  1.0000
  C   C5        1.0  0.621480913755981  0.6074812812030855  0.22425179406946685  1.0000
  C   C6        1.0  0.1214808577162572  0.8925200382404839  0.7757477610605508  1.0000
  C   C7        1.0  0.37852059061516746  0.3925192579262458  0.7757476478162675  1.0000
  C   C8        1.0  0.8785206466923869  0.10747872404265732  0.2242528347446893  1.0000
  C   C9        1.0  0.4563970939630694  0.6923619287685056  0.27703999499677684  1.0000
  C   C10       1.0  0.9564047238395477  0.8076395329675564  0.7229608280756709  1.0000
  C   C11       1.0  0.5435966452045308  0.30763683352321175  0.7229606008013718  1.0000
  C   C12       1.0  0.043601957379820505  0.1923609991244035  0.27703984656654523  1.0000
  C   C13       1.0  0.39207921170208243  0.6701205657584666  0.3590992513325517  1.0000
  C   C14       1.0  0.8920810345412421  0.8298766168997248  0.6409006407210216  1.0000
  C   C15       1.0  0.6079222927023552  0.32987643374181636  0.6409000328886949  1.0000
  C   C16       1.0  0.10792564668433612  0.1701221488935403  0.35909933871307237  1.0000
  C   C17       1.0  0.4931998218148196  0.5625637683578617  0.39166171993846194  1.0000
  C   C18       1.0  0.9932035390196249  0.9374376191982067  0.6083379376448834  1.0000
  C   C19       1.0  0.5067965057539254  0.43743411605539256  0.6083376036941743  1.0000
  C   C20       1.0  0.006803142180999101  0.06256380131685549  0.3916621600375834  1.0000
  C   C21       1.0  0.6480438662719125  0.4761466274815546  0.33730689572865913  1.0000
  C   C22       1.0  0.14805783931400643  0.0238536364166251  0.66269262804731  1.0000
  C   C23       1.0  0.35194210762335854  0.5238521453662202  0.6626918509347635  1.0000
  C   C24       1.0  0.8519566071442953  0.9761460142753363  0.3373073908100111  1.0000
  C   C25       1.0  0.7089191639349652  0.4981982187325044  0.2554654505591928  1.0000
  C   C26       1.0  0.2089363444186247  0.0018045620289512997  0.744534919108837  1.0000
  C   C27       1.0  0.2910668099540956  0.5018023204139652  0.7445339913123449  1.0000
  C   C28       1.0  0.7910781020230432  0.9981968584775344  0.255465178580728  1.0000
  C   C29       1.0  0.43467484922746286  0.5446197914951157  0.47867326266165844  1.0000
  C   C30       1.0  0.9346804449426928  0.9553781820664539  0.5213267466657144  1.0000
  C   C31       1.0  0.5653214783766812  0.4553754346805193  0.5213265590984975  1.0000
  C   C32       1.0  0.06532623628499581  0.0446214651182473  0.47867388856037973  1.0000
  O   O1        1.0  0.8178208244734081  0.543501807811097  0.08958320746432952  1.0000
  O   O2        1.0  0.3178291867217736  0.9564990783417783  0.910416706533866  1.0000
  O   O3        1.0  0.1821703262325798  0.4564987348454963  0.9104156180360692  1.0000
  O   O4        1.0  0.6821800828571368  0.043505000408046605  0.0895828930234543  1.0000
  O   O5        1.0  0.6637724029648452  0.7344495720843157  0.11149487876522812  1.0000
  O   O6        1.0  0.16376319714427723  0.7655543052467736  0.8885054882789803  1.0000
  O   O7        1.0  0.33622651298639994  0.26555273334657414  0.8885052583262621  1.0000
  O   O8        1.0  0.8362253651689927  0.2344506408539928  0.11149723255491042  1.0000
