data_image0
_chemical_formula_structural       Zn2H16C20S4N4Cl4
_chemical_formula_sum              "Zn2 H16 C20 S4 N4 Cl4"
_cell_length_a       7.8893226348637695
_cell_length_b       7.8893241356271835
_cell_length_c       10.98920291332044
_cell_angle_alpha    88.31977857079808
_cell_angle_beta     88.31975317537739
_cell_angle_gamma    77.27948324235109

_space_group_name_H-M_alt    "P 1"
_space_group_IT_number       1

loop_
  _space_group_symop_operation_xyz
  'x, y, z'

loop_
  _atom_site_type_symbol
  _atom_site_label
  _atom_site_symmetry_multiplicity
  _atom_site_fract_x
  _atom_site_fract_y
  _atom_site_fract_z
  _atom_site_occupancy
  Zn  Zn1       1.0  0.950807775607146  0.04919281265990349  0.7499997687337514  1.0000
  Zn  Zn2       1.0  0.0491925000503741  0.9508077915986276  0.24999995914517836  1.0000
  H   H1        1.0  0.9386824945645457  0.4112758896893709  0.8301417318363565  1.0000
  H   H2        1.0  0.5887249699298848  0.0613167748699368  0.6698569778140071  1.0000
  H   H3        1.0  0.061316512693437575  0.5887247160300504  0.1698580241325232  1.0000
  H   H4        1.0  0.41127558801518654  0.9386825279790967  0.33014186267426743  1.0000
  H   H5        1.0  0.795071556933884  0.6091344618877625  0.9904160137169526  1.0000
  H   H6        1.0  0.3908662342693318  0.20492668433900005  0.509584596112994  1.0000
  H   H7        1.0  0.2049277358603234  0.39086484567155105  0.009584674689058702  1.0000
  H   H8        1.0  0.6091343253000757  0.7950726201347249  0.49041515428916693  1.0000
  H   H9        1.0  0.5913468037112253  0.1801032948576662  0.14642210191748722  1.0000
  H   H10       1.0  0.8198959122728767  0.4086536471247084  0.35357763008926213  1.0000
  H   H11       1.0  0.4086534719462946  0.8198973094008578  0.8535776259614426  1.0000
  H   H12       1.0  0.18010309498510685  0.5913469585947126  0.6464221258796173  1.0000
  H   H13       1.0  0.7398565302904531  0.0015883495326250007  0.9745029601193738  1.0000
  H   H14       1.0  0.9984129517215337  0.2601427343054326  0.5254966166178648  1.0000
  H   H15       1.0  0.26014374699140325  0.9984122563505906  0.025497677673449504  1.0000
  H   H16       1.0  0.0015876078478810581  0.7398565701682924  0.47450313378429615  1.0000
  C   C1        1.0  0.8589898513465001  0.36542511938672817  0.9011350275692112  1.0000
  C   C2        1.0  0.6345759372492169  0.141009320162901  0.598864595200773  1.0000
  C   C3        1.0  0.14100915591148314  0.634575486332693  0.09886472839966841  1.0000
  C   C4        1.0  0.36542462232019096  0.858989984310824  0.401135155201395  1.0000
  C   C5        1.0  0.7789206429446695  0.4754266304833265  0.9919877752110153  1.0000
  C   C6        1.0  0.5245738812421622  0.22107751082070584  0.5080119121448946  1.0000
  C   C7        1.0  0.221078364313314  0.5245739752360945  0.008011980757864011  1.0000
  C   C8        1.0  0.4754266783272455  0.7789217936530191  0.4919878382572663  1.0000
  C   C9        1.0  0.6796942276297743  0.4102913633075146  0.08260572122411251  1.0000
  C   C10       1.0  0.5897084040838152  0.32030493211605193  0.4173949593144855  1.0000
  C   C11       1.0  0.3203047812525454  0.5897092440365981  0.9173949446586536  1.0000
  C   C12       1.0  0.41029088708605593  0.6796943738185702  0.5826048191776325  1.0000
  C   C13       1.0  0.6644107325278128  0.23752762284642867  0.07719192437910752  1.0000
  C   C14       1.0  0.7624725437279596  0.3355892232354661  0.42280779486821984  1.0000
  C   C15       1.0  0.33558954312970724  0.762472981412095  0.9228078034998219  1.0000
  C   C16       1.0  0.23752801584145533  0.664410081238259  0.5771919555339411  1.0000
  C   C17       1.0  0.7475957822241666  0.1372130492240444  0.9822888058715125  1.0000
  C   C18       1.0  0.8627883572369656  0.25240332950150446  0.5177107920668009  1.0000
  C   C19       1.0  0.25240322665815274  0.8627875581200681  0.0177118600112536  1.0000
  C   C20       1.0  0.13721220070809875  0.7475959733475291  0.4822880484214736  1.0000
  S   S1        1.0  0.5827836390637132  0.5555530440782944  0.19674795548992566  1.0000
  S   S2        1.0  0.4444462111363166  0.41721624662349643  0.3032527584559262  1.0000
  S   S3        1.0  0.4172153698186064  0.44444756326581814  0.8032527103928473  1.0000
  S   S4        1.0  0.5555527961216667  0.5827843590959247  0.6967469975129532  1.0000
  N   N1        1.0  0.8433853020067802  0.19901031395691146  0.8952599895382322  1.0000
  N   N2        1.0  0.8009901415139778  0.1566133819638011  0.6047396336144787  1.0000
  N   N3        1.0  0.1566137052511962  0.8009902917625096  0.10473976643064732  1.0000
  N   N4        1.0  0.19901041805542968  0.8433859225099237  0.39526011678768924  1.0000
  Cl  Cl1       1.0  0.8906618992052484  0.7885291269065319  0.786724863176147  1.0000
  Cl  Cl2       1.0  0.21147119748192716  0.10933831291321638  0.713274814414959  1.0000
  Cl  Cl3       1.0  0.1093383764522713  0.21147147735199204  0.2132748647027826  1.0000
  Cl  Cl4       1.0  0.7885278097760493  0.8906622928062118  0.2867249415539207  1.0000
