data_image0
_chemical_formula_structural       Ni16H124C156N20O64
_chemical_formula_sum              "Ni16 H124 C156 N20 O64"
_cell_length_a       13.130959221536564
_cell_length_b       18.253962361001303
_cell_length_c       21.78824499092616
_cell_angle_alpha    89.99995663985665
_cell_angle_beta     103.95418987093662
_cell_angle_gamma    90.00000937116883

_space_group_name_H-M_alt    "P 1"
_space_group_IT_number       1

loop_
  _space_group_symop_operation_xyz
  'x, y, z'

loop_
  _atom_site_type_symbol
  _atom_site_label
  _atom_site_symmetry_multiplicity
  _atom_site_fract_x
  _atom_site_fract_y
  _atom_site_fract_z
  _atom_site_occupancy
  Ni  Ni1       1.0  0.7689784717738775  0.7115890509689964  0.12884779430085297  1.0000
  Ni  Ni2       1.0  0.7310213590382303  0.2115879081885411  0.3711516847301652  1.0000
  Ni  Ni3       1.0  0.23102054479950596  0.28841152123546726  0.8711522419310995  1.0000
  Ni  Ni4       1.0  0.2689776630910997  0.7884110205377509  0.6288469754243521  1.0000
  Ni  Ni5       1.0  0.9825794554903948  0.7719857761189673  0.2111187511002228  1.0000
  Ni  Ni6       1.0  0.5174203719652226  0.27198523073023745  0.2888811481656361  1.0000
  Ni  Ni7       1.0  0.017418776368288  0.22801424825923536  0.7888811700063841  1.0000
  Ni  Ni8       1.0  0.4825786483121347  0.7280136979958415  0.7111179706815278  1.0000
  Ni  Ni9       1.0  0.9934843214169856  0.6123448105220177  0.23399440655220613  1.0000
  Ni  Ni10      1.0  0.5065170757408167  0.1123442845565918  0.26600674200138735  1.0000
  Ni  Ni11      1.0  0.0065146914524448  0.3876557616820264  0.7660065470650536  1.0000
  Ni  Ni12      1.0  0.4934842912727361  0.887656287647431  0.7339945569924281  1.0000
  Ni  Ni13      1.0  0.10467944977586537  0.6457474190599443  0.1246289316284503  1.0000
  Ni  Ni14      1.0  0.39532359072634177  0.14574629158105523  0.3753703650164936  1.0000
  Ni  Ni15      1.0  0.8953203589201588  0.3542509618402861  0.8753693849591072  1.0000
  Ni  Ni16      1.0  0.6046785628539196  0.8542520893181162  0.6246305904108806  1.0000
  H   H1        1.0  0.8470148571109063  0.9664191386198131  0.2807913901268648  1.0000
  H   H2        1.0  0.6529857502159969  0.4664192198552897  0.21920850045886203  1.0000
  H   H3        1.0  0.15298494602912874  0.03358362488990712  0.719208302537254  1.0000
  H   H4        1.0  0.34701561679757015  0.5335797088699438  0.7807927985354721  1.0000
  H   H5        1.0  0.7354450409528395  0.0686463696718249  0.3067870504349627  1.0000
  H   H6        1.0  0.7645555725787928  0.568646358061983  0.19321401081793246  1.0000
  H   H7        1.0  0.264553971916591  0.9313547503584871  0.6932139031821265  1.0000
  H   H8        1.0  0.23544265927991145  0.4313520228374301  0.8067859102892001  1.0000
  H   H9        1.0  0.47499994207516477  0.9969659579989242  0.1734422578358306  1.0000
  H   H10       1.0  0.02499915499262779  0.49696647506295494  0.32655899169851205  1.0000
  H   H11       1.0  0.5249982879315381  0.0030340663790724004  0.8265581219634369  1.0000
  H   H12       1.0  0.9749990787180277  0.5030340971417147  0.6734404707152705  1.0000
  H   H13       1.0  0.5752598326552628  0.8900801429943569  0.1432211073623293  1.0000
  H   H14       1.0  0.924739208995845  0.39007958358267564  0.3567781428887784  1.0000
  H   H15       1.0  0.42473997604071195  0.10992207268972008  0.8567772092240061  1.0000
  H   H16       1.0  0.0752613751549731  0.6099209886215675  0.6432225822868674  1.0000
  H   H17       1.0  0.37777209647880733  0.6455354459021764  0.08103250285762438  1.0000
  H   H18       1.0  0.12222781072571819  0.14553917764765603  0.41896495734071953  1.0000
  H   H19       1.0  0.6222285024878786  0.35446074369361474  0.918964552778185  1.0000
  H   H20       1.0  0.8777727752770939  0.8544602989042576  0.5810353091426136  1.0000
  H   H21       1.0  0.5609655354142473  0.634111641556963  0.06759844062722918  1.0000
  H   H22       1.0  0.9390358723131198  0.13411704149191914  0.4323999419085211  1.0000
  H   H23       1.0  0.43903740843670375  0.36588235673271907  0.9324012538490933  1.0000
  H   H24       1.0  0.06096393082696488  0.8658824350602147  0.567599750756642  1.0000
  H   H25       1.0  0.6850683224914462  0.7175252381389186  0.2467886627186786  1.0000
  H   H26       1.0  0.8149299405953341  0.21752585528697918  0.253210123588225  1.0000
  H   H27       1.0  0.3149283417897948  0.2824753340657652  0.7532105694440714  1.0000
  H   H28       1.0  0.1850722129848918  0.7824752647435105  0.7467908318382754  1.0000
  H   H29       1.0  0.5074095060772662  0.7232631496040939  0.26997304222685153  1.0000
  H   H30       1.0  0.9925871966970657  0.2232627127446705  0.23002321671247467  1.0000
  H   H31       1.0  0.49258481702372586  0.2767352312970105  0.7300226337114708  1.0000
  H   H32       1.0  0.007414174020453896  0.7767362159809822  0.7699771648965523  1.0000
  H   H33       1.0  0.0868201784524487  0.843305497222332  0.3981446401939976  1.0000
  H   H34       1.0  0.41317970160186224  0.3433068105390902  0.1018581983868714  1.0000
  H   H35       1.0  0.913177266839554  0.1566945271556648  0.6018556244797537  1.0000
  H   H36       1.0  0.586825587133248  0.6566932138384303  0.8981441349273567  1.0000
  H   H37       1.0  0.17486254446622948  0.868494502169149  0.5126420754974531  1.0000
  H   H38       1.0  0.3251387891763925  0.3684976478324559  0.9873603035219887  1.0000
  H   H39       1.0  0.8251380415365688  0.1315055222090322  0.4873581909857093  1.0000
  H   H40       1.0  0.6748657148439676  0.6315056635026509  0.012641914665671456  1.0000
  H   H41       1.0  0.19585737895175004  0.6488134128467992  0.5560299245162241  1.0000
  H   H42       1.0  0.30414082130440784  0.14881604748826763  0.9439721338832499  1.0000
  H   H43       1.0  0.8041408510549672  0.3511860637049296  0.4439704552832139  1.0000
  H   H44       1.0  0.6958542679914641  0.8511872638471304  0.056028244105554785  1.0000
  H   H45       1.0  0.11060429289563697  0.6137909258713138  0.4432029417203651  1.0000
  H   H46       1.0  0.3893940271505086  0.11379227717937111  0.05679889536756378  1.0000
  H   H47       1.0  0.8893931523963587  0.3862096463329507  0.5567973229532086  1.0000
  H   H48       1.0  0.6106042065601398  0.8862088428515594  0.9432005670460483  1.0000
  H   H49       1.0  0.18770759796421285  0.41529381139883276  0.3145972536285342  1.0000
  H   H50       1.0  0.31229150669400235  0.915294360235208  0.185402671832577  1.0000
  H   H51       1.0  0.8122906357464997  0.5847023781957289  0.685402208786641  1.0000
  H   H52       1.0  0.6877082871862042  0.08470402066335231  0.8145993142962097  1.0000
  H   H53       1.0  0.3243849165759442  0.31622380996146404  0.3415465346566151  1.0000
  H   H54       1.0  0.17561262667663866  0.8162260107512296  0.1584518475577994  1.0000
  H   H55       1.0  0.675613317134747  0.6837734752856264  0.6584529277582121  1.0000
  H   H56       1.0  0.8243840431605206  0.183775657106608  0.8415460085266416  1.0000
  H   H57       1.0  0.4901804250242065  0.40337098099072227  0.21996697869062123  1.0000
  H   H58       1.0  0.0098186836349683  0.9033714090325096  0.28003203697709006  1.0000
  H   H59       1.0  0.5098193707079586  0.596629591213109  0.7800345487448153  1.0000
  H   H60       1.0  0.9901787709169196  0.0966286153465319  0.7199659342333931  1.0000
  H   H61       1.0  0.36148275707516575  0.5063349338961273  0.18877123490221948  1.0000
  H   H62       1.0  0.13851557305566328  0.006336025861728001  0.3112288358377882  1.0000
  H   H63       1.0  0.6385170331010668  0.49366509048081053  0.8112316686113488  1.0000
  H   H64       1.0  0.8614795236481496  0.9936645463431834  0.688769707381276  1.0000
  H   H65       1.0  0.7293216386398241  0.547784225133249  0.9867984158294547  1.0000
  H   H66       1.0  0.7706827856234141  0.047782862932386615  0.5132021018699929  1.0000
  H   H67       1.0  0.2706773742296277  0.45221470359200566  0.013202537788323782  1.0000
  H   H68       1.0  0.2293209392382209  0.9522166136195054  0.4867986251154123  1.0000
  H   H69       1.0  0.7424434169654004  0.4572921300523518  0.903405738720778  1.0000
  H   H70       1.0  0.757557852682069  0.9572916572003507  0.5965954338001039  1.0000
  H   H71       1.0  0.25755559775603126  0.542706798673109  0.0965947562043539  1.0000
  H   H72       1.0  0.2424435180354364  0.0427083671778234  0.4034049478085747  1.0000
  H   H73       1.0  0.0122938385428029  0.36658779945360453  0.0145140722598143  1.0000
  H   H74       1.0  0.4877084098914749  0.8665880972547413  0.485485427331696  1.0000
  H   H75       1.0  0.9877075358786624  0.6334122249249888  0.9854853919635572  1.0000
  H   H76       1.0  0.5122945339594053  0.13341137929757713  0.5145142671428857  1.0000
  H   H77       1.0  0.014891462330986397  0.4580889895919996  0.101963892003063  1.0000
  H   H78       1.0  0.48511156483471735  0.9580893661950328  0.3980365818358536  1.0000
  H   H79       1.0  0.985109912090472  0.5419115826128547  0.8980355722201309  1.0000
  H   H80       1.0  0.5148905887455157  0.041911206009196206  0.6019643735908173  1.0000
  H   H81       1.0  0.8498646446432401  0.6985282748477816  0.25016843098946845  1.0000
  H   H82       1.0  0.6501351864942034  0.19852832805117526  0.24983105635762115  1.0000
  H   H83       1.0  0.1501343719301502  0.3014717495304141  0.7498316052426616  1.0000
  H   H84       1.0  0.3498646166458669  0.8014716963272265  0.7501686363073716  1.0000
  H   H85       1.0  0.15639216115779664  0.6972704348599025  0.2292536047242208  1.0000
  H   H86       1.0  0.3436085220648691  0.1972677525252564  0.27074577243003967  1.0000
  H   H87       1.0  0.8436076456861981  0.3027317808239688  0.7707451705547682  1.0000
  H   H88       1.0  0.656391277371263  0.8027311762001974  0.7292548376206085  1.0000
  H   H89       1.0  0.8187558523385545  0.8261205726168159  0.851662262389773  1.0000
  H   H90       1.0  0.681243070136297  0.32611962559551  0.6483377308928978  1.0000
  H   H91       1.0  0.1812423795201212  0.17388054741391565  0.1483376587164926  1.0000
  H   H92       1.0  0.31875673485575357  0.6738803987830977  0.3516615030794411  1.0000
  H   H93       1.0  0.8059365817031644  0.9565289590104911  0.8770494959186903  1.0000
  H   H94       1.0  0.6940654763819791  0.45652803644537693  0.6229508748284971  1.0000
  H   H95       1.0  0.1940624311662589  0.0434721610198139  0.1229514576983988  1.0000
  H   H96       1.0  0.3059335420433839  0.5434725357592926  0.37704870271080887  1.0000
  H   H97       1.0  0.8614812886002311  0.0014184735422020003  0.9874326153174023  1.0000
  H   H98       1.0  0.6385215710925319  0.501417515022041  0.5125667842689694  1.0000
  H   H99       1.0  0.13852086498000196  0.9985820986620197  0.012568340109275796  1.0000
  H   H100      1.0  0.3614790167622601  0.4985814137038176  0.4874330235218878  1.0000
  H   H101      1.0  0.7623699699726101  0.7102273733134864  0.8562767258770236  1.0000
  H   H102      1.0  0.7376328845186035  0.21022917615913175  0.6437225407493941  1.0000
  H   H103      1.0  0.23763297573024283  0.2897721032390379  0.14372250990490434  1.0000
  H   H104      1.0  0.26236535104401065  0.7897724916982796  0.3562764629713867  1.0000
  H   H105      1.0  0.849464554755812  0.6343309695118079  0.8793902762366698  1.0000
  H   H106      1.0  0.6505382923661427  0.13433168747753405  0.6206113321803954  1.0000
  H   H107      1.0  0.15053760067639388  0.36566960269261983  0.12061022049734758  1.0000
  H   H108      1.0  0.3494615089219336  0.865669980379444  0.3793888191767251  1.0000
  H   H109      1.0  0.8929109894423988  0.7149348568545691  0.8455282501208002  1.0000
  H   H110      1.0  0.6070910746609214  0.2149360869610462  0.6544722744607512  1.0000
  H   H111      1.0  0.10709117154573987  0.28506516752422334  0.1544708705354338  1.0000
  H   H112      1.0  0.3929079419124477  0.7850655808959391  0.3455277617708532  1.0000
  H   H113      1.0  0.9631383918171963  0.026926775115597896  0.08277491762953557  1.0000
  H   H114      1.0  0.5368692870380299  0.5269254387245397  0.41722674762572604  1.0000
  H   H115      1.0  0.036867689040512595  0.9730743449152756  0.9172256960392389  1.0000
  H   H116      1.0  0.46313286654219604  0.4730751334796893  0.582774207800945  1.0000
  H   H117      1.0  0.9524755746693071  0.9890509994071979  0.1568847729875102  1.0000
  H   H118      1.0  0.5475313153673935  0.4890520519422524  0.3431146481132501  1.0000
  H   H119      1.0  0.047529728881627896  0.010947929319456802  0.843113890785837  1.0000
  H   H120      1.0  0.45247240949419876  0.5109507115672188  0.6568860788711106  1.0000
  H   H121      1.0  0.8369062796795673  0.9990882940423237  0.09375365026547658  1.0000
  H   H122      1.0  0.6631013818579987  0.49908711161175745  0.4062490904188322  1.0000
  H   H123      1.0  0.16310058404089026  0.0009111825095403001  0.9062475372219936  1.0000
  H   H124      1.0  0.33690155458494786  0.5009145562447872  0.5937524388256675  1.0000
  C   C1        1.0  0.778386506226603  0.8546757630182642  0.19593655208924327  1.0000
  C   C2        1.0  0.7216117497397434  0.3546768711345366  0.3040630642722064  1.0000
  C   C3        1.0  0.22161172378009297  0.1453253570122612  0.8040638277096689  1.0000
  C   C4        1.0  0.2783888362630477  0.6453237010699127  0.6959372022107786  1.0000
  C   C5        1.0  0.7184773650623909  0.9199377479242301  0.21050762745706914  1.0000
  C   C6        1.0  0.7815216758449492  0.41993778053969083  0.289491603782011  1.0000
  C   C7        1.0  0.28152165891886927  0.08006501558611492  0.7894905740035724  1.0000
  C   C8        1.0  0.21847969487257046  0.5800616960122228  0.7105087778268384  1.0000
  C   C9        1.0  0.7646433378839248  0.9713912160909784  0.2562645958669946  1.0000
  C   C10       1.0  0.7353564827524293  0.47139238037717485  0.24373563511955607  1.0000
  C   C11       1.0  0.2353564652561388  0.0286099039399446  0.7437350967976499  1.0000
  C   C12       1.0  0.2646425319689951  0.5286065483482857  0.7562648598055759  1.0000
  C   C13       1.0  0.7034332684532671  0.027877701354270805  0.2708108174701493  1.0000
  C   C14       1.0  0.7965673497978754  0.527878208752881  0.22918935235672672  1.0000
  C   C15       1.0  0.2965665346867894  0.9721239665029201  0.7291888751943175  1.0000
  C   C16       1.0  0.2034308783568477  0.4721223634511702  0.7708114861350168  1.0000
  C   C17       1.0  0.5573698902780676  0.9875093756995383  0.19583004912728086  1.0000
  C   C18       1.0  0.9426283568234196  0.48750941378347096  0.3041708587306573  1.0000
  C   C19       1.0  0.44262833972861415  0.012492839983515597  0.8041703306712832  1.0000
  C   C20       1.0  0.0573706578979696  0.5124922540733082  0.6958296361936007  1.0000
  C   C21       1.0  0.6129991121195815  0.9292020458537991  0.1792908885499997  1.0000
  C   C22       1.0  0.886999923001049  0.42920261033042817  0.32070971286783123  1.0000
  C   C23       1.0  0.38699990815774743  0.070799622003598  0.8207082302962972  1.0000
  C   C24       1.0  0.11299987273111604  0.570797961873403  0.6792918145675982  1.0000
  C   C25       1.0  0.3169354626647802  0.6947241679558759  0.1845254136106078  1.0000
  C   C26       1.0  0.18306602015190515  0.19471594821989413  0.3154704107510397  1.0000
  C   C27       1.0  0.6830643571429815  0.305284073818342  0.8154701508178874  1.0000
  C   C28       1.0  0.816936137132316  0.8052813370271608  0.6845296272913757  1.0000
  C   C29       1.0  0.4280249761830388  0.6864930884947142  0.1763679051224685  1.0000
  C   C30       1.0  0.07197257770911139  0.1864941614993896  0.3236287249277368  1.0000
  C   C31       1.0  0.5719701316326462  0.3135063880589115  0.8236278859410218  1.0000
  C   C32       1.0  0.9280272235790005  0.8135047672262701  0.6763714264302578  1.0000
  C   C33       1.0  0.4447944158539982  0.6600769328408944  0.11929864551424169  1.0000
  C   C34       1.0  0.05520391970690498  0.16008123922828335  0.38069903386625015  1.0000
  C   C35       1.0  0.5552038289685582  0.3399203524074395  0.8806980647446706  1.0000
  C   C36       1.0  0.9447958815811786  0.8399198808024337  0.6193011174910481  1.0000
  C   C37       1.0  0.5464968432206518  0.6546808535432406  0.11159568319983036  1.0000
  C   C38       1.0  0.9535014288394804  0.15468410365576096  0.3884013083517813  1.0000
  C   C39       1.0  0.4535037483381074  0.3453169795305087  0.8884032072060676  1.0000
  C   C40       1.0  0.04649758773390999  0.8453159207224348  0.6115987278803416  1.0000
  C   C41       1.0  0.6154050366503581  0.7001208096268388  0.2115405802306967  1.0000
  C   C42       1.0  0.8845932324258712  0.20012414212835244  0.2884568410796504  1.0000
  C   C43       1.0  0.384591629482891  0.2998775712730009  0.7884581932400963  1.0000
  C   C44       1.0  0.1154073554289141  0.799875882250042  0.7115429667108586  1.0000
  C   C45       1.0  0.5164994149203677  0.70448642568563  0.2241062755319803  1.0000
  C   C46       1.0  0.9834988558991354  0.20448594627855954  0.2758906843071216  1.0000
  C   C47       1.0  0.4834956873393565  0.29551524217242087  0.7758908916087747  1.0000
  C   C48       1.0  0.016502516670343  0.7955146259260885  0.724109238608726  1.0000
  C   C49       1.0  0.0465015995190825  0.7109441203836013  0.3434021601577655  1.0000
  C   C50       1.0  0.4534974991177022  0.21094484104701647  0.15660064757888387  1.0000
  C   C51       1.0  0.9534958439209616  0.2890542605153996  0.6565985632091581  1.0000
  C   C52       1.0  0.5465030831811575  0.7890546355044847  0.8434005362897565  1.0000
  C   C53       1.0  0.09176969635049659  0.7264497663795453  0.41240430308729964  1.0000
  C   C54       1.0  0.408229405603997  0.22644999636712268  0.0875975773909801  1.0000
  C   C55       1.0  0.9082277526454586  0.2735502579988704  0.5875950442011444  1.0000
  C   C56       1.0  0.5917719632615286  0.7735505758371135  0.9124032629101748  1.0000
  C   C57       1.0  0.10909223525195699  0.7990860427245183  0.4322628544197258  1.0000
  C   C58       1.0  0.39090686118917256  0.299086836485806  0.06773989719253137  1.0000
  C   C59       1.0  0.8909052100400527  0.20091343382721763  0.5677374102541961  1.0000
  C   C60       1.0  0.6090960771057539  0.7009142835446768  0.9322611733594854  1.0000
  C   C61       1.0  0.15707129341525664  0.8131793956431181  0.49491273421424614  1.0000
  C   C62       1.0  0.34292858738948684  0.31318243179794086  0.0050901235488680745  1.0000
  C   C63       1.0  0.842927723158148  0.18681953308254862  0.5050873020182323  1.0000
  C   C64       1.0  0.657073564338752  0.6868192360586037  0.9949112905701156  1.0000
  C   C65       1.0  0.16960645902792487  0.6898938237247593  0.5194723792668725  1.0000
  C   C66       1.0  0.3303917402049095  0.1898958805255972  0.9805296529748303  1.0000
  C   C67       1.0  0.8303909862640849  0.31010565282697666  0.48052788540704927  1.0000
  C   C68       1.0  0.6696064879498067  0.8101057873309826  0.01947118551656509  1.0000
  C   C69       1.0  0.12171499531245897  0.6709916516528693  0.45729707012151266  1.0000
  C   C70       1.0  0.37828332701275247  0.17099301441767517  0.042703813158539085  1.0000
  C   C71       1.0  0.8782840212609313  0.3290083727253262  0.5427029661106104  1.0000
  C   C72       1.0  0.6217149011419635  0.8290081056126368  0.957297025333034  1.0000
  C   C73       1.0  0.18264640637837454  0.5277368349956505  0.22667716467275767  1.0000
  C   C74       1.0  0.3173550546702585  0.02773633857928811  0.2733251877127714  1.0000
  C   C75       1.0  0.8173526083430431  0.4722626415560783  0.7733233302521967  1.0000
  C   C76       1.0  0.6826439600511588  0.9722631379724337  0.726675307212183  1.0000
  C   C77       1.0  0.263340687956557  0.4684390192824709  0.24869934494588358  1.0000
  C   C78       1.0  0.23665763251505464  0.9684400475354878  0.2512999728566924  1.0000
  C   C79       1.0  0.7366583230609292  0.5315593616163101  0.7513020673647259  1.0000
  C   C80       1.0  0.7633405974916696  0.031558881189980105  0.7487004069429233  1.0000
  C   C81       1.0  0.2541877742012558  0.414737233612506  0.2928633126543616  1.0000
  C   C82       1.0  0.24580898003064522  0.9147388507064347  0.20713535039894987  1.0000
  C   C83       1.0  0.7458088882280762  0.5852578603293354  0.707136378202783  1.0000
  C   C84       1.0  0.7541900346907794  0.08526062584528661  0.7928651445260043  1.0000
  C   C85       1.0  0.3298866874023929  0.35964727421323067  0.3080929145547131  1.0000
  C   C86       1.0  0.17011007005378787  0.8596494441016777  0.19190532488430986  1.0000
  C   C87       1.0  0.6701107597416323  0.6403489153811321  0.6919068914275996  1.0000
  C   C88       1.0  0.8298881673608135  0.1403516759296792  0.8080932201439949  1.0000
  C   C89       1.0  0.42206173579963746  0.40850300453420374  0.2397173853019297  1.0000
  C   C90       1.0  0.07793658246104938  0.9085040061934604  0.2602828880502202  1.0000
  C   C91       1.0  0.577938061784529  0.5914953763647759  0.7602836834415426  1.0000
  C   C92       1.0  0.9220592971054912  0.09149601818496932  0.7397162289871914  1.0000
  C   C93       1.0  0.3505462101529843  0.4649603394054226  0.22255519362432344  1.0000
  C   C94       1.0  0.1494513293945303  0.9649613338625402  0.2774430938824892  1.0000
  C   C95       1.0  0.6494520142978004  0.5350391371456811  0.7774465622530755  1.0000
  C   C96       1.0  0.8505445520239902  0.035038690516096004  0.7225555644622617  1.0000
  C   C97       1.0  0.8776766306435632  0.572004034852192  0.09805723112238238  1.0000
  C   C98       1.0  0.6223271272192078  0.0720017559189685  0.401942912417347  1.0000
  C   C99       1.0  0.1223247437778738  0.42799818083145175  0.9019422331002929  1.0000
  C   C100      1.0  0.37767424349829776  0.9279988162854733  0.5980574691911542  1.0000
  C   C101      1.0  0.873524900026666  0.5115979930381586  0.05072695509080203  1.0000
  C   C102      1.0  0.6264788556368612  0.011597863079060702  0.4492741442970995  1.0000
  C   C103      1.0  0.1264741146947443  0.4884020313398311  0.9492735398339817  1.0000
  C   C104      1.0  0.37352486737277246  0.9884032569514148  0.5507270413804335  1.0000
  C   C105      1.0  0.7938204827854205  0.5089679952115846  0.9950934500574461  1.0000
  C   C106      1.0  0.7061823730153234  0.0089671808354552  0.5049068621070275  1.0000
  C   C107      1.0  0.20617853193601116  0.49103038568761553  0.004907044867863397  1.0000
  C   C108      1.0  0.2938197805649167  0.991032295716245  0.4950940933199917  1.0000
  C   C109      1.0  0.7998868553020413  0.4584891133417556  0.9485963118038611  1.0000
  C   C110      1.0  0.7001151990303212  0.958488126857539  0.5514049750805156  1.0000
  C   C111      1.0  0.20011294413408354  0.541510363209959  0.05140429824660939  1.0000
  C   C112      1.0  0.2998869545499402  0.04151025404163279  0.4485959803468517  1.0000
  C   C113      1.0  0.9523121688035088  0.40877814794050243  0.010277406061327076  1.0000
  C   C114      1.0  0.5476900093886525  0.9087789385354557  0.4897227514781121  1.0000
  C   C115      1.0  0.04768763248459609  0.5912213286114181  0.98972274529649  1.0000
  C   C116      1.0  0.4523121460435532  0.09122163366897951  0.5102777452559053  1.0000
  C   C117      1.0  0.952260466550733  0.4583876289339202  0.05886541018773533  1.0000
  C   C118      1.0  0.5477417104056596  0.9583873678336587  0.44113471576319796  1.0000
  C   C119      1.0  0.04774012130405229  0.5416123954444743  0.9411343976027736  1.0000
  C   C120      1.0  0.45226044317458036  0.04161265654430219  0.5588662396636508  1.0000
  C   C121      1.0  0.9526655067223754  0.7654442460301142  0.06725448055753691  1.0000
  C   C122      1.0  0.5473343227481777  0.26544357398692153  0.4327449641810333  1.0000
  C   C123      1.0  0.047333511703001784  0.2345552305220195  0.932745096982117  1.0000
  C   C124      1.0  0.45266548224386577  0.7345569982179472  0.5672542697911283  1.0000
  C   C125      1.0  0.9116944175180989  0.817632389159087  0.013490188897179648  1.0000
  C   C126      1.0  0.5883046240857438  0.3176311254231621  0.486509566177915  1.0000
  C   C127      1.0  0.08830616478074657  0.18236763521868232  0.9865109949712904  1.0000
  C   C128      1.0  0.41169439804356495  0.6823699946081804  0.5134890939759059  1.0000
  C   C129      1.0  0.8793828683008013  0.7939932604151139  0.950024162777673  1.0000
  C   C130      1.0  0.6206152702596553  0.29399129966211757  0.5499757358368667  1.0000
  C   C131      1.0  0.12061771770198956  0.20600731178933532  0.04997610370531191  1.0000
  C   C132      1.0  0.37938532129908237  0.7060087247166891  0.45002315456833486  1.0000
  C   C133      1.0  0.8426156686802382  0.8439774967106434  0.9007232048505925  1.0000
  C   C134      1.0  0.657386390356656  0.3439743999868626  0.5992776962570828  1.0000
  C   C135      1.0  0.1573849191745181  0.15602417114654094  0.0992766029393906  1.0000
  C   C136      1.0  0.34261498221283654  0.6560250765652569  0.4007222266591199  1.0000
  C   C137      1.0  0.8357211002600309  0.9178584353135975  0.9152852576912522  1.0000
  C   C138      1.0  0.6642825282178393  0.41785590039094  0.5847153679309329  1.0000
  C   C139      1.0  0.16427791446137255  0.08214213689065279  0.0847152372333539  1.0000
  C   C140      1.0  0.3357180577849804  0.5821430283347127  0.41528489855257783  1.0000
  C   C141      1.0  0.904729921579843  0.8931989899581227  0.026313522368127475  1.0000
  C   C142      1.0  0.5952714722857306  0.3931971908059282  0.473686529966649  1.0000
  C   C143      1.0  0.09527223570433559  0.1068021300727864  0.9736865156730659  1.0000
  C   C144      1.0  0.4047299021357347  0.6068022857464044  0.5263129342568931  1.0000
  C   C145      1.0  0.8658661006781754  0.943266591080466  0.9774198376092613  1.0000
  C   C146      1.0  0.6341343846039746  0.44326575233372284  0.5225812287169872  1.0000
  C   C147      1.0  0.13413448532462977  0.056733433297715435  0.022580428873901298  1.0000
  C   C148      1.0  0.36586306253999357  0.5567348198707479  0.4774185772639327  1.0000
  C   C149      1.0  0.8443525342271555  0.6941744159719293  0.876402821376054  1.0000
  C   C150      1.0  0.6556503095520867  0.1941756796561833  0.6235992076281747  1.0000
  C   C151      1.0  0.1556504040677851  0.30582560840603185  0.123598249176311  1.0000
  C   C152      1.0  0.34434870887325525  0.8058259882010078  0.37640036991077597  1.0000
  C   C153      1.0  0.9216016261786206  0.9867348113987972  0.10552069702496414  1.0000
  C   C154      1.0  0.5784060430745724  0.486734177584431  0.3944802167546442  1.0000
  C   C155      1.0  0.07840524124577537  0.013265760806014304  0.8944795730768575  1.0000
  C   C156      1.0  0.4215976799350542  0.5132674902723052  0.6055209689227183  1.0000
  N   N1        1.0  0.6009575472976961  0.035222963001501705  0.24192643177369888  1.0000
  N   N2        1.0  0.8990430652145417  0.535223456195425  0.2580751094540402  1.0000
  N   N3        1.0  0.3990414637197687  0.9647770613760683  0.7580749805363851  1.0000
  N   N4        1.0  0.10095517034810798  0.46477547253066126  0.7419238942676146  1.0000
  N   N5        1.0  0.6313278204889201  0.6766788020682881  0.1558901449474561  1.0000
  N   N6        1.0  0.8686720167486965  0.1766815345508093  0.34410798023346695  1.0000
  N   N7        1.0  0.3686711997884302  0.32332067448405893  0.8441089738995372  1.0000
  N   N8        1.0  0.1313293539687947  0.8233195854798936  0.6558924013748636  1.0000
  N   N9        1.0  0.18775776909643577  0.7600572128484446  0.5382578362027316  1.0000
  N   N10       1.0  0.31224199781799905  0.26005983235627644  0.9617443816132932  1.0000
  N   N11       1.0  0.8122412493289346  0.23994226370369637  0.46174174133692236  1.0000
  N   N12       1.0  0.6877585844808178  0.7399429311528112  0.03825680225430259  1.0000
  N   N13       1.0  0.41244671416335166  0.35605738546844634  0.28165229359589716  1.0000
  N   N14       1.0  0.08754925496360497  0.8560589740062597  0.2183467503889602  1.0000
  N   N15       1.0  0.5875499445619992  0.643940447604301  0.7183483146456877  1.0000
  N   N16       1.0  0.9124481958843234  0.14394159819863012  0.7816521382066526  1.0000
  N   N17       1.0  0.8796346650413225  0.4105055605754586  0.9547536768613937  1.0000
  N   N18       1.0  0.6203666094755745  0.9105051182083626  0.5452466080655184  1.0000
  N   N19       1.0  0.1203667056762043  0.5894933681501869  0.04524670474763329  1.0000
  N   N20       1.0  0.37963397467528637  0.08949216703829423  0.4547541171111718  1.0000
  O   O1        1.0  0.8742599082693585  0.6896299514738261  0.21211756060373688  1.0000
  O   O2        1.0  0.6257399212377732  0.18962941959244264  0.2878823911022009  1.0000
  O   O3        1.0  0.1257383254413043  0.3103700729045826  0.7878819018102233  1.0000
  O   O4        1.0  0.3742590953356313  0.8103695091332241  0.7121176451302773  1.0000
  O   O5        1.0  0.0830015444291874  0.6902297785428075  0.2047221264165699  1.0000
  O   O6        1.0  0.4169991352648806  0.1902292738619522  0.2952781726054425  1.0000
  O   O7        1.0  0.9169982568589174  0.30976915018285217  0.7952780249414245  1.0000
  O   O8        1.0  0.5830006660232243  0.8097702026899681  0.7047219787523815  1.0000
  O   O9        1.0  0.7247396680670872  0.809972606948769  0.15612762541759648  1.0000
  O   O10       1.0  0.7752601584422506  0.30997313747101884  0.34387224965981034  1.0000
  O   O11       1.0  0.2752601313690235  0.19002796525547444  0.8438729846325259  1.0000
  O   O12       1.0  0.22473963914188735  0.6900274347330252  0.6561288190829656  1.0000
  O   O13       1.0  0.8737551649869741  0.8492451537044874  0.2249206221370911  1.0000
  O   O14       1.0  0.626243872125407  0.34924627694154253  0.2750800301931164  1.0000
  O   O15       1.0  0.1262438515864304  0.15075432284744752  0.7750794140952095  1.0000
  O   O16       1.0  0.3737559217547781  0.6507542952620825  0.7249219559349669  1.0000
  O   O17       1.0  0.302748669252658  0.7024693101135143  0.2392138265575952  1.0000
  O   O18       1.0  0.19725281522313756  0.20245511540912992  0.2607815341815821  1.0000
  O   O19       1.0  0.6972511561109511  0.29754550557649406  0.760780361790843  1.0000
  O   O20       1.0  0.8027485573463762  0.7975421698379394  0.739218388735317  1.0000
  O   O21       1.0  0.24707387929534258  0.6927229783595551  0.1318819406756901  1.0000
  O   O22       1.0  0.2529244573044025  0.19271964956837453  0.36811525922720273  1.0000
  O   O23       1.0  0.7529235826644649  0.3072759503677815  0.8681141957645266  1.0000
  O   O24       1.0  0.74707691341316  0.8072765400259528  0.6318851223826982  1.0000
  O   O25       1.0  0.028256082735225594  0.7674063969147724  0.3082770209309302  1.0000
  O   O26       1.0  0.4717453704911634  0.2674065401019732  0.191725637537445  1.0000
  O   O27       1.0  0.9717445014155925  0.23259417528946366  0.6917237042447155  1.0000
  O   O28       1.0  0.5282544270929889  0.7325929364495353  0.8082754312056791  1.0000
  O   O29       1.0  0.0323081263954705  0.6442670967492606  0.3270130194851646  1.0000
  O   O30       1.0  0.467692550739585  0.1442678042398668  0.1729882261885081  1.0000
  O   O31       1.0  0.9676901017592737  0.3557318319760014  0.6729878190071048  1.0000
  O   O32       1.0  0.53230725054852  0.8557316723120537  0.8270119251693087  1.0000
  O   O33       1.0  0.11567361522083527  0.5385459764965006  0.2589886397891518  1.0000
  O   O34       1.0  0.384325496970355  0.0385449692753852  0.24101198425930898  1.0000
  O   O35       1.0  0.8843253976486237  0.461452404402486  0.7410123138288114  1.0000
  O   O36       1.0  0.6156727367403221  0.9614539594505016  0.7589874781549993  1.0000
  O   O37       1.0  0.18978163219675537  0.5606929904276045  0.176623789859363  1.0000
  O   O38       1.0  0.31022139190444153  0.0606897087722444  0.3233801478712053  1.0000
  O   O39       1.0  0.8102189445461433  0.43930867742832896  0.8233787700865418  1.0000
  O   O40       1.0  0.6897791885424593  0.9393075764739935  0.6766214946907851  1.0000
  O   O41       1.0  0.7943662875414929  0.6087040086925555  0.09447108899497175  1.0000
  O   O42       1.0  0.7056366846923294  0.10870392751432692  0.4055289160498318  1.0000
  O   O43       1.0  0.20563272903191177  0.39129492003311134  0.9055289472375065  1.0000
  O   O44       1.0  0.2943670420212853  0.8912950012115106  0.5944713522430972  1.0000
  O   O45       1.0  0.965833177776531  0.5817416338470522  0.13779603188313416  1.0000
  O   O46       1.0  0.5341705779916807  0.08174047625496432  0.3622045641484704  1.0000
  O   O47       1.0  0.0341681947929473  0.41825893835758887  0.8622038910327136  1.0000
  O   O48       1.0  0.46583157744053233  0.9182600959494711  0.637795932585547  1.0000
  O   O49       1.0  0.9082007836955126  0.7661481790819238  0.11392915919071804  1.0000
  O   O50       1.0  0.5917998304721976  0.26614810225937197  0.386070400224952  1.0000
  O   O51       1.0  0.091799019444565  0.2338512974702098  0.8860705334744522  1.0000
  O   O52       1.0  0.4081991898051597  0.733850826466707  0.613928718622219  1.0000
  O   O53       1.0  0.030045858688382096  0.7256824157128605  0.06412870015177669  1.0000
  O   O54       1.0  0.46995403911179773  0.22568233784384262  0.43587054378480866  1.0000
  O   O55       1.0  0.9699547328703771  0.2743159651871494  0.9358701902539438  1.0000
  O   O56       1.0  0.5300457658802599  0.774317138708497  0.5641286901877081  1.0000
  O   O57       1.0  0.9400215115278243  0.9132959705432812  0.08812413506112896  1.0000
  O   O58       1.0  0.5599814568224558  0.4132953188498335  0.4118747586496028  1.0000
  O   O59       1.0  0.059983003604422394  0.08670514948801872  0.9118753309713057  1.0000
  O   O60       1.0  0.4400207041656755  0.5867058011814879  0.5881243620062833  1.0000
  O   O61       1.0  0.8812029628260658  0.7199726237245372  0.9400944012120077  1.0000
  O   O62       1.0  0.6187983145851275  0.21997010595107008  0.5599064637300799  1.0000
  O   O63       1.0  0.1187999773208261  0.28002959195868027  0.0599062106470072  1.0000
  O   O64       1.0  0.3811991344108208  0.7800304662536064  0.4400928835581865  1.0000
