data_image0
_chemical_formula_structural       Zr6H38C50N12O36
_chemical_formula_sum              "Zr6 H38 C50 N12 O36"
_cell_length_a       14.770041459290706
_cell_length_b       14.763225131005843
_cell_length_c       14.81218273059342
_cell_angle_alpha    60.56226683513187
_cell_angle_beta     59.91740771800349
_cell_angle_gamma    60.21888923346568

_space_group_name_H-M_alt    "P 1"
_space_group_IT_number       1

loop_
  _space_group_symop_operation_xyz
  'x, y, z'

loop_
  _atom_site_type_symbol
  _atom_site_label
  _atom_site_symmetry_multiplicity
  _atom_site_fract_x
  _atom_site_fract_y
  _atom_site_fract_z
  _atom_site_occupancy
  Zr  Zr1       1.0  0.8776323478504581  0.8867239318233755  0.6132417648107518  1.0000
  Zr  Zr2       1.0  0.12097074667872222  0.11787120457233158  0.38216071467183355  1.0000
  Zr  Zr3       1.0  0.11696043753394032  0.8827301375014187  0.617525443034822  1.0000
  Zr  Zr4       1.0  0.8815413796689666  0.12330283132541803  0.37674565632767093  1.0000
  Zr  Zr5       1.0  0.11808995710831043  0.8826935412377848  0.3781343189718811  1.0000
  Zr  Zr6       1.0  0.8790215444121117  0.12218439220411885  0.616970864309863  1.0000
  H   H1        1.0  0.09104056161877581  0.7212549132939402  0.5885841597314325  1.0000
  H   H2        1.0  0.09902370287147019  0.09261451636221098  0.21607836678418124  1.0000
  H   H3        1.0  0.0928361232835896  0.09363540478970821  0.5949280579264667  1.0000
  H   H4        1.0  0.7161268283267789  0.09972659529275069  0.5897108835949753  1.0000
  H   H5        1.0  0.15354370522743443  0.5756104178759075  0.37847491556456  1.0000
  H   H6        1.0  0.8540911840874726  0.4146195264348476  0.636355333431098  1.0000
  H   H7        1.0  0.6049222767463363  0.12556531028777565  0.9221349490605707  1.0000
  H   H8        1.0  0.40914541360162837  0.8603008359271626  0.08952273689437354  1.0000
  H   H9        1.0  0.8579177226757083  0.14122251496552718  0.09162039083309267  1.0000
  H   H10       1.0  0.13361685764505882  0.8606443425523268  0.9079047346065892  1.0000
  H   H11       1.0  0.5933039008668999  0.41137032882924984  0.35556943478871267  1.0000
  H   H12       1.0  0.40588989165345163  0.5950775746273748  0.6361796487549753  1.0000
  H   H13       1.0  0.7453456587440714  0.6240271291244213  0.9641463256357955  1.0000
  H   H14       1.0  0.8326432535371494  0.5402217676250982  0.8763405957010023  1.0000
  H   H15       1.0  0.8399271679979209  0.36871542972255605  0.04459843193514235  1.0000
  H   H16       1.0  0.7507500047711347  0.45241983895883214  0.13216009298120918  1.0000
  H   H17       1.0  0.5909124174629528  0.8661107248771315  0.6355629911610381  1.0000
  H   H18       1.0  0.41017439217201707  0.135987222234064  0.3569031869348507  1.0000
  H   H19       1.0  0.1883566404009328  0.33519836934861047  0.3433589427951346  1.0000
  H   H20       1.0  0.24050483112961987  0.43659501929400335  0.298222812379514  1.0000
  H   H21       1.0  0.8087426028757247  0.6687590620679272  0.6556148529923861  1.0000
  H   H22       1.0  0.7536975381438609  0.5700762093838633  0.697119692052155  1.0000
  H   H23       1.0  0.363628462438058  0.15899503144760263  0.16346156845922621  1.0000
  H   H24       1.0  0.45772292606594084  0.21715755537309178  0.052169038901666805  1.0000
  H   H25       1.0  0.6510451870533415  0.8254357961147392  0.8461868144987932  1.0000
  H   H26       1.0  0.5429264904882556  0.7759955193705466  0.9526631386488235  1.0000
  H   H27       1.0  0.8131890292682796  0.16477322010414502  0.8613694666494143  1.0000
  H   H28       1.0  0.756683099812868  0.20623849559149918  0.9742412731416011  1.0000
  H   H29       1.0  0.1587094934912373  0.815167573722995  0.1576523720236479  1.0000
  H   H30       1.0  0.199910426041221  0.7619496727188351  0.056801681431501376  1.0000
  H   H31       1.0  0.3587455717262811  0.6582973433722757  0.3151534419424706  1.0000
  H   H32       1.0  0.4689155073290795  0.5564848288868658  0.26144840867410574  1.0000
  H   H33       1.0  0.6548354961634145  0.36284200269225414  0.6639078759782961  1.0000
  H   H34       1.0  0.5456306710205538  0.4693530823536562  0.7144492505944912  1.0000
  H   H35       1.0  0.3554064599418824  0.8207828634563509  0.6682046936875564  1.0000
  H   H36       1.0  0.46275520036488166  0.7727534223122773  0.7153850713239863  1.0000
  H   H37       1.0  0.659201660904067  0.16609881281678435  0.31095976182068347  1.0000
  H   H38       1.0  0.5569915628236828  0.20794389533877924  0.2596737224522698  1.0000
  C   C1        1.0  0.9939376407409954  0.6993222802378439  0.4985237513476051  1.0000
  C   C2        1.0  0.3118161794901723  0.994907811753741  0.20119940757335533  1.0000
  C   C3        1.0  0.002648937767823212  0.30399042647582764  0.5003914706549041  1.0000
  C   C4        1.0  0.6963233359183079  0.9976585025942055  0.8046405334520443  1.0000
  C   C5        1.0  0.9930521551882309  0.703869293225992  0.8028425101279738  1.0000
  C   C6        1.0  0.6972741035963779  0.004266073969120032  0.4897321028234956  1.0000
  C   C7        1.0  0.0018410854996418456  0.3080916414950464  0.19895593682789334  1.0000
  C   C8        1.0  0.30680734960051126  0.9948340802199737  0.4997562431063543  1.0000
  C   C9        1.0  0.30468713176961193  0.6987337052993537  0.4933034084158621  1.0000
  C   C10       1.0  0.9911734609334458  0.0019741708393111656  0.8063087252020226  1.0000
  C   C11       1.0  0.6985269108329392  0.31179337724527295  0.4951776997445734  1.0000
  C   C12       1.0  0.9993158141451913  0.9982138679862943  0.1945737590010876  1.0000
  C   C13       1.0  0.008650621498894319  0.3992281462296319  0.5038011964182303  1.0000
  C   C14       1.0  0.9968620443137937  0.5933636582641028  0.5081199648753908  1.0000
  C   C15       1.0  0.09907636200611587  0.4408651831702813  0.43130570102804466  1.0000
  C   C16       1.0  0.9109403954334994  0.5465511120853532  0.5868491147193922  1.0000
  C   C17       1.0  0.08821615813541694  0.5389086732720613  0.4349581068492371  1.0000
  C   C18       1.0  0.9195803573466321  0.4511888213744868  0.5802993969390967  1.0000
  C   C19       1.0  0.41489623836021405  0.9940061202763532  0.10393057162171712  1.0000
  C   C20       1.0  0.6001109515627621  0.9912353895980598  0.9081385091231623  1.0000
  C   C21       1.0  0.47034825254812757  0.07128421478447677  0.05823403547367427  1.0000
  C   C22       1.0  0.5463194881142781  0.9120872953027687  0.9554610725470956  1.0000
  C   C23       1.0  0.5611688001829761  0.06712125641264789  0.9605817773136921  1.0000
  C   C24       1.0  0.45465879466323156  0.9169029713501047  0.0525596682465731  1.0000
  C   C25       1.0  0.9903150366687681  0.005037704216569003  0.9053754058390241  1.0000
  C   C26       1.0  0.0008431201741530564  0.9961972621846017  0.09484164167468377  1.0000
  C   C27       1.0  0.9090082722028611  0.0873809236871779  0.9569164631173168  1.0000
  C   C28       1.0  0.08161789509716041  0.9136739339416593  0.04355839154477785  1.0000
  C   C29       1.0  0.918025772579078  0.07979271707041137  0.0501275281691988  1.0000
  C   C30       1.0  0.07339422175842715  0.9220168397214008  0.9493288362826748  1.0000
  C   C31       1.0  0.4044947912460586  0.5982929760380102  0.4914286135573036  1.0000
  C   C32       1.0  0.5968429165738485  0.4099236165672692  0.49851937393178497  1.0000
  C   C33       1.0  0.4561304159904083  0.5461985736803853  0.4096614757398882  1.0000
  C   C34       1.0  0.5434220212123434  0.46041410524297544  0.5818450868039449  1.0000
  C   C35       1.0  0.5515219222860352  0.45364298619885796  0.41621297256913437  1.0000
  C   C36       1.0  0.44875637564783927  0.5541391345747542  0.5743366586635049  1.0000
  C   C37       1.0  0.9970638922064694  0.6033660807046173  0.9025538438667982  1.0000
  C   C38       1.0  0.0012849481017766886  0.4088366023503411  0.0991160202819543  1.0000
  C   C39       1.0  0.919900319717428  0.5495436718464359  0.9555351460443546  1.0000
  C   C40       1.0  0.08014230963905086  0.46271932883966116  0.04591691291978608  1.0000
  C   C41       1.0  0.922471106989441  0.4558645865026775  0.0491775160148007  1.0000
  C   C42       1.0  0.07905121936178731  0.5551152916894323  0.9509653555179939  1.0000
  C   C43       1.0  0.8189007690665806  0.5511499262860011  0.9510643864518827  1.0000
  C   C44       1.0  0.822420006874374  0.4443368092194292  0.0565589148816342  1.0000
  C   C45       1.0  0.40582198914832224  0.9948183281477936  0.5016038618187294  1.0000
  C   C46       1.0  0.5961173515042261  0.006365336585922412  0.48994497983404284  1.0000
  C   C47       1.0  0.45531582182295  0.9158000224773133  0.5843774531430554  1.0000
  C   C48       1.0  0.5451430384799706  0.08665353373759635  0.40872252264219366  1.0000
  C   C49       1.0  0.5500512824182522  0.9246830794677263  0.5745837596944056  1.0000
  C   C50       1.0  0.4511961526372373  0.07707383899148827  0.4176730041862769  1.0000
  N   N1        1.0  0.1953530678111903  0.38833254577253473  0.36229113238258753  1.0000
  N   N2        1.0  0.8223388989796236  0.5891919761256261  0.6692669084038914  1.0000
  N   N3        1.0  0.44115507553814126  0.14640090489277202  0.10638013429647225  1.0000
  N   N4        1.0  0.5772452329408253  0.8362479334333341  0.9082525610453234  1.0000
  N   N5        1.0  0.8257713326167744  0.1744834832027849  0.9171004824072926  1.0000
  N   N6        1.0  0.1677088276823541  0.8291798603396002  0.07975119844029163  1.0000
  N   N7        1.0  0.4141807668740184  0.5806116269945747  0.32856305988941154  1.0000
  N   N8        1.0  0.5782825477571975  0.42016743353705965  0.6689668273219029  1.0000
  N   N9        1.0  0.41249956772438173  0.8359932431562455  0.6728699695379063  1.0000
  N   N10       1.0  0.5813939279397217  0.17331762978819396  0.32563971183902407  1.0000
  N   N11       1.0  0.1697998418011082  0.42329232562816793  0.08853670029153443  1.0000
  N   N12       1.0  0.17099677602885083  0.5992606577946232  0.9019160737406865  1.0000
  O   O1        1.0  0.9142761186399685  0.745612392358346  0.5712539809595967  1.0000
  O   O2        1.0  0.26844993304058556  0.07250596827128669  0.24245554111158898  1.0000
  O   O3        1.0  0.07846784409815649  0.2627657592083635  0.42282262763286843  1.0000
  O   O4        1.0  0.7369821461228837  0.9232035017893451  0.7598512515049409  1.0000
  O   O5        1.0  0.06868145045560692  0.7447946596707951  0.7633482238849112  1.0000
  O   O6        1.0  0.7404653413067873  0.07945466535418427  0.41340419747022855  1.0000
  O   O7        1.0  0.9244050218777033  0.27061032248816724  0.23520076704468082  1.0000
  O   O8        1.0  0.2645714804708564  0.9186391073506425  0.5751118901527195  1.0000
  O   O9        1.0  0.2633500821198852  0.740549893763031  0.4168754064301936  1.0000
  O   O10       1.0  0.9145026572198417  0.07769394452834899  0.7652434059363885  1.0000
  O   O11       1.0  0.7397187152865285  0.2702809624897212  0.5716818555643995  1.0000
  O   O12       1.0  0.07423794847348136  0.9208870693036885  0.23736114939343608  1.0000
  O   O13       1.0  0.06809267192791406  0.9255202555525842  0.765563145543844  1.0000
  O   O14       1.0  0.7404821501803338  0.27174250941501293  0.41753517898084874  1.0000
  O   O15       1.0  0.9246112224842167  0.07713995882643589  0.23312652624262847  1.0000
  O   O16       1.0  0.26362280128041254  0.7387620176652234  0.5705454803956372  1.0000
  O   O17       1.0  0.9162588281045883  0.7387546938242124  0.7660062087748117  1.0000
  O   O18       1.0  0.2666734581209411  0.07116249526567489  0.42402260547613224  1.0000
  O   O19       1.0  0.07887871070573026  0.2680452001832379  0.23736661848605684  1.0000
  O   O20       1.0  0.7367971156333155  0.9282741307800888  0.566123935280494  1.0000
  O   O21       1.0  0.7343154861166141  0.076055856394717  0.7638563180935379  1.0000
  O   O22       1.0  0.06987826952522626  0.739626115205354  0.42025294348013625  1.0000
  O   O23       1.0  0.2688851920505543  0.921186020810161  0.23781531587782467  1.0000
  O   O24       1.0  0.9227339603061607  0.2671078088909055  0.5738517389680169  1.0000
  O   O25       1.0  0.7965634239927509  0.07249199438420108  0.5626419665050691  1.0000
  O   O26       1.0  0.06594450038662804  0.06752601735886533  0.5674570312344616  1.0000
  O   O27       1.0  0.06906411045876128  0.06912221063713989  0.2959373893959309  1.0000
  O   O28       1.0  0.06349971336319259  0.8011665567728201  0.5646820827698563  1.0000
  O   O29       1.0  0.14762640945786437  0.9508672687112988  0.44957682921278774  1.0000
  O   O30       1.0  0.9494055126185615  0.9550431919243464  0.4461511305248819  1.0000
  O   O31       1.0  0.9513219296694472  0.15058085919936554  0.4483356838754701  1.0000
  O   O32       1.0  0.947558799377262  0.9536190038409484  0.6456592025934073  1.0000
  O   O33       1.0  0.1484849251088819  0.4598345098890633  0.15866083681877538  1.0000
  O   O34       1.0  0.2607081654911453  0.36140561196744864  0.04604276106947207  1.0000
  O   O35       1.0  0.2537639864560146  0.5652177008582625  0.8285652322713021  1.0000
  O   O36       1.0  0.1596068756262667  0.6613324066222929  0.942908645001353  1.0000
