data_image0
_chemical_formula_structural       Na2H18C16N4O8
_chemical_formula_sum              "Na2 H18 C16 N4 O8"
_cell_length_a       7.167409656330031
_cell_length_b       7.35148460575468
_cell_length_c       8.803812147692046
_cell_angle_alpha    103.713806541127
_cell_angle_beta     93.82650839719558
_cell_angle_gamma    91.22692695804407

_space_group_name_H-M_alt    "P 1"
_space_group_IT_number       1

loop_
  _space_group_symop_operation_xyz
  'x, y, z'

loop_
  _atom_site_type_symbol
  _atom_site_label
  _atom_site_symmetry_multiplicity
  _atom_site_fract_x
  _atom_site_fract_y
  _atom_site_fract_z
  _atom_site_occupancy
  Na  Na1       1.0  0.9999991057281362  0.9999997766016192  5.096580295363772e-07  1.0000
  Na  Na2       1.0  0.5000001381701792  2.0237766306999954e-06  9.999877760981075e-07  1.0000
  H   H1        1.0  0.126607393639091  0.30549010843634494  0.2968001545844245  1.0000
  H   H2        1.0  0.8733921288939682  0.6945062129249493  0.7031994698936258  1.0000
  H   H3        1.0  0.1421634828919451  0.47271924011729266  0.5875787157490535  1.0000
  H   H4        1.0  0.8578403210994663  0.5272798839603253  0.4124171400502518  1.0000
  H   H5        1.0  0.3291108786346512  0.8032327605210553  0.6347305567599761  1.0000
  H   H6        1.0  0.6708930538502785  0.19676917015753043  0.3652715396072637  1.0000
  H   H7        1.0  0.3608640318150904  0.5726034441045371  0.3743322061912337  1.0000
  H   H8        1.0  0.639135552625099  0.4273942801410015  0.6256699704287171  1.0000
  H   H9        1.0  0.28984257194087343  0.6676434774741862  0.1271082131876113  1.0000
  H   H10       1.0  0.7101555615913212  0.3323528443495077  0.8728936114218653  1.0000
  H   H11       1.0  0.9251064720827883  0.435652410093219  0.13144297612360836  1.0000
  H   H12       1.0  0.07489319873766219  0.5643481132609124  0.8685552145070616  1.0000
  H   H13       1.0  0.10572766028071359  0.3669234171319216  0.04655395580356008  1.0000
  H   H14       1.0  0.8942720105397439  0.6330771062222096  0.9534442348271098  1.0000
  H   H15       1.0  0.6053502089630598  0.42677600030876295  0.13483972636002758  1.0000
  H   H16       1.0  0.39464392564782713  0.5732259202868232  0.8651595903810259  1.0000
  H   H17       1.0  0.40726359649946897  0.3572088360011134  0.05781332757454998  1.0000
  H   H18       1.0  0.5927305719430579  0.6427944824837937  0.9421817236035963  1.0000
  C   C1        1.0  0.17301098470329626  0.32631818814503066  0.5458565371805193  1.0000
  C   C2        1.0  0.8269928333258606  0.6736809384300455  0.4541427274711864  1.0000
  C   C3        1.0  0.2178302506735078  0.19477105709136566  0.6316592955579452  1.0000
  C   C4        1.0  0.7821751280401654  0.8052322751765782  0.3683420165356352  1.0000
  C   C5        1.0  0.24553069244556264  0.022040310885032  0.5188049274997724  1.0000
  C   C6        1.0  0.754473130262852  0.9779588165225302  0.48119547343607383  1.0000
  C   C7        1.0  0.2992583199724308  0.8413806410225175  0.5234938541444193  1.0000
  C   C8        1.0  0.7007440565072329  0.15861708479568648  0.4765073310650861  1.0000
  C   C9        1.0  0.3154025566358526  0.7143122315539258  0.38010100948951475  1.0000
  C   C10       1.0  0.6845984214844522  0.285685493061706  0.6199001032831432  1.0000
  C   C11       1.0  0.2778067199848451  0.7679517184350855  0.23870082200318873  1.0000
  C   C12       1.0  0.7221928119067157  0.23204460459118073  0.7613010750431356  1.0000
  C   C13       1.0  0.2148356241967093  0.06098527437112009  0.3680786927421309  1.0000
  C   C14       1.0  0.7851653492443447  0.9390124494120187  0.6319212837463936  1.0000
  C   C15       1.0  0.23278040607301878  0.2240208694973659  0.8015827330915994  1.0000
  C   C16       1.0  0.767219479621225  0.775985259566326  0.19841771211772394  1.0000
  N   N1        1.0  0.1705613121130156  0.24657481610871193  0.38911823730303746  1.0000
  N   N2        1.0  0.8294396566487876  0.7534229068419404  0.6108806029013534  1.0000
  N   N3        1.0  0.22836188845052163  0.9408975068846812  0.22909732937500843  1.0000
  N   N4        1.0  0.7716375862131528  0.05909741408983389  0.7709031518135487  1.0000
  O   O1        1.0  0.2321144894870244  0.39487578779985444  0.8898209838234477  1.0000
  O   O2        1.0  0.7678854627936003  0.6051317449805677  0.11018314981191675  1.0000
  O   O3        1.0  0.2464156316971895  0.08367285087342677  0.8610962961736206  1.0000
  O   O4        1.0  0.7535829081863241  0.9163346782069578  0.13890435617249608  1.0000
  O   O5        1.0  0.019885310837587197  0.3376658908023913  0.1227233261507195  1.0000
  O   O6        1.0  0.9801143121134857  0.6623332321649611  0.8772757211904576  1.0000
  O   O7        1.0  0.5093845059140562  0.32547905515465897  0.12632895944189218  1.0000
  O   O8        1.0  0.49060827352760566  0.6745242637926481  0.8736682918676734  1.0000
