data_image0
_chemical_formula_structural       Zn6H16C28N12O12
_chemical_formula_sum              "Zn6 H16 C28 N12 O12"
_cell_length_a       11.049439018760031
_cell_length_b       11.04943893872988
_cell_length_c       11.042397273437878
_cell_angle_alpha    88.3242106811527
_cell_angle_beta     88.32388183099734
_cell_angle_gamma    69.25194276515053

_space_group_name_H-M_alt    "P 1"
_space_group_IT_number       1

loop_
  _space_group_symop_operation_xyz
  'x, y, z'

loop_
  _atom_site_type_symbol
  _atom_site_label
  _atom_site_symmetry_multiplicity
  _atom_site_fract_x
  _atom_site_fract_y
  _atom_site_fract_z
  _atom_site_occupancy
  Zn  Zn1       1.0  0.4751115604461019  0.3597113225192246  0.9998148960938235  1.0000
  Zn  Zn2       1.0  0.6402901278143885  0.5248900660457707  0.5001841942372421  1.0000
  Zn  Zn3       1.0  0.5248899580163026  0.6402901207929048  0.00018548454345079462  1.0000
  Zn  Zn4       1.0  0.35971145015737704  0.4751084868577422  0.49981538523948615  1.0000
  Zn  Zn5       1.0  0.5979528459996432  0.40204844319144667  0.24999903182150962  1.0000
  Zn  Zn6       1.0  0.40204742008914  0.5979539706935667  0.7499986423011787  1.0000
  H   H1        1.0  0.5556594121093993  0.9358775857196591  0.05727082129800458  1.0000
  H   H2        1.0  0.06412563791865712  0.44433381437225  0.4427300402870315  1.0000
  H   H3        1.0  0.44434023890572394  0.06412679955582948  0.9427331422458917  1.0000
  H   H4        1.0  0.9358754031303392  0.5556608882047557  0.557266984191571  1.0000
  H   H5        1.0  0.6412635826507723  0.8469361018040329  0.5049598852917823  1.0000
  H   H6        1.0  0.15307377888604626  0.35872714101817854  0.9950402248010302  1.0000
  H   H7        1.0  0.3587293513091367  0.15306936780879712  0.4950424748775146  1.0000
  H   H8        1.0  0.8469303275829743  0.6412665445436829  0.004957629708364706  1.0000
  H   H9        1.0  0.6419014146186512  0.053202794151836486  0.40415341292113266  1.0000
  H   H10       1.0  0.9468001109282014  0.3580961069368199  0.09584540545760939  1.0000
  H   H11       1.0  0.3580973842741527  0.9467987188236934  0.5958497824418314  1.0000
  H   H12       1.0  0.053198652205260384  0.6419053702514504  0.9041514530694098  1.0000
  H   H13       1.0  0.6943405781934829  0.3815798853727443  0.04079252553263758  1.0000
  H   H14       1.0  0.6184231862384452  0.3056610052039304  0.4592033122388768  1.0000
  H   H15       1.0  0.3056594219881531  0.6184206059052498  0.9592043237221257  1.0000
  H   H16       1.0  0.38157771024944515  0.6943394526280001  0.5407907882494383  1.0000
  C   C1        1.0  0.5936581672123752  0.13590834896911733  0.17627435456542162  1.0000
  C   C2        1.0  0.8640936490059802  0.40634376354285  0.323725618905847  1.0000
  C   C3        1.0  0.4063451745133905  0.8640930581256824  0.823725960112618  1.0000
  C   C4        1.0  0.13590662219127844  0.5936586554546252  0.6762729604791173  1.0000
  C   C5        1.0  0.5984080729913616  0.005943259118723195  0.22668203637833523  1.0000
  C   C6        1.0  0.9940570968522879  0.4015874481557447  0.273321467221244  1.0000
  C   C7        1.0  0.4015900750684267  0.994060189460022  0.7733211115698846  1.0000
  C   C8        1.0  0.0059414259164113446  0.5984121319878355  0.7266790927492435  1.0000
  C   C9        1.0  0.5746171705794082  0.9169528499437759  0.1532637136770559  1.0000
  C   C10       1.0  0.08304666278117874  0.42537735248909314  0.34673803310767665  1.0000
  C   C11       1.0  0.42537948985048507  0.08304967727562482  0.8467413344623292  1.0000
  C   C12       1.0  0.9169521802955457  0.574621254740414  0.6532616453078999  1.0000
  C   C13       1.0  0.5747155606623551  0.8011868026891307  0.20915951050568535  1.0000
  C   C14       1.0  0.19882169479392084  0.42527407381750487  0.29084084435999796  1.0000
  C   C15       1.0  0.42527581083285776  0.19882062063558692  0.7908428352284885  1.0000
  C   C16       1.0  0.8011839792482648  0.5747176631449378  0.709157929846803  1.0000
  C   C17       1.0  0.5986515639960076  0.7765241681168932  0.3346028413460329  1.0000
  C   C18       1.0  0.22348208963922636  0.4013380910866716  0.16540017179898564  1.0000
  C   C19       1.0  0.4013386452858184  0.22348136604686888  0.665401428286678  1.0000
  C   C20       1.0  0.7765211851413838  0.5986527426250916  0.8346005355786016  1.0000
  C   C21       1.0  0.6235452919790988  0.86601353633759  0.40848995848983777  1.0000
  C   C22       1.0  0.13399373089283975  0.3764445600863482  0.09151319693512507  1.0000
  C   C23       1.0  0.37644427157819377  0.1339939385418631  0.5915151689904047  1.0000
  C   C24       1.0  0.8660082422217457  0.623550144831853  0.908487415612974  1.0000
  C   C25       1.0  0.6233625420384499  0.9794295742074578  0.3524729924217666  1.0000
  C   C26       1.0  0.02057534696445628  0.37663199560714844  0.14752678263317875  1.0000
  C   C27       1.0  0.37663560602133833  0.020573874371287097  0.6475301555264533  1.0000
  C   C28       1.0  0.9794256345751794  0.6233655973784805  0.8524710430059765  1.0000
  N   N1        1.0  0.5552372414979628  0.6942288539667774  0.16573645341527046  1.0000
  N   N2        1.0  0.30577553229032634  0.44475656884949183  0.334265457366392  1.0000
  N   N3        1.0  0.4447603101297021  0.30577363469409846  0.8342649406953836  1.0000
  N   N4        1.0  0.6942292454456123  0.5552352015590146  0.6657360656068574  1.0000
  N   N5        1.0  0.5659492426443364  0.6115613826658262  0.2584280246334884  1.0000
  N   N6        1.0  0.3884413752331356  0.4340479255535782  0.24157355227160332  1.0000
  N   N7        1.0  0.43405045255471464  0.3884400968636399  0.7415724219630203  1.0000
  N   N8        1.0  0.6115618349296383  0.5659457934543468  0.758427051004254  1.0000
  N   N9        1.0  0.5921435282710733  0.6575508583545399  0.36017687569726314  1.0000
  N   N10       1.0  0.3424545575362572  0.40785043907273183  0.13982477848265515  1.0000
  N   N11       1.0  0.40785096815352523  0.34245265754641  0.6398254989071501  1.0000
  N   N12       1.0  0.6575498845662225  0.5921422889124557  0.8601749102586707  1.0000
  O   O1        1.0  0.5540640348869985  0.1668965272305343  0.06827397791938947  1.0000
  O   O2        1.0  0.8331046703108527  0.44594125564220377  0.4317242939409167  1.0000
  O   O3        1.0  0.44594021336196504  0.8331048566431389  0.9317253985167607  1.0000
  O   O4        1.0  0.16689402820476568  0.5540631068422286  0.5682724604843725  1.0000
  O   O5        1.0  0.6275469432043437  0.2055403176864843  0.24803288802702633  1.0000
  O   O6        1.0  0.7944627177306954  0.37245867478979017  0.2519652031584058  1.0000
  O   O7        1.0  0.3724606907726695  0.7944590762579651  0.7519664368850054  1.0000
  O   O8        1.0  0.20553905131342268  0.6275446757919668  0.7480332865599517  1.0000
  O   O9        1.0  0.6043242132139852  0.428842541377648  0.062481315015951056  1.0000
  O   O10       1.0  0.5711603533295674  0.39567696063448204  0.437516752687152  1.0000
  O   O11       1.0  0.39567604776632237  0.571159867394897  0.9375154538444617  1.0000
  O   O12       1.0  0.428840883900257  0.6043225447332432  0.5624800872953697  1.0000
