data_image0
_chemical_formula_structural       Zn4H26C48Cl4O13
_chemical_formula_sum              "Zn4 H26 C48 Cl4 O13"
_cell_length_a       19.547192415392274
_cell_length_b       19.53201252977904
_cell_length_c       19.606568158638467
_cell_angle_alpha    84.72858522558784
_cell_angle_beta     89.92996710073918
_cell_angle_gamma    83.93177009828855

_space_group_name_H-M_alt    "P 1"
_space_group_IT_number       1

loop_
  _space_group_symop_operation_xyz
  'x, y, z'

loop_
  _atom_site_type_symbol
  _atom_site_label
  _atom_site_symmetry_multiplicity
  _atom_site_fract_x
  _atom_site_fract_y
  _atom_site_fract_z
  _atom_site_occupancy
  Zn  Zn1       1.0  0.44342858822756165  0.5598438264089296  0.5603281347222976  1.0000
  Zn  Zn2       1.0  0.5513004359547721  0.5570261274282657  0.43637422616212973  1.0000
  Zn  Zn3       1.0  0.44280468988783633  0.4495554196541249  0.4487257811653649  1.0000
  Zn  Zn4       1.0  0.5650680773245327  0.4366502982848601  0.5622820487985936  1.0000
  H   H1        1.0  0.4284794186514275  0.5683358391210618  0.768050493554398  1.0000
  H   H2        1.0  0.8880158683052668  0.47637657108187864  0.3632488471404757  1.0000
  H   H3        1.0  0.4883306427686378  0.24277268317475634  0.4079390895341107  1.0000
  H   H4        1.0  0.44908290689619423  0.7709453311779483  0.5837443797309945  1.0000
  H   H5        1.0  0.5164721055294379  0.7703949935085603  0.37515119671957825  1.0000
  H   H6        1.0  0.49216551588912677  0.006466117917483401  0.41425218732105423  1.0000
  H   H7        1.0  0.5152861141476918  0.0924425075867603  0.6256013320263349  1.0000
  H   H8        1.0  0.4493484968921776  0.8982577274885698  0.5770797385856454  1.0000
  H   H9        1.0  0.49445019079350055  0.9947580564741118  0.5719238372033715  1.0000
  H   H10       1.0  0.4824953940038199  0.11734392379408831  0.4063105662828193  1.0000
  H   H11       1.0  0.38833101452944857  0.4697040005603271  0.2388834004451539  1.0000
  H   H12       1.0  0.3823051248851995  0.4748576273191389  0.11125767274280213  1.0000
  H   H13       1.0  0.5146449570408292  0.8985977101289536  0.3666162010498297  1.0000
  H   H14       1.0  0.4266709008362709  0.5160733069878629  0.9996060840477767  1.0000
  H   H15       1.0  0.6201440504539731  0.4291540975535779  0.9002315536311586  1.0000
  H   H16       1.0  0.5804549823215339  0.5532343512230966  0.09866790675268082  1.0000
  H   H17       1.0  0.6104905766445227  0.4239401162408427  0.7738159007867439  1.0000
  H   H18       1.0  0.5845313996392675  0.4894427169601627  0.003328531723688897  1.0000
  H   H19       1.0  0.4368022293183387  0.5732285927764804  0.8941888887781104  1.0000
  H   H20       1.0  0.23748796065162023  0.5059648752073969  0.4068423120347546  1.0000
  H   H21       1.0  0.7788452418962137  0.4728951299530449  0.5915840536530085  1.0000
  H   H22       1.0  0.09828788706916919  0.5140144982510293  0.6176750977986032  1.0000
  H   H23       1.0  0.9060698968446912  0.465284130340251  0.583452141343038  1.0000
  H   H24       1.0  0.9930986675881498  0.5257140572145361  0.5492885989312627  1.0000
  H   H25       1.0  0.1117807310003727  0.5042521435842816  0.39871528913482723  1.0000
  H   H26       1.0  0.5844538690408428  0.5504478008669621  0.2259966534940148  1.0000
  C   C1        1.0  0.6848940882092974  0.49037630565681667  0.49177970424368317  1.0000
  C   C2        1.0  0.533072548215088  0.5011417769965973  0.9804889922162374  1.0000
  C   C3        1.0  0.47840521452048523  0.5114436516919696  0.02201898328004861  1.0000
  C   C4        1.0  0.316070398810943  0.5115532118316183  0.513790694259562  1.0000
  C   C5        1.0  0.48713617343405957  0.5090291722605187  0.23997715469855765  1.0000
  C   C6        1.0  0.2394689662691078  0.5127598425194863  0.515283876857943  1.0000
  C   C7        1.0  0.20610337219394373  0.5081459883424913  0.4527374133329403  1.0000
  C   C8        1.0  0.13566075176806436  0.5060471307414501  0.44842132495123377  1.0000
  C   C9        1.0  0.09530046852317746  0.5063362551834415  0.5080291877464731  1.0000
  C   C10       1.0  0.12807178218273654  0.5130134865333461  0.5706432335769946  1.0000
  C   C11       1.0  0.19892565690751945  0.5163034259304168  0.5744016528502414  1.0000
  C   C12       1.0  0.5282577399481241  0.5002947265530293  0.9063676471832379  1.0000
  C   C13       1.0  0.8747211083986599  0.4714428659882797  0.5369348421090266  1.0000
  C   C14       1.0  0.8035193341345489  0.4755746912282603  0.5416517215427206  1.0000
  C   C15       1.0  0.7932432974733244  0.48326400623057  0.41868446637614914  1.0000
  C   C16       1.0  0.4875480732859359  0.6859656298613147  0.4863723301068816  1.0000
  C   C17       1.0  0.864676272682459  0.477111481943595  0.41361484548276917  1.0000
  C   C18       1.0  0.9063391740640938  0.4727913211163041  0.4723869045868839  1.0000
  C   C19       1.0  0.021362893573190392  0.5013896934854927  0.5081364266222154  1.0000
  C   C20       1.0  0.9816752877931022  0.4708226049759647  0.4658828562480153  1.0000
  C   C21       1.0  0.7613840232520771  0.48304902914708947  0.4829892159218332  1.0000
  C   C22       1.0  0.5076454537806683  0.23905947681054576  0.515856966993681  1.0000
  C   C23       1.0  0.5779324403246306  0.4595436587181112  0.8712375958599097  1.0000
  C   C24       1.0  0.4955044611386298  0.20867647584793045  0.4551522481640546  1.0000
  C   C25       1.0  0.4920586647521574  0.13835816199959075  0.454574730822074  1.0000
  C   C26       1.0  0.4989910614709032  0.0946008775388449  0.5160993300550845  1.0000
  C   C27       1.0  0.510479663738053  0.12466202843724263  0.5769967993918002  1.0000
  C   C28       1.0  0.5090157192177002  0.31566426539937703  0.510864775021183  1.0000
  C   C29       1.0  0.5155050452003991  0.19540175318500266  0.5771775565548297  1.0000
  C   C30       1.0  0.4650050525466936  0.8706687520356696  0.5327854404941307  1.0000
  C   C31       1.0  0.4643912782777233  0.7994855439404417  0.5368256922355316  1.0000
  C   C32       1.0  0.5019232075868699  0.7990971697657726  0.41896994041910324  1.0000
  C   C33       1.0  0.5009905214437892  0.8706016833635247  0.4146326269464781  1.0000
  C   C34       1.0  0.5728099386706873  0.4563791808021805  0.8008902392859909  1.0000
  C   C35       1.0  0.48457969187716526  0.9077385613341846  0.47192408043886047  1.0000
  C   C36       1.0  0.49361275174698693  0.020579877574711202  0.5199624507116882  1.0000
  C   C37       1.0  0.489368312795257  0.9819521545657537  0.4665163113545461  1.0000
  C   C38       1.0  0.4841851828945705  0.7627834180577225  0.48039715286820694  1.0000
  C   C39       1.0  0.4905922235201813  0.506543024232286  0.3159731698975747  1.0000
  C   C40       1.0  0.5133993258043857  0.4942772390322715  0.6878844991464562  1.0000
  C   C41       1.0  0.5186490344848024  0.49546999197760044  0.7635368306957774  1.0000
  C   C42       1.0  0.46958903355093884  0.5373035437506745  0.7978201579467168  1.0000
  C   C43       1.0  0.4742407443594416  0.5394754197002386  0.8681562036940919  1.0000
  C   C44       1.0  0.5387635271656277  0.5338944784754532  0.129335148675672  1.0000
  C   C45       1.0  0.5411165615565848  0.5328014497368797  0.2001894844917302  1.0000
  C   C46       1.0  0.4299728704444871  0.4879881367813824  0.20754050862754533  1.0000
  C   C47       1.0  0.4269632534756909  0.4908380104513412  0.1365395305816506  1.0000
  C   C48       1.0  0.48186448790477227  0.5123455973729065  0.09615845779849509  1.0000
  Cl  Cl1       1.0  0.7458608187904899  0.4875337339819268  0.34361305839625805  1.0000
  Cl  Cl2       1.0  0.015932518274624406  0.42567064537504945  0.39897125523172156  1.0000
  Cl  Cl3       1.0  0.23488794232019217  0.5204158919141051  0.6543423354332205  1.0000
  Cl  Cl4       1.0  0.5273759539687362  0.22625327041108528  0.6557849406015563  1.0000
  O   O1        1.0  0.5012275404752415  0.5001096239074839  0.5029510032026822  1.0000
  O   O2        1.0  0.5395079062290549  0.5346062401619989  0.341762175818026  1.0000
  O   O3        1.0  0.5575027389895553  0.45309199497813785  0.6593519339557261  1.0000
  O   O4        1.0  0.4445512502467324  0.47624315371819403  0.34977669034937975  1.0000
  O   O5        1.0  0.4650733595637391  0.5348650260309427  0.6575049398289963  1.0000
  O   O6        1.0  0.46030500564913257  0.6569630077683967  0.539269434228956  1.0000
  O   O7        1.0  0.5492567126857395  0.34044692933358084  0.5508461287299441  1.0000
  O   O8        1.0  0.6508042639755586  0.5392095613054337  0.45481920331839387  1.0000
  O   O9        1.0  0.3460837743729996  0.46932746434588063  0.4745653397365005  1.0000
  O   O10       1.0  0.6615036687192201  0.44786740384121526  0.5368826094310252  1.0000
  O   O11       1.0  0.3443561153621316  0.5523654361939876  0.5492083700948172  1.0000
  O   O12       1.0  0.5182424854865886  0.6550779465516571  0.4383246827154538  1.0000
  O   O13       1.0  0.4694043216727266  0.3497342706123305  0.46494063332895763  1.0000
