data_image0
_chemical_formula_structural       Hg4H40C36N8Cl8
_chemical_formula_sum              "Hg4 H40 C36 N8 Cl8"
_cell_length_a       8.893760001599567
_cell_length_b       8.893745113484837
_cell_length_c       17.57254397375964
_cell_angle_alpha    90.95086573973488
_cell_angle_beta     90.95064967165952
_cell_angle_gamma    118.39943286236138

_space_group_name_H-M_alt    "P 1"
_space_group_IT_number       1

loop_
  _space_group_symop_operation_xyz
  'x, y, z'

loop_
  _atom_site_type_symbol
  _atom_site_label
  _atom_site_symmetry_multiplicity
  _atom_site_fract_x
  _atom_site_fract_y
  _atom_site_fract_z
  _atom_site_occupancy
  Hg  Hg1       1.0  0.43664103791932274  0.8969635409147616  0.400696091416485  1.0000
  Hg  Hg2       1.0  0.10304106135991024  0.5633596274353182  0.0993036123746549  1.0000
  Hg  Hg3       1.0  0.5633578266047864  0.10303489927774481  0.5993042162890773  1.0000
  Hg  Hg4       1.0  0.8969601460627603  0.43664135019427874  0.9006961549928716  1.0000
  H   H1        1.0  0.18629615581284054  0.9626792274172974  0.511312192854831  1.0000
  H   H2        1.0  0.03732772197312773  0.8137053642507013  0.9886905576241958  1.0000
  H   H3        1.0  0.8136999756940355  0.0373205296437362  0.488688675603953  1.0000
  H   H4        1.0  0.962680238012787  0.18629559003630186  0.011310956681597898  1.0000
  H   H5        1.0  0.8788686563044834  0.8192723914277523  0.5502244775876903  1.0000
  H   H6        1.0  0.18072879500603992  0.1211311436981717  0.9497757393725691  1.0000
  H   H7        1.0  0.1211241537801655  0.18072988533263873  0.4497724024762419  1.0000
  H   H8        1.0  0.8192699243528453  0.8788646981479644  0.0502228448767497  1.0000
  H   H9        1.0  0.6751578992614995  0.534300785139344  0.4888889570049172  1.0000
  H   H10       1.0  0.4656999253793687  0.32484271440253565  0.0111095919943907  1.0000
  H   H11       1.0  0.32484334708424006  0.4657026845797887  0.5111068416047857  1.0000
  H   H12       1.0  0.5342943453917712  0.6751531961337492  0.9888906737364493  1.0000
  H   H13       1.0  0.7877589434504131  0.4037889092409443  0.3933948127527458  1.0000
  H   H14       1.0  0.5962128533231664  0.21224354113149252  0.10660352601588839  1.0000
  H   H15       1.0  0.2122421506796854  0.5962095019193258  0.6066049388227555  1.0000
  H   H16       1.0  0.40378389488754624  0.7877574945625627  0.893397353611739  1.0000
  H   H17       1.0  0.020349315963507284  0.41856978553641266  0.3186836580217616  1.0000
  H   H18       1.0  0.5814359338597228  0.9796511691128275  0.181314854994568  1.0000
  H   H19       1.0  0.9796520153759617  0.5814337691881803  0.6813166943591895  1.0000
  H   H20       1.0  0.4185641746962858  0.020349838971405604  0.8186860442700876  1.0000
  H   H21       1.0  0.23027985278039148  0.4328732620595516  0.24404136866184697  1.0000
  H   H22       1.0  0.5671326921644635  0.7697258317214237  0.25596040792850516  1.0000
  H   H23       1.0  0.769721981970335  0.5671290048287502  0.7559589790959291  1.0000
  H   H24       1.0  0.4328712695238864  0.2302738502910131  0.7440399371286047  1.0000
  H   H25       1.0  0.5253251313644399  0.56145633440039  0.3629035233439879  1.0000
  H   H26       1.0  0.43854417282357633  0.4746758330138335  0.13709689940206715  1.0000
  H   H27       1.0  0.474675952141439  0.4385420661342038  0.6370956590101072  1.0000
  H   H28       1.0  0.5614530575499616  0.5253238935925635  0.8629028371595879  1.0000
  H   H29       1.0  0.33143127013730833  0.3680337192757577  0.3656753500907541  1.0000
  H   H30       1.0  0.6319675607240214  0.6685708856763526  0.1343262228631517  1.0000
  H   H31       1.0  0.6685704513208394  0.6319659811432177  0.6343249818750039  1.0000
  H   H32       1.0  0.3680295457327248  0.3314262638350415  0.8656729286850718  1.0000
  H   H33       1.0  0.5628438356075449  0.3152003713311018  0.3136109275390169  1.0000
  H   H34       1.0  0.6847975389589038  0.43715540655188084  0.1863897733545059  1.0000
  H   H35       1.0  0.4371566311944974  0.6847967505704703  0.6863882436462347  1.0000
  H   H36       1.0  0.3151962177767587  0.5628417811950115  0.8136099277780957  1.0000
  H   H37       1.0  0.39854666507254427  0.2641434001098518  0.2446348952355635  1.0000
  H   H38       1.0  0.7358583777518464  0.601453678610014  0.2553653717884359  1.0000
  H   H39       1.0  0.6014528161554082  0.7358563187156762  0.7553654236388496  1.0000
  H   H40       1.0  0.2641403203586136  0.39854214198475546  0.7446320740180781  1.0000
  C   C1        1.0  0.09221312058125622  0.8401754291805689  0.48614013140096546  1.0000
  C   C2        1.0  0.15982858511725342  0.9077877998644865  0.013861546831662998  1.0000
  C   C3        1.0  0.9077852405315953  0.1598242988482355  0.5138601809277645  1.0000
  C   C4        1.0  0.8401748944082642  0.09221319123560788  0.9861399412914336  1.0000
  C   C5        1.0  0.9217277217705372  0.7588148724831497  0.5076382665699766  1.0000
  C   C6        1.0  0.2411866977612505  0.0782735588760559  0.9923624338111593  1.0000
  C   C7        1.0  0.07826949797878059  0.24118484349755684  0.4923609007702651  1.0000
  C   C8        1.0  0.7588151157410438  0.9217286867608722  0.007636775503812001  1.0000
  C   C9        1.0  0.8090233658408011  0.6018260263706453  0.4734944624633926  1.0000
  C   C10       1.0  0.3981755370381352  0.1909776585931979  0.026505739203038597  1.0000
  C   C11       1.0  0.19097618618286558  0.3981762164214686  0.5265035953174076  1.0000
  C   C12       1.0  0.6018238415214514  0.8090195043886939  0.973495133100755  1.0000
  C   C13       1.0  0.8706362013206074  0.5293461736317936  0.4195363862225462  1.0000
  C   C14       1.0  0.47065710005510647  0.129366959882617  0.0804625744646472  1.0000
  C   C15       1.0  0.1293649848536376  0.4706547827464291  0.5804622427021684  1.0000
  C   C16       1.0  0.5293406656023407  0.8706315107645255  0.9195388651380512  1.0000
  C   C17       1.0  0.042327647390074274  0.6185551101421186  0.4001096237258039  1.0000
  C   C18       1.0  0.38144862433856735  0.957677041325745  0.0998919143908026  1.0000
  C   C19       1.0  0.9576746801476973  0.3814458582842022  0.5998901501873988  1.0000
  C   C20       1.0  0.6185497898953614  0.0423227398314765  0.9001112440449572  1.0000
  C   C21       1.0  0.11119663067557892  0.5439291040943531  0.3443127425656556  1.0000
  C   C22       1.0  0.45607452133406673  0.8888053044841586  0.15568636804357536  1.0000
  C   C23       1.0  0.8888079477166073  0.4560718565510982  0.655687613660305  1.0000
  C   C24       1.0  0.5439248678497393  0.11119186912341662  0.844315073481624  1.0000
  C   C25       1.0  0.3363251337143184  0.5363354296534412  0.2775709899792531  1.0000
  C   C26       1.0  0.46366934216420214  0.6636801846690831  0.22243077506983863  1.0000
  C   C27       1.0  0.663676598368049  0.4636642813912246  0.7224299112079109  1.0000
  C   C28       1.0  0.5363318652584681  0.33632079296051387  0.777568992297688  1.0000
  C   C29       1.0  0.424989773604409  0.458802898875355  0.3269264996764676  1.0000
  C   C30       1.0  0.5412008400155629  0.5750098159723082  0.1730745009366785  1.0000
  C   C31       1.0  0.5750103243273799  0.5411980985831945  0.673073830366789  1.0000
  C   C32       1.0  0.45879738655627733  0.4249873243358096  0.826924657157221  1.0000
  C   C33       1.0  0.5019537525134156  0.3715020518490492  0.27745373487510955  1.0000
  C   C34       1.0  0.6285000242856356  0.4980479119770891  0.22254654538708246  1.0000
  C   C35       1.0  0.4980456154219512  0.6284951005071662  0.7225465682072709  1.0000
  C   C36       1.0  0.3714970927953303  0.5019492481599884  0.7774531753825469  1.0000
  N   N1        1.0  0.14947249799465814  0.7722070520255713  0.43297175776390867  1.0000
  N   N2        1.0  0.2277977563735903  0.8505305432296952  0.0670292513871473  1.0000
  N   N3        1.0  0.8505275786886985  0.22779392418161143  0.5670274338365359  1.0000
  N   N4        1.0  0.7722039757087772  0.14946916781496364  0.9329716498000167  1.0000
  N   N5        1.0  0.2691874295527938  0.6209968391852955  0.3275482045013192  1.0000
  N   N6        1.0  0.37900907983309656  0.7308183058607868  0.1724514354024933  1.0000
  N   N7        1.0  0.7308166454281276  0.3790054092964539  0.6724521563478162  1.0000
  N   N8        1.0  0.6209938644085115  0.2691839411985555  0.8275483496795601  1.0000
  Cl  Cl1       1.0  0.6962352736746595  0.06983842040563099  0.33233607183851877  1.0000
  Cl  Cl2       1.0  0.9301715061560074  0.3037689420909402  0.1676632366151196  1.0000
  Cl  Cl3       1.0  0.30376443413845083  0.9301664313585365  0.6676642786199238  1.0000
  Cl  Cl4       1.0  0.06982982518346151  0.6962346126336527  0.8323371157658315  1.0000
  Cl  Cl5       1.0  0.5370630535120213  0.7983667312834158  0.5240691651473597  1.0000
  Cl  Cl6       1.0  0.20163092871474927  0.46293476482367885  0.9759290432037133  1.0000
  Cl  Cl7       1.0  0.46293529697661734  0.201632986119705  0.47593057795997135  1.0000
  Cl  Cl8       1.0  0.7983685312647708  0.5370649327504821  0.024070137227880695  1.0000
