data_image0
_chemical_formula_structural       Zr6H76C126N6O32
_chemical_formula_sum              "Zr6 H76 C126 N6 O32"
_cell_length_a       17.255733401464422
_cell_length_b       17.23051065048968
_cell_length_c       17.26261991069649
_cell_angle_alpha    91.76398753715851
_cell_angle_beta     91.76866717577585
_cell_angle_gamma    91.94236732734556

_space_group_name_H-M_alt    "P 1"
_space_group_IT_number       1

loop_
  _space_group_symop_operation_xyz
  'x, y, z'

loop_
  _atom_site_type_symbol
  _atom_site_label
  _atom_site_symmetry_multiplicity
  _atom_site_fract_x
  _atom_site_fract_y
  _atom_site_fract_z
  _atom_site_occupancy
  Zr  Zr1       1.0  0.192250331598089  0.1555056317268964  0.0469609697436866  1.0000
  Zr  Zr2       1.0  0.2450909242740025  0.9934008324443155  0.15533414461474143  1.0000
  Zr  Zr3       1.0  0.002058582971500301  0.0740574247335317  0.019122626775761407  1.0000
  Zr  Zr4       1.0  0.083975552634449  0.1025104650262776  0.20919991098616467  1.0000
  Zr  Zr5       1.0  0.16248884855065168  0.9645562990479277  0.9661089313600614  1.0000
  Zr  Zr6       1.0  0.0540993272790971  0.9124344590087077  0.1278542352390346  1.0000
  H   H1        1.0  0.8537347267354818  0.41005404666729106  0.7439916033482135  1.0000
  H   H2        1.0  0.840466253477203  0.5619580323731057  0.7665438180649745  1.0000
  H   H3        1.0  0.3870631665993471  0.6579622147830761  0.43215476637554673  1.0000
  H   H4        1.0  0.39937697544395684  0.5064060810696843  0.4062822547878256  1.0000
  H   H5        1.0  0.7812606656189658  0.7613753157138275  0.4671071795059661  1.0000
  H   H6        1.0  0.8001591805155925  0.7471996079839441  0.6192634147661452  1.0000
  H   H7        1.0  0.47287672202963893  0.2952601864500437  0.7090520859084394  1.0000
  H   H8        1.0  0.449670015820594  0.3088106714534149  0.557341362132796  1.0000
  H   H9        1.0  0.5021134622591532  0.6900860546124505  0.8154340120972706  1.0000
  H   H10       1.0  0.6543457677041997  0.7102330798168095  0.8015607166714177  1.0000
  H   H11       1.0  0.7454711807528086  0.3840509378468083  0.3502986052300373  1.0000
  H   H12       1.0  0.5936423755644782  0.3606103970666226  0.3639065915326683  1.0000
  H   H13       1.0  0.24161530994078356  0.1513542240758454  0.20454125839456347  1.0000
  H   H14       1.0  0.11410997202864338  0.10118240246912788  0.9043231094385862  1.0000
  H   H15       1.0  0.9404039918270328  0.0251221064577081  0.1557680691373378  1.0000
  H   H16       1.0  0.19021939693444523  0.8501929035730172  0.07871881479108822  1.0000
  H   H17       1.0  0.8673031619367321  0.4095047664148197  0.2824885017146244  1.0000
  H   H18       1.0  0.715250234590421  0.3316187711110672  0.09011588689674711  1.0000
  H   H19       1.0  0.8088625754128174  0.23168022555657322  0.05384450961967251  1.0000
  H   H20       1.0  0.9560268895789932  0.30269758185575296  0.24990347025232046  1.0000
  H   H21       1.0  0.5024920252521312  0.2874350295413494  0.32467561729509253  1.0000
  H   H22       1.0  0.5180642972335933  0.3696593494330073  0.09103378271906591  1.0000
  H   H23       1.0  0.42525290211015937  0.26486689725419416  0.04614574853773232  1.0000
  H   H24       1.0  0.4183894610024836  0.17807477156921442  0.27680619550634594  1.0000
  H   H25       1.0  0.8275079325780084  0.7931172424505846  0.12083535813226125  1.0000
  H   H26       1.0  0.8305184330856789  0.8905718974870781  0.8947875334553077  1.0000
  H   H27       1.0  0.7439783001788527  0.7843089613408835  0.8436852142572493  1.0000
  H   H28       1.0  0.7326873948435731  0.6912943706853909  0.07337947841521951  1.0000
  H   H29       1.0  0.3800312857785356  0.6672005947083974  0.8833171066052048  1.0000
  H   H30       1.0  0.534752364459699  0.7375175919147665  0.07620410466804371  1.0000
  H   H31       1.0  0.4442228182115713  0.839593112005886  0.11487176079912591  1.0000
  H   H32       1.0  0.29454008701271306  0.7758066211885222  0.9183430547856873  1.0000
  H   H33       1.0  0.7283578869871192  0.5699294060735696  0.9940458676332753  1.0000
  H   H34       1.0  0.4997020752792806  0.6031750530615128  0.08077871614768382  1.0000
  H   H35       1.0  0.517648085416127  0.49706513590177803  0.16878453945911084  1.0000
  H   H36       1.0  0.7464869241752297  0.4642209010647207  0.08219629275897943  1.0000
  H   H37       1.0  0.420550003093652  0.0349893365967162  0.6788190949011652  1.0000
  H   H38       1.0  0.4991583993154833  0.2273606588956554  0.8309876227144104  1.0000
  H   H39       1.0  0.3922002286726851  0.1947685212314383  0.9199119290511322  1.0000
  H   H40       1.0  0.3202896545805771  0.9988735635884538  0.7724565074702668  1.0000
  H   H41       1.0  0.4551330999003226  0.03460644622760609  0.4860844323006646  1.0000
  H   H42       1.0  0.3831403312077484  0.27096892488992796  0.46077054772253234  1.0000
  H   H43       1.0  0.2731880271569693  0.22394248422825308  0.377314409535849  1.0000
  H   H44       1.0  0.35056310781061467  0.990156070580987  0.39312426180887894  1.0000
  H   H45       1.0  0.8824326724044127  0.06692232519244358  0.7923605239134874  1.0000
  H   H46       1.0  0.9784095023422382  0.8402164255290357  0.7962492129598646  1.0000
  H   H47       1.0  0.8724148561695556  0.7889421918461891  0.7098871313564674  1.0000
  H   H48       1.0  0.7812032247782311  0.0193981210962733  0.6972368010359917  1.0000
  H   H49       1.0  0.8279813859073143  0.022523647477335398  0.5005022345268841  1.0000
  H   H50       1.0  0.7579637352976575  0.8297759968858783  0.3451106746679501  1.0000
  H   H51       1.0  0.8663724217618238  0.86578105752627  0.2594757958652211  1.0000
  H   H52       1.0  0.9300669149503663  0.06204595509174031  0.4100832239675186  1.0000
  H   H53       1.0  0.6925522604763683  0.0252899857268858  0.46381950190060195  1.0000
  H   H54       1.0  0.6594547718691288  0.9404485365152695  0.6933513081910477  1.0000
  H   H55       1.0  0.5535921352048803  0.028203238510791092  0.7107221268161936  1.0000
  H   H56       1.0  0.5861942002395962  0.1128172625952217  0.48098135409087217  1.0000
  H   H57       1.0  0.0869659997722465  0.7215384745046833  0.29012370609299154  1.0000
  H   H58       1.0  0.28676118497011055  0.8674083518667783  0.3532301879016373  1.0000
  H   H59       1.0  0.3215120996275331  0.7792961050376518  0.46003411148290513  1.0000
  H   H60       1.0  0.12457152786935669  0.628834120272856  0.39065959155447433  1.0000
  H   H61       1.0  0.3624552415893588  0.4027654606927129  0.3496321664499079  1.0000
  H   H62       1.0  0.12532937754750859  0.4414586632711917  0.41142292710760847  1.0000
  H   H63       1.0  0.08044832111966121  0.3480082300203549  0.3074518065587172  1.0000
  H   H64       1.0  0.3157867426408528  0.31965646317281227  0.23932746983077646  1.0000
  H   H65       1.0  0.9272356988126446  0.746657622254254  0.9365670737644296  1.0000
  H   H66       1.0  0.1597221613621969  0.7280261205689768  0.8573376195249482  1.0000
  H   H67       1.0  0.1142739700933433  0.6321203132312476  0.7559476339535962  1.0000
  H   H68       1.0  0.8788229970719782  0.6608213119734927  0.8289440964198322  1.0000
  H   H69       1.0  0.9202136368636288  0.2885063574163951  0.7209389152131183  1.0000
  H   H70       1.0  0.1163186134982936  0.44184847766216256  0.7859210319156349  1.0000
  H   H71       1.0  0.1544052809291401  0.3526480798051423  0.8894739886068807  1.0000
  H   H72       1.0  0.9551287803572489  0.20419106228424508  0.8305867069561474  1.0000
  H   H73       1.0  0.1091073193981345  0.405169551438881  0.6467368219797862  1.0000
  H   H74       1.0  0.04180485038975949  0.6432798893989257  0.631816818870256  1.0000
  H   H75       1.0  0.1305887033154391  0.6622220481286192  0.5272551973825729  1.0000
  H   H76       1.0  0.19754934764946344  0.42395157177838166  0.5415111860911211  1.0000
  C   C1        1.0  0.9742308264754413  0.4395969964176132  0.7158130742497877  1.0000
  C   C2        1.0  0.8970848618909315  0.45404524150151104  0.7298493534978762  1.0000
  C   C3        1.0  0.8906474801514008  0.5348770346003846  0.7425412716556467  1.0000
  C   C4        1.0  0.9636065131735737  0.5706437631686967  0.736132852289707  1.0000
  C   C5        1.0  0.26658642276387207  0.6283055038489849  0.4602582389112585  1.0000
  C   C6        1.0  0.34359849517282726  0.6138567040192056  0.44565442150482687  1.0000
  C   C7        1.0  0.3495944967687805  0.5332101557522577  0.43138545072158513  1.0000
  C   C8        1.0  0.2765571438189482  0.4975168992293888  0.4375426381616593  1.0000
  C   C9        1.0  0.7541041040672667  0.8822372251568993  0.4962118640223779  1.0000
  C   C10       1.0  0.7669422022468522  0.804799563498385  0.5107757244262033  1.0000
  C   C11       1.0  0.7777221796827903  0.7979043958191736  0.5917088557331951  1.0000
  C   C12       1.0  0.7713195112463396  0.8708855837217442  0.6272855429495297  1.0000
  C   C13       1.0  0.49680942322179067  0.17371643051195915  0.6797880593929337  1.0000
  C   C14       1.0  0.4851846100043886  0.25133989921031485  0.6651362788537298  1.0000
  C   C15       1.0  0.472188756118605  0.257911471364082  0.584470094729298  1.0000
  C   C16       1.0  0.47614739740149775  0.18459020800884934  0.5490240283404193  1.0000
  C   C17       1.0  0.5310534165493195  0.6635770237545202  0.9363630523367096  1.0000
  C   C18       1.0  0.5457906932562864  0.6762875237638821  0.8589957735779381  1.0000
  C   C19       1.0  0.626700533016553  0.6878383668826302  0.8522868437118449  1.0000
  C   C20       1.0  0.662142825911225  0.6820295767715195  0.9252966499651338  1.0000
  C   C21       1.0  0.7162332466324131  0.4075813707096642  0.22871038080737804  1.0000
  C   C22       1.0  0.7015955846159371  0.3960172215332065  0.30626697200109027  1.0000
  C   C23       1.0  0.6208662500089943  0.3828529438428916  0.31290253941450896  1.0000
  C   C24       1.0  0.5854004337974599  0.3865459179971609  0.23969828028048576  1.0000
  C   C25       1.0  0.06584523072032061  0.23263386152721213  0.9412769034466354  1.0000
  C   C26       1.0  0.35981752888464763  0.1513553333305708  0.1285013129382406  1.0000
  C   C27       1.0  0.16605743853217086  0.27057629783759996  0.20399677491494123  1.0000
  C   C28       1.0  0.27614329039719365  0.08795616244327681  0.8936959928138678  1.0000
  C   C29       1.0  0.1775265491108584  0.840511140656453  0.24068720965760096  1.0000
  C   C30       1.0  0.8909421497758955  0.9108096886029671  0.042573749693325204  1.0000
  C   C31       1.0  0.2418939976909513  0.07498447938855432  0.3229070608455872  1.0000
  C   C32       1.0  0.32157653935242786  0.8873988473512925  0.028438748290668104  1.0000
  C   C33       1.0  0.9993173988870013  0.9882461244226517  0.8561918429861068  1.0000
  C   C34       1.0  0.9303474447452161  0.18725120946019302  0.14272672213925836  1.0000
  C   C35       1.0  0.9780525871304275  0.9758106759719778  0.2870445447371566  1.0000
  C   C36       1.0  0.0766966237914843  0.8007493928376447  0.9652517628166208  1.0000
  C   C37       1.0  0.8543947346750185  0.3706484768326134  0.23234081795660444  1.0000
  C   C38       1.0  0.7830147548957453  0.37568242747217795  0.19093053168575122  1.0000
  C   C39       1.0  0.7699416687927396  0.32843326198358364  0.1229643867051351  1.0000
  C   C40       1.0  0.8211096070871519  0.2711320082731418  0.10359317004037653  1.0000
  C   C41       1.0  0.8856323205796456  0.25864215194012985  0.15237409115894712  1.0000
  C   C42       1.0  0.9039128095438258  0.31140482421002946  0.2144393214695626  1.0000
  C   C43       1.0  0.48636707751806085  0.28353739609290335  0.26313908413661846  1.0000
  C   C44       1.0  0.5184569109366562  0.337781994145395  0.21186136990279186  1.0000
  C   C45       1.0  0.49501995523812065  0.3295815761253351  0.13287777789641106  1.0000
  C   C46       1.0  0.4442589414905243  0.26935014542137026  0.1069503093681377  1.0000
  C   C47       1.0  0.4176869404492294  0.21266175588347383  0.15749931927825142  1.0000
  C   C48       1.0  0.4392809472544315  0.2208105301046075  0.23634622737206007  1.0000
  C   C49       1.0  0.8073482903366695  0.7914639308895912  0.06035226258524061  1.0000
  C   C50       1.0  0.8335446495907561  0.8500892287672881  0.011806711694013892  1.0000
  C   C51       1.0  0.8099690197002332  0.8460181483919201  0.933364044281703  1.0000
  C   C52       1.0  0.7615822694249629  0.7851226171072341  0.9048218776541221  1.0000
  C   C53       1.0  0.73011311369968  0.7287129344699892  0.9542195951690503  1.0000
  C   C54       1.0  0.7552975582730282  0.7329883343660697  0.03288067336121261  1.0000
  C   C55       1.0  0.39429846337104374  0.7049589320059296  0.9339663204825756  1.0000
  C   C56       1.0  0.4655441111965287  0.697138848435003  0.97495911380544  1.0000
  C   C57       1.0  0.48020965458122333  0.7429682920806612  0.04363511298982561  1.0000
  C   C58       1.0  0.43080362961618585  0.8014358366437974  0.0643612379471676  1.0000
  C   C59       1.0  0.3664814667327859  0.8164692339338513  0.016270292509396697  1.0000
  C   C60       1.0  0.34664173029094764  0.7652843725939888  0.9532129411244629  1.0000
  C   C61       1.0  0.6820257108333152  0.5550918272807123  0.033062067273760896  1.0000
  C   C62       1.0  0.6136633094495351  0.5970436900491833  0.03116372380031151  1.0000
  C   C63       1.0  0.5544291045514667  0.5736761930829174  0.08036369393199291  1.0000
  C   C64       1.0  0.5640928348420929  0.5121228598003853  0.1299749685822178  1.0000
  C   C65       1.0  0.6327394707647969  0.4706280562838216  0.13237406899942536  1.0000
  C   C66       1.0  0.6917784039638093  0.4936804300103007  0.08275130904180371  1.0000
  C   C67       1.0  0.41741944602072306  0.06786431590933259  0.7335205617708099  1.0000
  C   C68       1.0  0.4648474522228128  0.1358715838565629  0.7466180315109909  1.0000
  C   C69       1.0  0.4600136862028564  0.1772912474554289  0.8180648196235085  1.0000
  C   C70       1.0  0.40070718298922253  0.1594260449662599  0.8676299510984651  1.0000
  C   C71       1.0  0.3476974740677008  0.097419570948297  0.8492059178813279  1.0000
  C   C72       1.0  0.3599972741134748  0.0485588124833285  0.7846882050724134  1.0000
  C   C73       1.0  0.4172968109714433  0.07710351724986708  0.4608383760064002  1.0000
  C   C74       1.0  0.42808994532363437  0.15668579975989874  0.48181138286346237  1.0000
  C   C75       1.0  0.3767634370330057  0.2088937060898388  0.4470570588952186  1.0000
  C   C76       1.0  0.313858062136994  0.18264775099675026  0.40017001873567903  1.0000
  C   C77       1.0  0.3030258130454583  0.10330030610554528  0.3810823279066825  1.0000
  C   C78       1.0  0.35715012574952  0.05154680743108031  0.4099966858743756  1.0000
  C   C79       1.0  0.8805015622819212  0.006238105161919797  0.7724797926342504  1.0000
  C   C80       1.0  0.9386072255314701  0.9575198463409436  0.7989849301014402  1.0000
  C   C81       1.0  0.9341840573782035  0.8788846056328624  0.7756074803717754  1.0000
  C   C82       1.0  0.8734331648829396  0.8502754793798174  0.727255318995873  1.0000
  C   C83       1.0  0.817634805539356  0.8998250319352294  0.6954108484506777  1.0000
  C   C84       1.0  0.8222693931575051  0.9787011770480304  0.7202987289701497  1.0000
  C   C85       1.0  0.8334524819270682  0.9902243563384728  0.44577756052606093  1.0000
  C   C86       1.0  0.7877383006509431  0.921323838123705  0.4308612649342508  1.0000
  C   C87       1.0  0.7956125226564907  0.880631470440953  0.3594889273694549  1.0000
  C   C88       1.0  0.8558596293117872  0.9003995929003422  0.31178402262010263  1.0000
  C   C89       1.0  0.9070169865582328  0.9636028721208022  0.3318539739955284  1.0000
  C   C90       1.0  0.8919083084495865  0.011426618940063802  0.3964071358750872  1.0000
  C   C91       1.0  0.6630257447753678  0.0251563302937328  0.5185638360799275  1.0000
  C   C92       1.0  0.6865562140225663  0.976631811737846  0.5782781213848481  1.0000
  C   C93       1.0  0.6445442235457647  0.9789206134548962  0.6466281829700266  1.0000
  C   C94       1.0  0.5830071651572695  0.0283500888997708  0.6559332993059428  1.0000
  C   C95       1.0  0.5598831039913108  0.077325776593085  0.5964879499409436  1.0000
  C   C96       1.0  0.6013028445302381  0.07450599167781038  0.5277873881569164  1.0000
  C   C97       1.0  0.1379759552798347  0.7336573230785389  0.3279205542660223  1.0000
  C   C98       1.0  0.18739532418848628  0.7972952145355805  0.3129135071925973  1.0000
  C   C99       1.0  0.25097323167374697  0.8157172217435615  0.3637653631254808  1.0000
  C   C100      1.0  0.2700391154379318  0.7665880197938363  0.42297472879302234  1.0000
  C   C101      1.0  0.2281062054020282  0.6954609798822348  0.429836737754279  1.0000
  C   C102      1.0  0.1583049750911201  0.6829159909402874  0.38535640808654403  1.0000
  C   C103      1.0  0.30011828777475097  0.3923193937383189  0.3408262558199837  1.0000
  C   C104      1.0  0.24782092237468586  0.4305462579647426  0.38943841650799277  1.0000
  C   C105      1.0  0.16788165310972397  0.41315593910177023  0.375905886823908  1.0000
  C   C106      1.0  0.1422233662499153  0.36211523290803876  0.3159258907233352  1.0000
  C   C107      1.0  0.19449338689587137  0.3296311242956663  0.2643989860814814  1.0000
  C   C108      1.0  0.2740878270260724  0.34542467937873056  0.27779891333835854  1.0000
  C   C109      1.0  0.9678409095971716  0.7225670471347241  0.8960019339410012  1.0000
  C   C110      1.0  0.04712378790584641  0.7420766951293559  0.9052412666347964  1.0000
  C   C111      1.0  0.0983027510935415  0.7113266498049384  0.8515953925537618  1.0000
  C   C112      1.0  0.07210123812456709  0.658865895365352  0.7930777194524907  1.0000
  C   C113      1.0  0.9924180134157438  0.6383315880131235  0.7831757822847651  1.0000
  C   C114      1.0  0.9409174808079825  0.6742636775346256  0.8344405048320456  1.0000
  C   C115      1.0  0.9713813163663116  0.30283087298288797  0.7579366529636433  1.0000
  C   C116      1.0  0.013004595537609003  0.3737686072215212  0.7487172775032676  1.0000
  C   C117      1.0  0.0827249606805367  0.38799942529145426  0.7930265851719442  1.0000
  C   C118      1.0  0.1032131004214065  0.3393051001797005  0.8522446173488947  1.0000
  C   C119      1.0  0.0541277774524218  0.27604302531809577  0.8692920683123759  1.0000
  C   C120      1.0  0.9905322574444423  0.255861042946016  0.8189228420035877  1.0000
  C   C121      1.0  0.11319345860474782  0.46218444738453707  0.6215516622001831  1.0000
  C   C122      1.0  0.06906019611007959  0.5234053027263741  0.6498724330884188  1.0000
  C   C123      1.0  0.0764443356641209  0.5947905011363729  0.6132601131458773  1.0000
  C   C124      1.0  0.1265167387242272  0.6051736953245667  0.5523255340582055  1.0000
  C   C125      1.0  0.17084258031956515  0.5440421014073138  0.5241216277412165  1.0000
  C   C126      1.0  0.16310163931310478  0.4724826408739986  0.5603916945091144  1.0000
  N   N1        1.0  0.013582634642865797  0.5124362888018651  0.7089767922281851  1.0000
  N   N2        1.0  0.22682238952523187  0.5554977101282219  0.4655560139267792  1.0000
  N   N3        1.0  0.7461294198015977  0.9214646376577844  0.5686314757286014  1.0000
  N   N4        1.0  0.5015693073880739  0.13370651249298504  0.6072512037161034  1.0000
  N   N5        1.0  0.6035249221843203  0.6564177152167047  0.9757651928729206  1.0000
  N   N6        1.0  0.6436490310772597  0.4122731698781408  0.18879422393948186  1.0000
  O   O1        1.0  0.009282583050236303  0.18937756793555854  0.9616394089501131  1.0000
  O   O2        1.0  0.35499099332206896  0.08488148689611562  0.15816372057722117  1.0000
  O   O3        1.0  0.19584835349502328  0.26520215275081677  0.13778883483055893  1.0000
  O   O4        1.0  0.2584284493193394  0.14511392352061142  0.9373761973809497  1.0000
  O   O5        1.0  0.23565741934815063  0.024117059761927403  0.883387715839085  1.0000
  O   O6        1.0  0.1127776970427377  0.2244448839321507  0.22869222053198265  1.0000
  O   O7        1.0  0.31393428586463296  0.17512543481353046  0.0747281373630031  1.0000
  O   O8        1.0  0.1319097588438609  0.2405546745535716  0.9780242722864827  1.0000
  O   O9        1.0  0.2180413507704912  0.0383139097210972  0.04884397372998001  1.0000
  O   O10       1.0  0.08558913908536428  0.1289008442407322  0.09237813406299722  1.0000
  O   O11       1.0  0.20803027615768593  0.11787638909194703  0.17105673946542774  1.0000
  O   O12       1.0  0.11640565043203571  0.08466120051974  0.9575324756622198  1.0000
  O   O13       1.0  0.2347500543340146  0.8836544769100739  0.22157046457185464  1.0000
  O   O14       1.0  0.8968090569899728  0.9769646884939648  0.012647543788958184  1.0000
  O   O15       1.0  0.1758623745938834  0.10519454770261659  0.3180561154378836  1.0000
  O   O16       1.0  0.2772546024535743  0.906512581028977  0.9724544853547815  1.0000
  O   O17       1.0  0.0651975462946766  0.9580487630622656  0.8618752747497143  1.0000
  O   O18       1.0  0.9744474056498759  0.16949345075040162  0.19948685878589603  1.0000
  O   O19       1.0  0.9972266129210607  0.9194508894627801  0.24313474160585005  1.0000
  O   O20       1.0  0.04652120554166571  0.807033366817528  0.031067807150876103  1.0000
  O   O21       1.0  0.015137897111642902  0.04190212544699531  0.2945516494388799  1.0000
  O   O22       1.0  0.1334811613537923  0.8437901561745561  0.9418165324463674  1.0000
  O   O23       1.0  0.2655568760313756  0.0213119877395869  0.2768170251566461  1.0000
  O   O24       1.0  0.9198056488773361  0.14695506569034925  0.0789659965472964  1.0000
  O   O25       1.0  0.9769726476805898  0.04576019508529331  0.8986684665275322  1.0000
  O   O26       1.0  0.32951956101767615  0.9244245367062404  0.094329221259251  1.0000
  O   O27       1.0  0.1135016873043924  0.8297525764687562  0.20088921457509204  1.0000
  O   O28       1.0  0.9334228782016396  0.8881091279065813  0.09991047608959042  1.0000
  O   O29       1.0  0.0589424092865798  0.9698675529483083  0.023980626959207992  1.0000
  O   O30       1.0  0.12831748965941608  0.9955816509077166  0.18234745965411045  1.0000
  O   O31       1.0  0.993544246401626  0.027302592570777103  0.1389869616216544  1.0000
  O   O32       1.0  0.1735939904219492  0.90341986872086  0.08058687934801163  1.0000
