data_image0
_chemical_formula_structural       Cu6H20C24I6N12
_chemical_formula_sum              "Cu6 H20 C24 I6 N12"
_cell_length_a       7.5232143104172655
_cell_length_b       7.537215456236172
_cell_length_c       16.00673288315325
_cell_angle_alpha    77.22825959807192
_cell_angle_beta     87.52163240246591
_cell_angle_gamma    88.73324957302512

_space_group_name_H-M_alt    "P 1"
_space_group_IT_number       1

loop_
  _space_group_symop_operation_xyz
  'x, y, z'

loop_
  _atom_site_type_symbol
  _atom_site_label
  _atom_site_symmetry_multiplicity
  _atom_site_fract_x
  _atom_site_fract_y
  _atom_site_fract_z
  _atom_site_occupancy
  Cu  Cu1       1.0  0.682373788153825  0.4216407829851504  0.3751886140750927  1.0000
  Cu  Cu2       1.0  0.317631104008548  0.5783593474791999  0.6248108270621487  1.0000
  Cu  Cu3       1.0  0.6718585692975055  0.27622994600763195  0.17274668371192803  1.0000
  Cu  Cu4       1.0  0.3281410382968204  0.7237647222013024  0.8272539528062739  1.0000
  Cu  Cu5       1.0  0.7765677379412069  0.9854789453105394  0.2712061189279069  1.0000
  Cu  Cu6       1.0  0.22343171384357413  0.014525180486096205  0.728794887293063  1.0000
  H   H1        1.0  0.9073086637887046  0.26083800255535283  0.8612048594669872  1.0000
  H   H2        1.0  0.09269212422911718  0.7391633686989251  0.13879701329558  1.0000
  H   H3        1.0  0.9498045609705772  0.2457375713374645  0.7600859111876872  1.0000
  H   H4        1.0  0.0502001568266621  0.754269232961704  0.2399154095453895  1.0000
  H   H5        1.0  0.7095310197198826  0.028044335304905105  0.4578677698806716  1.0000
  H   H6        1.0  0.2904593589141697  0.9719518375817275  0.5421303325640707  1.0000
  H   H7        1.0  0.7073988624136475  0.8425143769866067  0.6071138191545489  1.0000
  H   H8        1.0  0.29258750091099023  0.15748177172345373  0.39288495682716734  1.0000
  H   H9        1.0  0.6677828189726895  0.9995892390339589  0.7302533258713809  1.0000
  H   H10       1.0  0.332219510781819  0.0004110233742765028  0.269743632416457  1.0000
  H   H11       1.0  0.6442446501634649  0.5080474572049667  0.5430877397754301  1.0000
  H   H12       1.0  0.3557749298923625  0.4919499570022765  0.4569111604584607  1.0000
  H   H13       1.0  0.7957465518399119  0.8035871241336209  0.8450748853603971  1.0000
  H   H14       1.0  0.204246453508901  0.19640762011514573  0.15492457010410024  1.0000
  H   H15       1.0  0.8934459469586358  0.8623111846594257  0.9838682900864413  1.0000
  H   H16       1.0  0.1065470829184179  0.13768359131682223  0.0161305371193379  1.0000
  H   H17       1.0  0.8535053897848215  0.6161033979894766  0.11758753384384599  1.0000
  H   H18       1.0  0.14649288157645657  0.3838940247618225  0.8824122361327655  1.0000
  H   H19       1.0  0.6406751512149498  0.26517396704525  0.984348381195872  1.0000
  H   H20       1.0  0.35932044437510047  0.7348248208889457  0.015651292278420218  1.0000
  C   C1        1.0  0.6917534815236692  0.0924820357428047  0.5123740098359804  1.0000
  C   C2        1.0  0.3082407930837832  0.9075181465847988  0.48762492378453015  1.0000
  C   C3        1.0  0.6911476897399851  0.9897266183388851  0.5959747585138403  1.0000
  C   C4        1.0  0.3088506339829067  0.010275011769223906  0.40402211836443774  1.0000
  C   C5        1.0  0.6705933371079453  0.0764319166953698  0.6641801340233827  1.0000
  C   C6        1.0  0.32940497733715557  0.9235683215362939  0.3358174978014291  1.0000
  C   C7        1.0  0.6511741865985669  0.26636345184044063  0.6455329745322589  1.0000
  C   C8        1.0  0.3488373873666574  0.7336339457411467  0.35446664451684745  1.0000
  C   C9        1.0  0.6537133830086147  0.3598762061408891  0.5597326662271842  1.0000
  C   C10       1.0  0.3462915369871311  0.6401280999527755  0.440264510070449  1.0000
  C   C11       1.0  0.6237659407686705  0.3736124763516599  0.7106918587038324  1.0000
  C   C12       1.0  0.3762401682907281  0.626388884834725  0.28930995368774154  1.0000
  C   C13       1.0  0.6528949516053829  0.4897343489344052  0.8239686835848234  1.0000
  C   C14       1.0  0.3471018608816935  0.5102656697218322  0.1760333611438014  1.0000
  C   C15       1.0  0.7151597126864077  0.5275895240816408  0.9036001952091797  1.0000
  C   C16       1.0  0.28483319785462413  0.4724092371590131  0.09640013670934172  1.0000
  C   C17       1.0  0.7837679168690386  0.6993805881657805  0.9039562554193099  1.0000
  C   C18       1.0  0.21623292948303433  0.3006222384199049  0.0960436058792808  1.0000
  C   C19       1.0  0.8383974177733435  0.7316123674784406  0.9809657840896691  1.0000
  C   C20       1.0  0.1615981473158286  0.268389140753662  0.019033636008998718  1.0000
  C   C21       1.0  0.8176917745123831  0.5956885513616753  0.055115695349258025  1.0000
  C   C22       1.0  0.18229313921584375  0.4043115851297543  0.9448846004379449  1.0000
  C   C23       1.0  0.6984388306401003  0.39863071260185  0.9810365812802222  1.0000
  C   C24       1.0  0.30155533657662664  0.6013679509393695  0.018965620321715417  1.0000
  I   I1        1.0  0.9296008381397911  0.2817662838506791  0.28285985237772593  1.0000
  I   I2        1.0  0.07040128941621052  0.71823647676306  0.7171412503455629  1.0000
  I   I3        1.0  0.6261813236496535  0.9604439512953815  0.134803302023606  1.0000
  I   I4        1.0  0.3738329844210567  0.0395535364347168  0.8651944020638356  1.0000
  I   I5        1.0  0.8503297753410238  0.7212787038286876  0.39123811425581323  1.0000
  I   I6        1.0  0.1496696976668375  0.2787213097936032  0.6087639002873146  1.0000
  N   N1        1.0  0.6734046287311416  0.27584215659759076  0.493953060676134  1.0000
  N   N2        1.0  0.326601468382961  0.7241647086395843  0.5060469884467409  1.0000
  N   N3        1.0  0.5048854886485328  0.5096157851690607  0.7074234411536866  1.0000
  N   N4        1.0  0.49511679535466147  0.49038855768603173  0.2925731370707183  1.0000
  N   N5        1.0  0.521296831577601  0.5805029248758514  0.7787159282683335  1.0000
  N   N6        1.0  0.4787054212870742  0.41949309844809335  0.2212845513765558  1.0000
  N   N7        1.0  0.7183228263426925  0.3595461660506416  0.7830025368940099  1.0000
  N   N8        1.0  0.28167674477810317  0.6404539744815948  0.21699696461422502  1.0000
  N   N9        1.0  0.8524686085226422  0.22967503961203306  0.8089656108421226  1.0000
  N   N10       1.0  0.1475336628976152  0.770323767464788  0.19103335890969933  1.0000
  N   N11       1.0  0.7466144366013125  0.432584336013683  0.05608102863882892  1.0000
  N   N12       1.0  0.2533904038370878  0.5674226269229192  0.9439171508006299  1.0000
