data_image0
_chemical_formula_structural       Cu2H40C32N16Cl4
_chemical_formula_sum              "Cu2 H40 C32 N16 Cl4"
_cell_length_a       7.250626711004642
_cell_length_b       11.473469747959996
_cell_length_c       12.730435270614137
_cell_angle_alpha    109.9459346605486
_cell_angle_beta     89.99988378421226
_cell_angle_gamma    89.9999733627031

_space_group_name_H-M_alt    "P 1"
_space_group_IT_number       1

loop_
  _space_group_symop_operation_xyz
  'x, y, z'

loop_
  _atom_site_type_symbol
  _atom_site_label
  _atom_site_symmetry_multiplicity
  _atom_site_fract_x
  _atom_site_fract_y
  _atom_site_fract_z
  _atom_site_occupancy
  Cu  Cu1       1.0  0.25391631302464646  0.828606750477249  0.416729985317815  1.0000
  Cu  Cu2       1.0  0.753924005656195  0.171392717545622  0.5832664889014225  1.0000
  H   H1        1.0  0.18665964527076534  0.93915883179875  0.6149246277898257  1.0000
  H   H2        1.0  0.6866557504030907  0.060839744439832096  0.385075568044229  1.0000
  H   H3        1.0  0.9838860308196188  0.8928285900524885  0.5555110374386558  1.0000
  H   H4        1.0  0.4838855645345389  0.10717434786119641  0.4444941275307315  1.0000
  H   H5        1.0  0.5232808544669324  0.8349228611531815  0.2903486681552606  1.0000
  H   H6        1.0  0.023286234557893692  0.16508144741393957  0.7096479883197729  1.0000
  H   H7        1.0  0.32076330098849576  0.8410013951127343  0.23046551980550592  1.0000
  H   H8        1.0  0.8207689092618721  0.15899432043416792  0.7695273579643143  1.0000
  H   H9        1.0  0.9913822065514777  0.6329243109881518  0.4544540263128027  1.0000
  H   H10       1.0  0.4913729211722994  0.367074911827146  0.5455499736998917  1.0000
  H   H11       1.0  0.8310537662724113  0.704171256859887  0.5636966599256681  1.0000
  H   H12       1.0  0.3310545963234404  0.2958308793553357  0.4363092038158811  1.0000
  H   H13       1.0  0.977299073667872  0.5838334421842221  0.5732029134521568  1.0000
  H   H14       1.0  0.4772943505035555  0.41617136873892957  0.42680048525781444  1.0000
  H   H15       1.0  0.2538539579133356  0.7161690936127414  0.5868924747706998  1.0000
  H   H16       1.0  0.7538553375909486  0.2838340353684429  0.4131137804336831  1.0000
  H   H17       1.0  0.9080177252215618  0.9550390620577006  0.7448699707535128  1.0000
  H   H18       1.0  0.40802629626450226  0.04495748045734161  0.2551277847090176  1.0000
  H   H19       1.0  0.8841782928774649  0.023368844993108005  0.9517053593033963  1.0000
  H   H20       1.0  0.3842008833789094  0.9766407331234317  0.04829019694072654  1.0000
  H   H21       1.0  0.23303712328428358  0.7205689935076621  0.953668227304135  1.0000
  H   H22       1.0  0.7330495632716134  0.27945823383424784  0.046350268058326094  1.0000
  H   H23       1.0  0.27122457891151436  0.6596960985645312  0.7480420441153868  1.0000
  H   H24       1.0  0.7712251617721576  0.340310641776547  0.251980242264068  1.0000
  H   H25       1.0  0.548583760836827  0.4962623143343734  0.20486310516928796  1.0000
  H   H26       1.0  0.0485913672663614  0.5037372976842819  0.7951391314643956  1.0000
  H   H27       1.0  0.4836980469146538  0.6002968580914966  0.33911980258864105  1.0000
  H   H28       1.0  0.9837122003759544  0.39970239298320115  0.6608802867645592  1.0000
  H   H29       1.0  0.6779131055632914  0.6341025061860535  0.2694719151680047  1.0000
  H   H30       1.0  0.17791828422927836  0.3658932654904063  0.7305329152708993  1.0000
  H   H31       1.0  0.27398403245069136  0.6225383565035257  0.19393528906369542  1.0000
  H   H32       1.0  0.7739783352099605  0.3774611075220379  0.8060588059432092  1.0000
  H   H33       1.0  0.6269494567154011  0.8205313845292396  0.12417608966654829  1.0000
  H   H34       1.0  0.1269266084937186  0.17945988150228226  0.8758116813919655  1.0000
  H   H35       1.0  0.7157967967059448  0.7900320372402164  0.9294805954606673  1.0000
  H   H36       1.0  0.2157825280125962  0.20994800971497093  0.0705067291068957  1.0000
  H   H37       1.0  0.44808784525145734  0.4339861279304671  0.8181226854007946  1.0000
  H   H38       1.0  0.9480706302219417  0.5660010913270028  0.1818752659871663  1.0000
  H   H39       1.0  0.34792837912982577  0.4667093882191438  0.012746447008623785  1.0000
  H   H40       1.0  0.8479081024146922  0.5332797835388874  0.9872498626193786  1.0000
  C   C1        1.0  0.9702073021280596  0.6642514459944807  0.5452105367668311  1.0000
  C   C2        1.0  0.47019562456696207  0.3357468458852965  0.45479712354177343  1.0000
  C   C3        1.0  0.11673610662674609  0.7596095100456922  0.6056211292279202  1.0000
  C   C4        1.0  0.6167293091167422  0.24038633100008874  0.3943806459220056  1.0000
  C   C5        1.0  0.0937805950991617  0.803269919007704  0.7317299630536951  1.0000
  C   C6        1.0  0.5937825816585515  0.19673055571145434  0.26827720723694887  1.0000
  C   C7        1.0  0.9840552185727631  0.9051644371453661  0.7902232447093027  1.0000
  C   C8        1.0  0.4840625537512366  0.09484593113418074  0.20978187748654883  1.0000
  C   C9        1.0  0.9676370939628283  0.9432430706576156  0.9062420454060458  1.0000
  C   C10       1.0  0.4676545504407911  0.05676641481976219  0.0937573206655813  1.0000
  C   C11       1.0  0.0576632503897301  0.8762996445570299  0.964161178538234  1.0000
  C   C12       1.0  0.5576744456028776  0.12371850341687458  0.03584682095628009  1.0000
  C   C13       1.0  0.16472861726496998  0.772816753407433  0.9077955849637931  1.0000
  C   C14       1.0  0.664756084469701  0.2271947611413836  0.09221966091963199  1.0000
  C   C15       1.0  0.18367065973524888  0.738507724527608  0.792171484722033  1.0000
  C   C16       1.0  0.6836714591606777  0.26150008694843757  0.2078386601197622  1.0000
  C   C17       1.0  0.5385638076455094  0.594274972064234  0.25714572160092075  1.0000
  C   C18       1.0  0.0385661566734399  0.4057218756149083  0.7428540937793428  1.0000
  C   C19       1.0  0.41316645874206864  0.6624800144923669  0.20075512546657134  1.0000
  C   C20       1.0  0.9131704661035797  0.3375165366955741  0.7992402706277986  1.0000
  C   C21       1.0  0.4773680355550595  0.6466756826796215  0.0830236053150415  1.0000
  C   C22       1.0  0.9773619285635817  0.35331525956778626  0.9169684045342237  1.0000
  C   C23       1.0  0.5834181990000786  0.7360107564687014  0.0582394125578318  1.0000
  C   C24       1.0  0.08341021844609742  0.26397868782182604  0.9417486230892749  1.0000
  C   C25       1.0  0.6364463995420876  0.719279286423813  0.948544559361075  1.0000
  C   C26       1.0  0.13643629853705616  0.28071103130605474  0.051445262826589996  1.0000
  C   C27       1.0  0.5853034305377065  0.6110631048340097  0.8630834782085587  1.0000
  C   C28       1.0  0.08529431624131688  0.3889216671515427  0.136909384583582  1.0000
  C   C29       1.0  0.4835122142093978  0.5190353282068331  0.8857180506483431  1.0000
  C   C30       1.0  0.9835077219959131  0.48095928276785566  0.1142813794021649  1.0000
  C   C31       1.0  0.429716648845904  0.5379157097375895  0.9954242257622141  1.0000
  C   C32       1.0  0.9297125878149685  0.4620761697350703  0.004573625449054933  1.0000
  N   N1        1.0  0.11714991707703595  0.8637272643380173  0.5613893859475851  1.0000
  N   N2        1.0  0.6171540468572516  0.13627225899574574  0.4386182486746293  1.0000
  N   N3        1.0  0.39437480293280197  0.7943236991625467  0.2722921122604162  1.0000
  N   N4        1.0  0.8943805429852887  0.20567658107082562  0.7277036796506664  1.0000
  N   N5        1.0  0.4885731113689572  0.8192084153514901  0.5011238271961248  1.0000
  N   N6        1.0  0.9885907755667488  0.18078438043049525  0.49886717687596155  1.0000
  N   N7        1.0  0.024001212791979795  0.7624070404636144  0.323892510222791  1.0000
  N   N8        1.0  0.5240016141881368  0.23759539573345737  0.676106704497009  1.0000
  N   N9        1.0  0.6038223622408266  0.8955399854008307  0.5397464351540009  1.0000
  N   N10       1.0  0.10384252517466308  0.1044549959484087  0.4602448741564373  1.0000
  N   N11       1.0  0.7239084351696262  0.9667970655775948  0.5798059346809054  1.0000
  N   N12       1.0  0.22392741531208318  0.033195959389772205  0.42018463735882966  1.0000
  N   N13       1.0  0.90288660972503  0.8303957306826534  0.3178311043848439  1.0000
  N   N14       1.0  0.40288933384301356  0.1696110326055447  0.6821666974333952  1.0000
  N   N15       1.0  0.7808971541549139  0.8936288828021262  0.30819109877065637  1.0000
  N   N16       1.0  0.28089712128235783  0.10637057099989991  0.6918037712079865  1.0000
  Cl  Cl1       1.0  0.03021897090303579  0.9213227060696456  0.10821206028278146  1.0000
  Cl  Cl2       1.0  0.5302269183562983  0.0787214480995502  0.8918001397824113  1.0000
  Cl  Cl3       1.0  0.6471742120032004  0.5913837372619781  0.7262838505901642  1.0000
  Cl  Cl4       1.0  0.14716732077498307  0.40859636798625604  0.2737035652763211  1.0000
