data_image0
_chemical_formula_structural       Al2H7C20S2ClO10F2
_chemical_formula_sum              "Al2 H7 C20 S2 Cl1 O10 F2"
_cell_length_a       6.631587478391834
_cell_length_b       11.158554329202886
_cell_length_c       12.687578043845058
_cell_angle_alpha    79.81156015903358
_cell_angle_beta     75.88763366958322
_cell_angle_gamma    71.71283390417739

_space_group_name_H-M_alt    "P 1"
_space_group_IT_number       1

loop_
  _space_group_symop_operation_xyz
  'x, y, z'

loop_
  _atom_site_type_symbol
  _atom_site_label
  _atom_site_symmetry_multiplicity
  _atom_site_fract_x
  _atom_site_fract_y
  _atom_site_fract_z
  _atom_site_occupancy
  Al  Al1       1.0  0.4934507157539941  0.4989360360172909  0.4997113998269213  1.0000
  Al  Al2       1.0  0.9938981947821048  0.4951281784796678  0.5037912747658737  1.0000
  H   H1        1.0  0.23214131122176695  0.4181097771777403  0.6327218147324131  1.0000
  H   H2        1.0  0.701194877781596  0.6523001764557889  0.440964499058822  1.0000
  H   H3        1.0  0.6556084561001896  0.5800194401017433  0.14774893017277443  1.0000
  H   H4        1.0  0.26021663423559727  0.24491280400647497  0.3719282599402191  1.0000
  H   H5        1.0  0.47133320713562904  0.7778417295636616  0.3527745865116358  1.0000
  H   H6        1.0  0.7400767716452279  0.877679123892918  0.5609469111613592  1.0000
  H   H7        1.0  0.6219211824824953  0.1148750387591733  0.5546029737604028  1.0000
  C   C1        1.0  0.8571677042883862  0.27374297682833054  0.487271339861408  1.0000
  C   C2        1.0  0.6593066911397614  0.48883397192192757  0.6991191973548677  1.0000
  C   C3        1.0  0.1328914780787613  0.7270813316102006  0.49409583382716693  1.0000
  C   C4        1.0  0.3253195242598821  0.4995884617790836  0.3066966122564381  1.0000
  C   C5        1.0  0.4299304946868573  0.4429088304058838  0.8896669220265634  1.0000
  C   C6        1.0  0.5526971082559484  0.5394773234147152  0.11859310834279305  1.0000
  C   C7        1.0  0.5922761956235121  0.48826253954440085  0.818138608333612  1.0000
  C   C8        1.0  0.3874681310298627  0.4966256580355762  0.1878899781593333  1.0000
  C   C9        1.0  0.5657001907722973  0.5219504150669393  0.009425431269512827  1.0000
  C   C10       1.0  0.41270189775525495  0.46340667440327366  0.9987808658700741  1.0000
  C   C11       1.0  0.9356842552297451  0.134732630153529  0.47658587544283637  1.0000
  C   C12       1.0  0.15281485906648132  0.0736855190990369  0.4250038267403439  1.0000
  C   C13       1.0  0.7884732352945534  0.06511154810920061  0.5197876921773456  1.0000
  C   C14       1.0  0.3027583965003586  0.1428097779613822  0.37027819564027437  1.0000
  C   C15       1.0  0.5025548311092578  0.0812853886382356  0.31397406597291416  1.0000
  C   C16       1.0  0.06580383867685652  0.8686930973216037  0.47834956665281675  1.0000
  C   C17       1.0  0.8540223373550329  0.9323824885457412  0.5221293016363404  1.0000
  C   C18       1.0  0.21686965660999405  0.9381241560207412  0.42319980910350796  1.0000
  C   C19       1.0  0.42383199345549355  0.8786536104827505  0.36186716131054897  1.0000
  C   C20       1.0  0.562401161186564  0.9489882841239207  0.3087204617779307  1.0000
  S   S1        1.0  0.7266233777769884  0.5529019167159958  0.8851708310532513  1.0000
  S   S2        1.0  0.2482103238681646  0.4338192831987797  0.12209981726077498  1.0000
  Cl  Cl1       1.0  0.2738320455685185  0.36415053135886666  0.8568581097118723  1.0000
  O   O1        1.0  0.6656614993433718  0.331043264108736  0.47299050370927626  1.0000
  O   O2        1.0  0.8426078589350466  0.5092692891997501  0.6551085035520428  1.0000
  O   O3        1.0  0.997339506719235  0.6714211347769277  0.48551078180425106  1.0000
  O   O4        1.0  0.4516883785933033  0.5291101934905241  0.35230954972485756  1.0000
  O   O5        1.0  0.31999656952620364  0.6722992603451559  0.5164996017744983  1.0000
  O   O6        1.0  0.14946179427682443  0.4731103508399101  0.35538408876814737  1.0000
  O   O7        1.0  0.9827489462908899  0.3243594744210583  0.5137848952736093  1.0000
  O   O8        1.0  0.5294782744872678  0.46949767959137007  0.6491506381355521  1.0000
  O   O9        1.0  0.2509427399831664  0.4390994633426004  0.5539406720745319  1.0000
  O   O10       1.0  0.7347450924736876  0.560451331901902  0.45439298250467164  1.0000
  F   F1        1.0  0.6457436575276887  0.1465176442513538  0.26041143512803433  1.0000
  F   F2        1.0  0.7588619588123036  0.8928876475278786  0.24877714582107302  1.0000
