data_image0
_chemical_formula_structural       Cd2H24C28N20
_chemical_formula_sum              "Cd2 H24 C28 N20"
_cell_length_a       8.905623887799
_cell_length_b       9.663103694289285
_cell_length_c       10.055817477018634
_cell_angle_alpha    90.00009525667036
_cell_angle_beta     89.99977942876285
_cell_angle_gamma    116.82284572452511

_space_group_name_H-M_alt    "P 1"
_space_group_IT_number       1

loop_
  _space_group_symop_operation_xyz
  'x, y, z'

loop_
  _atom_site_type_symbol
  _atom_site_label
  _atom_site_symmetry_multiplicity
  _atom_site_fract_x
  _atom_site_fract_y
  _atom_site_fract_z
  _atom_site_occupancy
  Cd  Cd1       1.0  0.9999999086651458  0.5000002203187179  0.49999981513222025  1.0000
  Cd  Cd2       1.0  0.49999988358902675  0.49999882100951965  0.9999997985735619  1.0000
  H   H1        1.0  0.9841820579414886  0.9562041847486211  0.17907154996364483  1.0000
  H   H2        1.0  0.5158174622606851  0.043798355903021495  0.6790717437830835  1.0000
  H   H3        1.0  0.0158159746877686  0.0437969666975775  0.8209277962897092  1.0000
  H   H4        1.0  0.4841811283340646  0.9561993246529993  0.32092959136500815  1.0000
  H   H5        1.0  0.005125149168684079  0.610132351705893  0.1696604801918582  1.0000
  H   H6        1.0  0.4948782518749369  0.38987092068262547  0.6696625777566825  1.0000
  H   H7        1.0  0.994875697034196  0.38986996735825835  0.8303378716083927  1.0000
  H   H8        1.0  0.5051237161894447  0.6101290871182384  0.3303397518367461  1.0000
  H   H9        1.0  0.8790751071146943  0.6965855793394412  0.118484701744606  1.0000
  H   H10       1.0  0.6209258012863615  0.30341465617117785  0.618485947129706  1.0000
  H   H11       1.0  0.12092742486100858  0.3034155880886686  0.8815126556026128  1.0000
  H   H12       1.0  0.37907560287762726  0.6965841920026891  0.381516382463758  1.0000
  H   H13       1.0  0.2967604148191683  0.1219378084403857  0.5281843973124225  1.0000
  H   H14       1.0  0.2032379780299394  0.8780608277496426  0.0281840419331232  1.0000
  H   H15       1.0  0.703237614842635  0.8780610277472362  0.4718159433883146  1.0000
  H   H16       1.0  0.7967572380604367  0.12193684082007648  0.9718162987714793  1.0000
  H   H17       1.0  0.1706955504791381  0.17731066026070147  0.3241306346171626  1.0000
  H   H18       1.0  0.32930379407255833  0.8226902692743964  0.8241290172140979  1.0000
  H   H19       1.0  0.8293024791804842  0.8226881759268707  0.6758707005328121  1.0000
  H   H20       1.0  0.6706931107537244  0.17730856291777294  0.1758713234885505  1.0000
  H   H21       1.0  0.2193067607492409  0.8447748367210223  0.5829673272726197  1.0000
  H   H22       1.0  0.280691391276477  0.15522379393323155  0.0829695287151893  1.0000
  H   H23       1.0  0.7806912689169394  0.15522399946669202  0.417031024529642  1.0000
  H   H24       1.0  0.7193055135498057  0.8447750382589306  0.9170308119874591  1.0000
  C   C1        1.0  0.011503365508922113  0.7850268411422476  0.3013028156912441  1.0000
  C   C2        1.0  0.48849832906052637  0.214974098690405  0.8013016717448521  1.0000
  C   C3        1.0  0.9884980416225206  0.2149743222902103  0.6986985194548367  1.0000
  C   C4        1.0  0.5115008284064332  0.7850270567513038  0.19869668005734553  1.0000
  C   C5        1.0  0.04099791086085258  0.935878563313594  0.268340871770839  1.0000
  C   C6        1.0  0.45900280376709907  0.0641223758542608  0.7683405814117563  1.0000
  C   C7        1.0  0.9589995578658234  0.0641214285055653  0.731659468931781  1.0000
  C   C8        1.0  0.5410014139683171  0.9358776399375017  0.2316617481778422  1.0000
  C   C9        1.0  0.9165974739832522  0.6525983325902871  0.20627159771504472  1.0000
  C   C10       1.0  0.5834064259929974  0.3474042212946671  0.7062720469903355  1.0000
  C   C11       1.0  0.08340449705077192  0.34740399046921067  0.7937287429817559  1.0000
  C   C12       1.0  0.41659554207357274  0.6525957865062394  0.2937292881538554  1.0000
  C   C13       1.0  0.21334591784513893  0.028819754947022602  0.4633563193611394  1.0000
  C   C14       1.0  0.28665225375041115  0.9711823161511719  0.963357073942035  1.0000
  C   C15       1.0  0.7866515508837254  0.9711802368721862  0.536643026892243  1.0000
  C   C16       1.0  0.7133446510736904  0.0288165160409477  0.03664426120985101  1.0000
  C   C17       1.0  0.14426090507145523  0.05922362079735419  0.3495367742506161  1.0000
  C   C18       1.0  0.3557366390580583  0.9407761425479746  0.8495372446065232  1.0000
  C   C19       1.0  0.8557348749215026  0.940775207399412  0.650462572004713  1.0000
  C   C20       1.0  0.644260829666436  0.0592238492711346  0.1504640905453343  1.0000
  C   C21       1.0  0.17308035347666353  0.8755041546921801  0.49295883594052736  1.0000
  C   C22       1.0  0.3269204985956123  0.1244967657741043  0.992960087028081  1.0000
  C   C23       1.0  0.8269199288236351  0.1244970047449243  0.5070405103089897  1.0000
  C   C24       1.0  0.6730775310661912  0.8755020704135106  0.007040253672648999  1.0000
  C   C25       1.0  0.7662510310340024  0.5161800744322064  0.2597890249170192  1.0000
  C   C26       1.0  0.7337515058872981  0.48382015479101165  0.7597891798792207  1.0000
  C   C27       1.0  0.2337509370391189  0.48381993336885637  0.740209326879466  1.0000
  C   C28       1.0  0.26625158404952737  0.5161775417468134  0.2402121552612115  1.0000
  N   N1        1.0  0.07560912724615326  0.7562294353706066  0.4137917974995702  1.0000
  N   N2        1.0  0.4243920728397512  0.24377149309542287  0.9137899237798095  1.0000
  N   N3        1.0  0.9243917159849034  0.24377056843485434  0.586209537646539  1.0000
  N   N4        1.0  0.5756087703956682  0.7562285107101446  0.08620942246783163  1.0000
  N   N5        1.0  0.6161392909043499  0.44688864026123554  0.19841181859002435  1.0000
  N   N6        1.0  0.8838646436194895  0.5531139144178641  0.6984135615026545  1.0000
  N   N7        1.0  0.38386267717096  0.5531113675398773  0.8015855387572302  1.0000
  N   N8        1.0  0.11613676351195319  0.44688724901459403  0.3015877736434193  1.0000
  N   N9        1.0  0.7608580868003187  0.43912913973108664  0.37215179154560474  1.0000
  N   N10       1.0  0.7391445171255456  0.5608699225066758  0.8721520514355134  1.0000
  N   N11       1.0  0.23914444516882585  0.5608720276968739  0.62784854914932  1.0000
  N   N12       1.0  0.26085744797794064  0.43912777003574627  0.1278482892575923  1.0000
  N   N13       1.0  0.5171689139764909  0.32500277758582297  0.27596799119522336  1.0000
  N   N14       1.0  0.9828329908905077  0.6749986056341372  0.7759676028201811  1.0000
  N   N15       1.0  0.48283136832380796  0.6749983818512888  0.7240313550543008  1.0000
  N   N16       1.0  0.017167291409791098  0.3250025538029746  0.224031743429336  1.0000
  N   N17       1.0  0.6036190975785728  0.32008201687480653  0.3799245795771924  1.0000
  N   N18       1.0  0.8963823503097571  0.6799193558406457  0.8799244938534656  1.0000
  N   N19       1.0  0.39638230955723947  0.679919146557751  0.6200747666704133  1.0000
  N   N20       1.0  0.10361793199054152  0.3200818035964589  0.12007485239605842  1.0000
