data_image0
_chemical_formula_structural       MnH18C20I8O12
_chemical_formula_sum              "Mn1 H18 C20 I8 O12"
_cell_length_a       9.74050648363927
_cell_length_b       10.136320710487833
_cell_length_c       10.261278115802504
_cell_angle_alpha    100.55007326027466
_cell_angle_beta     101.06194736012313
_cell_angle_gamma    111.82633626175651

_space_group_name_H-M_alt    "P 1"
_space_group_IT_number       1

loop_
  _space_group_symop_operation_xyz
  'x, y, z'

loop_
  _atom_site_type_symbol
  _atom_site_label
  _atom_site_symmetry_multiplicity
  _atom_site_fract_x
  _atom_site_fract_y
  _atom_site_fract_z
  _atom_site_occupancy
  Mn  Mn1       1.0  0.5000007559686424  0.4999995989456492  0.49999814276368676  1.0000
  H   H1        1.0  0.7847316336516811  0.3251253975134957  0.40563457320850915  1.0000
  H   H2        1.0  0.21527094113676523  0.6748749292246996  0.594352332276827  1.0000
  H   H3        1.0  0.7370959152390809  0.32475700273182884  0.5668469892457608  1.0000
  H   H4        1.0  0.2629080920403836  0.6752488263898043  0.4331460832528009  1.0000
  H   H5        1.0  0.8265623246842749  0.4960918381319458  0.5264442250400947  1.0000
  H   H6        1.0  0.17343696236996203  0.5039105630512066  0.4735435968889019  1.0000
  H   H7        1.0  0.4799241516174392  0.5958671745807748  0.2080536681002414  1.0000
  H   H8        1.0  0.5200766279386713  0.4041374548703516  0.7919474866486595  1.0000
  H   H9        1.0  0.30774294271519403  0.44025928816751037  0.09938942206465379  1.0000
  H   H10       1.0  0.692260548182432  0.5597476148059854  0.9006057396308689  1.0000
  H   H11       1.0  0.4772780566176776  0.41488150653965755  0.17108405849077707  1.0000
  H   H12       1.0  0.5227290674458233  0.5851266070625769  0.8289118596679613  1.0000
  H   H13       1.0  0.5145696665166993  0.26921501534619097  0.39593725543532793  1.0000
  H   H14       1.0  0.4854330404796058  0.730784221000867  0.6040621341861153  1.0000
  H   H15       1.0  0.2650267365456428  0.36603853238002404  0.28679013578270224  1.0000
  H   H16       1.0  0.7349737333814658  0.6339584494191114  0.7132026377176145  1.0000
  H   H17       1.0  0.7104168067309472  0.035831857394782694  0.6808059310270946  1.0000
  H   H18       1.0  0.2895794233859944  0.9641551579756037  0.3192037801513122  1.0000
  C   C1        1.0  0.2869998662516764  0.18817597005443787  0.45736615923980384  1.0000
  C   C2        1.0  0.7130028857937987  0.811823267510199  0.5426342124609177  1.0000
  C   C3        1.0  0.1382389374216189  0.08703065197812518  0.476470284467055  1.0000
  C   C4        1.0  0.8617650096828768  0.9129686240422714  0.5235331913277292  1.0000
  C   C5        1.0  0.14140378310522547  0.017215864687479196  0.582653488236481  1.0000
  C   C6        1.0  0.8585996655187598  0.9827823038956252  0.41734872258442113  1.0000
  C   C7        1.0  0.0034465345709903924  0.9311167185897699  0.6072303414451097  1.0000
  C   C8        1.0  0.9965540976514616  0.0688824493688429  0.39276971454320625  1.0000
  C   C9        1.0  0.745189976139926  0.3795133144006612  0.48380055448476605  1.0000
  C   C10       1.0  0.2548096834938248  0.6204945543629135  0.5161932766012498  1.0000
  C   C11       1.0  0.4087518567922217  0.4777033511039547  0.18903755745352405  1.0000
  C   C12       1.0  0.5912530272624252  0.5223014139064688  0.8109612824823456  1.0000
  C   C13       1.0  0.854218308147068  0.18805205733466573  0.8469888064521313  1.0000
  C   C14       1.0  0.1457770215781834  0.8119458425649949  0.1530199981534038  1.0000
  C   C15       1.0  0.9248426991184074  0.35144207587286047  0.9203971760468405  1.0000
  C   C16       1.0  0.0751543270860111  0.6485580639637405  0.07960645972838877  1.0000
  C   C17       1.0  0.8657244866841649  0.40406107416970355  0.022493987190095814  1.0000
  C   C18       1.0  0.13427041969723064  0.5959389960608803  0.9775093328727209  1.0000
  C   C19       1.0  0.9408756432935377  0.5523349719686904  0.10287459048347361  1.0000
  C   C20       1.0  0.05911535668732874  0.44766278628377154  0.8971316185386654  1.0000
  I   I1        1.0  0.35856218306890497  0.057266904415406786  0.7092166996464895  1.0000
  I   I2        1.0  0.6414378304872199  0.942727877120134  0.2907853288574812  1.0000
  I   I3        1.0  0.00957156797378641  0.8444281053654732  0.7786960973132507  1.0000
  I   I4        1.0  0.990427295572488  0.15556663893188727  0.2213038091759429  1.0000
  I   I5        1.0  0.6593063600904615  0.2566064061124677  0.04885680195378234  1.0000
  I   I6        1.0  0.34068286843869094  0.7433956616515544  0.9511412263645765  1.0000
  I   I7        1.0  0.8567007059841883  0.6336828656876962  0.25861776974817735  1.0000
  I   I8        1.0  0.14329052218216276  0.36631599269655607  0.7413838117721381  1.0000
  O   O1        1.0  0.3300050563356932  0.32589357637963434  0.5134184132571491  1.0000
  O   O2        1.0  0.6699958040722506  0.6741066917107758  0.4865770152293364  1.0000
  O   O3        1.0  0.3591140202176817  0.13350637309317648  0.3884325431802579  1.0000
  O   O4        1.0  0.6408918364256734  0.8664896911122851  0.611572521657912  1.0000
  O   O5        1.0  0.5968176174111902  0.3734592944141965  0.4174157407305115  1.0000
  O   O6        1.0  0.4031803243107248  0.6265365127767878  0.5825774162420813  1.0000
  O   O7        1.0  0.35726477150024033  0.46039411257518736  0.31065584080941727  1.0000
  O   O8        1.0  0.6427371037700453  0.5396061891006524  0.689338763453989  1.0000
  O   O9        1.0  0.8932811374690599  0.10468764763871258  0.9018183943602834  1.0000
  O   O10       1.0  0.10672277089312834  0.8953148969160905  0.09820132767445242  1.0000
  O   O11       1.0  0.7514526028173164  0.148439351206747  0.7253202026525328  1.0000
  O   O12       1.0  0.2485434742507948  0.8515498418000432  0.2746899164588682  1.0000
