data_image0
_chemical_formula_structural       Cu4H44C36S4N4O16
_chemical_formula_sum              "Cu4 H44 C36 S4 N4 O16"
_cell_length_a       8.63222455560961
_cell_length_b       10.67824573218947
_cell_length_c       11.877930993126016
_cell_angle_alpha    106.66138084981418
_cell_angle_beta     89.99839739644783
_cell_angle_gamma    90.00191227114719

_space_group_name_H-M_alt    "P 1"
_space_group_IT_number       1

loop_
  _space_group_symop_operation_xyz
  'x, y, z'

loop_
  _atom_site_type_symbol
  _atom_site_label
  _atom_site_symmetry_multiplicity
  _atom_site_fract_x
  _atom_site_fract_y
  _atom_site_fract_z
  _atom_site_occupancy
  Cu  Cu1       1.0  0.5249721801230578  0.3641740419102745  0.4062271964564985  1.0000
  Cu  Cu2       1.0  0.024967920212652903  0.1358292306197768  0.0937651447348102  1.0000
  Cu  Cu3       1.0  0.4750322587918633  0.6358301770975742  0.5937730492054598  1.0000
  Cu  Cu4       1.0  0.9750353600975643  0.8641681073506718  0.9062357744802441  1.0000
  H   H1        1.0  0.5101913270074548  0.5490872757106117  0.7971906104723843  1.0000
  H   H2        1.0  0.010170403474411706  0.9509146139064198  0.7028094431200459  1.0000
  H   H3        1.0  0.48981427024681784  0.4509139590485489  0.20281219970539877  1.0000
  H   H4        1.0  0.9898270844171223  0.0490874163780859  0.2972053689018992  1.0000
  H   H5        1.0  0.5909764809477025  0.43584508423308677  0.9440789781014942  1.0000
  H   H6        1.0  0.09095797048532013  0.064155840304025  0.5559136688520638  1.0000
  H   H7        1.0  0.4090337500366417  0.5641464411388384  0.05591700840383849  1.0000
  H   H8        1.0  0.9090360420285254  0.9358423061661086  0.4440984137400577  1.0000
  H   H9        1.0  0.7477221611140479  0.23339918413731198  0.883863645141311  1.0000
  H   H10       1.0  0.24771780502717894  0.26660242441771936  0.6161183626492033  1.0000
  H   H11       1.0  0.2522822778162848  0.7665924970170935  0.1161222796992618  1.0000
  H   H12       1.0  0.7522738906973815  0.7333987062881774  0.38389115543560587  1.0000
  H   H13       1.0  0.8384577093532216  0.15113391532348427  0.6763189319262821  1.0000
  H   H14       1.0  0.3384789255797856  0.34886105208816787  0.8236509894139061  1.0000
  H   H15       1.0  0.16153282820927473  0.8488587561005331  0.3236664176668498  1.0000
  H   H16       1.0  0.6615150872005985  0.6511459952177957  0.17635675350764757  1.0000
  H   H17       1.0  0.8505167341273039  0.3334099442857905  0.4718260014095392  1.0000
  H   H18       1.0  0.3505162527482996  0.1665967381426228  0.028157149423101692  1.0000
  H   H19       1.0  0.14948654640527798  0.6665923977576397  0.528168687155194  1.0000
  H   H20       1.0  0.6494905028720056  0.8334063605936918  0.9718520563275134  1.0000
  H   H21       1.0  0.8674542951826895  0.17359301647493197  0.48831959231439737  1.0000
  H   H22       1.0  0.36746798625311783  0.32641891843660176  0.011665463619991098  1.0000
  H   H23       1.0  0.1325455099662776  0.8264102640054531  0.5116778748287416  1.0000
  H   H24       1.0  0.6325341355511257  0.6735841672607278  0.9883445806402804  1.0000
  H   H25       1.0  0.7145202761022562  0.1886159822273186  0.32764115483881545  1.0000
  H   H26       1.0  0.21451561613296388  0.31139459705922695  0.1723399670651347  1.0000
  H   H27       1.0  0.2854818458884695  0.8113814596282936  0.6723530565798725  1.0000
  H   H28       1.0  0.7854772380590235  0.688605582196594  0.8276676109339078  1.0000
  H   H29       1.0  0.4955723214817312  0.13468270210046276  0.4990925813978678  1.0000
  H   H30       1.0  0.9955863431464639  0.3653135476620548  0.0008839154752706991  1.0000
  H   H31       1.0  0.5044298005205619  0.8653186105434686  0.5009051979517878  1.0000
  H   H32       1.0  0.004419254036946501  0.6346789421084154  0.9991131726657514  1.0000
  H   H33       1.0  0.6519133642883618  0.027790870619107  0.4384436982182578  1.0000
  H   H34       1.0  0.15193463543852204  0.4722068028147319  0.06152093191499121  1.0000
  H   H35       1.0  0.34808528240147046  0.972206610159496  0.5615479977991313  1.0000
  H   H36       1.0  0.8480674864265013  0.5277866773417229  0.9384755809019935  1.0000
  H   H37       1.0  0.4287093921503597  0.9440818086065048  0.316722636963938  1.0000
  H   H38       1.0  0.9287349560343544  0.5559198866953564  0.18324534484835905  1.0000
  H   H39       1.0  0.5712823039282002  0.0559234656201966  0.6832728410640243  1.0000
  H   H40       1.0  0.07125326467718203  0.4440728236645909  0.8167374893349688  1.0000
  H   H41       1.0  0.549183435346798  0.017252442465562  0.232166387325627  1.0000
  H   H42       1.0  0.0492030420526817  0.48276539263203944  0.2678074813010412  1.0000
  H   H43       1.0  0.45080478547385644  0.9827577318972516  0.7678295678824298  1.0000
  H   H44       1.0  0.950792129497849  0.5172467366834042  0.7321890001080149  1.0000
  C   C1        1.0  0.6314161466312528  0.41462561170444434  0.6530683531479582  1.0000
  C   C2        1.0  0.13141749790370483  0.08537725822821328  0.8469197701409145  1.0000
  C   C3        1.0  0.3685917676987175  0.585378659291244  0.34692853858602746  1.0000
  C   C4        1.0  0.8685880992026257  0.9146248240958528  0.15309168791900868  1.0000
  C   C5        1.0  0.584168666425704  0.4630726570547878  0.7710541421373307  1.0000
  C   C6        1.0  0.08416326581314593  0.0369281026595516  0.7289394432373372  1.0000
  C   C7        1.0  0.4158357724287357  0.5369276522029621  0.22894505102048868  1.0000
  C   C8        1.0  0.9158376974492558  0.9630700828499527  0.27107012387688206  1.0000
  C   C9        1.0  0.6284000255574257  0.398598343084771  0.8528107585724528  1.0000
  C   C10       1.0  0.12838651031012205  0.1014083301365218  0.6471809770789534  1.0000
  C   C11       1.0  0.3716090471166353  0.6013990858611605  0.14718429127076854  1.0000
  C   C12       1.0  0.8716121360651531  0.8985927616851794  0.3528310563816176  1.0000
  C   C13       1.0  0.7179974644589893  0.2849663055356614  0.8198794220758286  1.0000
  C   C14       1.0  0.2180035938155669  0.2150385233195564  0.6801057519017135  1.0000
  C   C15       1.0  0.28199770680187447  0.7150291813673133  0.1801142631418529  1.0000
  C   C16       1.0  0.7819927356458866  0.7849606265884859  0.31990491684819494  1.0000
  C   C17       1.0  0.7669814779866968  0.2386546480416953  0.7033138008646631  1.0000
  C   C18       1.0  0.2669931668133502  0.2613453838252013  0.7966707514398834  1.0000
  C   C19       1.0  0.23301832709022116  0.7613408519002645  0.2966790458433692  1.0000
  C   C20       1.0  0.7330101133604857  0.738656672498486  0.20334238358828574  1.0000
  C   C21       1.0  0.7285006894684616  0.30294436831842114  0.6200449273221977  1.0000
  C   C22       1.0  0.22851465050786152  0.19704993030462953  0.8799380363406186  1.0000
  C   C23       1.0  0.2714967987690642  0.697055041347781  0.3799489719069911  1.0000
  C   C24       1.0  0.7714909465391673  0.8029472778190723  0.12007126761351833  1.0000
  C   C25       1.0  0.7874416956164013  0.2559697924335397  0.49673168167996806  1.0000
  C   C26       1.0  0.28745346976958075  0.2440364984049523  0.0032501436586472076  1.0000
  C   C27       1.0  0.21255810956755283  0.7440315851208368  0.503261905308662  1.0000
  C   C28       1.0  0.7125474935393683  0.7559636549668625  0.9967591112320305  1.0000
  C   C29       1.0  0.5718709263243654  0.1009790914336506  0.4222451082151579  1.0000
  C   C30       1.0  0.07188508406630234  0.39901962341856717  0.07772819538854484  1.0000
  C   C31       1.0  0.42812772036072744  0.8990222471460141  0.5777509942088058  1.0000
  C   C32       1.0  0.92811587931854  0.6009719018499097  0.9222677911848861  1.0000
  C   C33       1.0  0.4786315516903059  0.03717232263581139  0.3123985190242209  1.0000
  C   C34       1.0  0.9786494031667416  0.4628353171853662  0.1875788688534286  1.0000
  C   C35       1.0  0.5213601443532666  0.9628348545168988  0.6876008391582502  1.0000
  C   C36       1.0  0.021345768155789806  0.5371631150174493  0.8124147672667519  1.0000
  S   S1        1.0  0.31692357006967603  0.13450525063005606  0.2938303533045925  1.0000
  S   S2        1.0  0.8169262714193978  0.36551061210178654  0.2061458607140949  1.0000
  S   S3        1.0  0.6830704427163498  0.865510489715554  0.7061864655561579  1.0000
  S   S4        1.0  0.1830770091075422  0.6344830369020045  0.7938397519114416  1.0000
  N   N1        1.0  0.6608088769326274  0.2139872730490922  0.40864011060313027  1.0000
  N   N2        1.0  0.16081090316323102  0.2860162815623326  0.0913377063654224  1.0000
  N   N3        1.0  0.33919324512095983  0.7860121496560949  0.5913529501164021  1.0000
  N   N4        1.0  0.8391877432831906  0.7139800399570858  0.9086654651844768  1.0000
  O   O1        1.0  0.5849928379120046  0.4698119381210475  0.5697847539308611  1.0000
  O   O2        1.0  0.08498872711368932  0.030194691644894096  0.9302112365548254  1.0000
  O   O3        1.0  0.41501507644820634  0.5301942877497011  0.43021266405519043  1.0000
  O   O4        1.0  0.9150249790200603  0.9698005357197418  0.0697992180388809  1.0000
  O   O5        1.0  0.38655276138568706  0.258898626540784  0.2776366076788435  1.0000
  O   O6        1.0  0.8865323365769485  0.24110810350141074  0.22233149653428802  1.0000
  O   O7        1.0  0.6134412515613195  0.7411056572870011  0.7223594456816684  1.0000
  O   O8        1.0  0.11347557756445072  0.7588902249455528  0.7776688472971429  1.0000
  O   O9        1.0  0.22305864993120395  0.15934482770142466  0.39975040341593626  1.0000
  O   O10       1.0  0.7230620625496869  0.34069437889024096  0.10023235428179332  1.0000
  O   O11       1.0  0.7769434723165888  0.840669230592141  0.6002482811453405  1.0000
  O   O12       1.0  0.2769458514579882  0.6592932237184498  0.8997634182120322  1.0000
  O   O13       1.0  0.2407526018643509  0.0616231487709058  0.1843931095077735  1.0000
  O   O14       1.0  0.7407668647356261  0.4383889028801633  0.315593759224619  1.0000
  O   O15       1.0  0.7592367770255494  0.9383780338581716  0.8156130546916175  1.0000
  O   O16       1.0  0.25922946508101324  0.5616134260984255  0.6844017678667953  1.0000
