data_image0
_chemical_formula_structural       Cd4H28C36N4O28
_chemical_formula_sum              "Cd4 H28 C36 N4 O28"
_cell_length_a       7.231665137596145
_cell_length_b       11.580355455529892
_cell_length_c       12.976459533405425
_cell_angle_alpha    102.57632636482454
_cell_angle_beta     90.00121140774394
_cell_angle_gamma    90.00054481201956

_space_group_name_H-M_alt    "P 1"
_space_group_IT_number       1

loop_
  _space_group_symop_operation_xyz
  'x, y, z'

loop_
  _atom_site_type_symbol
  _atom_site_label
  _atom_site_symmetry_multiplicity
  _atom_site_fract_x
  _atom_site_fract_y
  _atom_site_fract_z
  _atom_site_occupancy
  Cd  Cd1       1.0  0.9097633050847093  0.8361078110536867  0.7861706147388644  1.0000
  Cd  Cd2       1.0  0.4097609786759762  0.6638983593853354  0.7138290654169738  1.0000
  Cd  Cd3       1.0  0.09022655943140728  0.1638945342114724  0.2138326425861479  1.0000
  Cd  Cd4       1.0  0.5902454794305001  0.33609777557974513  0.28617149699585553  1.0000
  H   H1        1.0  0.34706611524416087  0.3674391863887936  0.7000038288587547  1.0000
  H   H2        1.0  0.8470658561159466  0.132561869741501  0.8000123006386987  1.0000
  H   H3        1.0  0.6529348116426092  0.6325578332677041  0.299996897869825  1.0000
  H   H4        1.0  0.15292400828184327  0.8674298589198346  0.1999889844450351  1.0000
  H   H5        1.0  0.8272791902962099  0.9379762777589493  0.6169321094269479  1.0000
  H   H6        1.0  0.3272899998641917  0.5620291821809644  0.8830710804387322  1.0000
  H   H7        1.0  0.17271758820276523  0.0620225199912809  0.38306971825583264  1.0000
  H   H8        1.0  0.6727136926914524  0.4379713850352048  0.11693107599803909  1.0000
  H   H9        1.0  0.8574998391445731  0.7984839829973255  0.5680014733646388  1.0000
  H   H10       1.0  0.35750909636006867  0.7015225716355857  0.9319961144641056  1.0000
  H   H11       1.0  0.14249970492041797  0.20151566476688743  0.43199742958807974  1.0000
  H   H12       1.0  0.6424959789392801  0.29847620011616277  0.0680033964484466  1.0000
  H   H13       1.0  0.3755856354247768  0.10424478656639738  0.7596738435239844  1.0000
  H   H14       1.0  0.8755843750779346  0.3957582158901971  0.7403352805608279  1.0000
  H   H15       1.0  0.6243945491800461  0.8957512528088002  0.24031822367837916  1.0000
  H   H16       1.0  0.12441240332803717  0.6042387690313262  0.2596623570371364  1.0000
  H   H17       1.0  0.0168377925991336  0.34241611883303585  0.11982429729019368  1.0000
  H   H18       1.0  0.5168423278596136  0.15759760423993194  0.3801806341146232  1.0000
  H   H19       1.0  0.9831866421955625  0.6575959497998343  0.8801799958826351  1.0000
  H   H20       1.0  0.48315859910604086  0.8424064931524456  0.6198214074414778  1.0000
  H   H21       1.0  0.19859098206016768  0.4230572235332986  0.0740862471440096  1.0000
  H   H22       1.0  0.6985835687451497  0.07694315711138702  0.4259199115215964  1.0000
  H   H23       1.0  0.8014458978286355  0.5769406810063843  0.9259146441829814  1.0000
  H   H24       1.0  0.30141459256147846  0.9230582774383012  0.5740808646797504  1.0000
  H   H25       1.0  0.9948204236244463  0.3918497237919781  0.9993758498935961  1.0000
  H   H26       1.0  0.49482578383110354  0.10815783319743133  0.5006278337387045  1.0000
  H   H27       1.0  0.0051984799604057  0.6081641142492915  0.0006287719484206098  1.0000
  H   H28       1.0  0.5051765259760471  0.8918454055211951  0.4993763603001398  1.0000
  C   C1        1.0  0.35834522923594386  0.9021259127928117  0.8262786292731974  1.0000
  C   C2        1.0  0.8583438173906899  0.5978816124346126  0.673726084836929  1.0000
  C   C3        1.0  0.6416474008016804  0.09787198286336012  0.173721489476705  1.0000
  C   C4        1.0  0.14166402347947124  0.402117133293075  0.3262711092677081  1.0000
  C   C5        1.0  0.3029056855620879  0.021662110706181202  0.8877648387017629  1.0000
  C   C6        1.0  0.8029008463017532  0.47834193710820483  0.612238989982835  1.0000
  C   C7        1.0  0.6970910929027738  0.9783375457241946  0.11223483650769592  1.0000
  C   C8        1.0  0.19710284613184828  0.5216594367144227  0.3877563803271045  1.0000
  C   C9        1.0  0.3165883621468879  0.1169145814686843  0.8385478543954363  1.0000
  C   C10       1.0  0.8165811625200518  0.3830975900110546  0.6614607290138892  1.0000
  C   C11       1.0  0.6834056506493624  0.8830841641950754  0.16144933961498248  1.0000
  C   C12       1.0  0.18341699872795658  0.6169038098228442  0.3385369580851147  1.0000
  C   C13       1.0  0.2533308791674004  0.2285285914935429  0.8890719475483594  1.0000
  C   C14       1.0  0.7533214489204525  0.2714751194450003  0.6109420173939669  1.0000
  C   C15       1.0  0.7466714305515367  0.7714719583583405  0.11092866432782245  1.0000
  C   C16       1.0  0.24667671239603808  0.7285271998216701  0.3890589231608246  1.0000
  C   C17       1.0  0.17395147280804216  0.2429716536052311  0.990935069103088  1.0000
  C   C18       1.0  0.673950418253014  0.2570312626914628  0.5090724082427158  1.0000
  C   C19       1.0  0.826053602574717  0.7570306830512978  0.00906741604998728  1.0000
  C   C20       1.0  0.32604774301896816  0.7429657569522448  0.4909283184670202  1.0000
  C   C21       1.0  0.23337885065913608  0.04281224701298921  0.990558787519575  1.0000
  C   C22       1.0  0.7333850152189144  0.4571911580194623  0.5094440937791448  1.0000
  C   C23       1.0  0.7666082481689072  0.9571900548446521  0.009440608408667076  1.0000
  C   C24       1.0  0.2666186771848372  0.5428049248591409  0.490551834961316  1.0000
  C   C25       1.0  0.2707899272315615  0.3286422665450318  0.8338937512328289  1.0000
  C   C26       1.0  0.7707907329599735  0.17137139850357394  0.6661276655153188  1.0000
  C   C27       1.0  0.7292054683867376  0.6713564878040758  0.1661042150626031  1.0000
  C   C28       1.0  0.22920466288883284  0.8286362811259096  0.3338788947947863  1.0000
  C   C29       1.0  0.090545736598159  0.35593027697657936  0.049724899727394196  1.0000
  C   C30       1.0  0.59054856567397  0.1440735109752751  0.4502790638624532  1.0000
  C   C31       1.0  0.90947731527136  0.6440764486321982  0.9502753182130236  1.0000
  C   C32       1.0  0.4094482128055502  0.8559261541340463  0.5497213836225968  1.0000
  C   C33       1.0  0.22643871703179744  0.9435424472345915  0.050335124803204644  1.0000
  C   C34       1.0  0.7264457162368458  0.5564575214285696  0.44966239091657917  1.0000
  C   C35       1.0  0.7735442334036549  0.056462508754826515  0.9496647641570918  1.0000
  C   C36       1.0  0.2735524449469295  0.44353680934838763  0.5503347536304872  1.0000
  N   N1        1.0  0.17035821513599808  0.1505059029557216  0.0384622510402863  1.0000
  N   N2        1.0  0.6703590754353996  0.34949066046620214  0.4615413209812615  1.0000
  N   N3        1.0  0.8296399462148683  0.849498194423866  0.9615397904969712  1.0000
  N   N4        1.0  0.32963770297056527  0.6505063244553213  0.5384563166167098  1.0000
  O   O1        1.0  0.2277736795660132  0.8312016593901747  0.7837716133561871  1.0000
  O   O2        1.0  0.7277749567472682  0.6688010763455736  0.7162268026469931  1.0000
  O   O3        1.0  0.7722230988740648  0.16879446685120317  0.2162281767150986  1.0000
  O   O4        1.0  0.2722328842007045  0.33119419994575594  0.2837759122485721  1.0000
  O   O5        1.0  0.5253325342639172  0.8769816768039149  0.8091546723055602  1.0000
  O   O6        1.0  0.025331481095250297  0.6230255537839186  0.6908575809477001  1.0000
  O   O7        1.0  0.47466009586165103  0.12301627092594461  0.19085008009786006  1.0000
  O   O8        1.0  0.9746749769773757  0.37697407665436355  0.3091397775009598  1.0000
  O   O9        1.0  0.34557426631330657  0.2972729852437653  0.7389603375660769  1.0000
  O   O10       1.0  0.8455902004395239  0.2027316047148986  0.7610572014012363  1.0000
  O   O11       1.0  0.6544211293145776  0.7027240170292544  0.2610388445736405  1.0000
  O   O12       1.0  0.15439828128837965  0.7972672363917113  0.23894848760294707  1.0000
  O   O13       1.0  0.2198377874948747  0.4307222642841992  0.8745232270074794  1.0000
  O   O14       1.0  0.7198244365788609  0.06928556054995032  0.6254911032559818  1.0000
  O   O15       1.0  0.7801603736894405  0.5692773400788838  0.12547181455789064  1.0000
  O   O16       1.0  0.28017510745708313  0.9307167066494276  0.3745052036547207  1.0000
  O   O17       1.0  0.14157768659273268  0.9647508242728408  0.14017030894698476  1.0000
  O   O18       1.0  0.6415837330343094  0.5352448035500219  0.35982384837732445  1.0000
  O   O19       1.0  0.858416326252282  0.0352470713897262  0.8598298098123323  1.0000
  O   O20       1.0  0.3584088969937227  0.46475484418223095  0.6401750545282852  1.0000
  O   O21       1.0  0.30074926755297327  0.847524259823388  0.008755720719015914  1.0000
  O   O22       1.0  0.8007523900925833  0.6524790413560525  0.4912425284089182  1.0000
  O   O23       1.0  0.699236448321116  0.1524779552383819  0.9912359524439438  1.0000
  O   O24       1.0  0.19924577116927367  0.34751445677760273  0.5087590854382285  1.0000
  O   O25       1.0  0.9065384400563374  0.868135909134658  0.6184661070469346  1.0000
  O   O26       1.0  0.4065391956181088  0.6318754877303122  0.881529881650927  1.0000
  O   O27       1.0  0.09346248683070257  0.13186374731489542  0.3815335681907897  1.0000
  O   O28       1.0  0.5934686453498516  0.3681241947880451  0.11847211046067231  1.0000
