data_image0
_chemical_formula_structural       Hg4H48C60N16Cl8
_chemical_formula_sum              "Hg4 H48 C60 N16 Cl8"
_cell_length_a       9.108566314215302
_cell_length_b       12.955634635910473
_cell_length_c       13.415510933017094
_cell_angle_alpha    89.99984604116781
_cell_angle_beta     90.00013012939455
_cell_angle_gamma    102.41782784568223

_space_group_name_H-M_alt    "P 1"
_space_group_IT_number       1

loop_
  _space_group_symop_operation_xyz
  'x, y, z'

loop_
  _atom_site_type_symbol
  _atom_site_label
  _atom_site_symmetry_multiplicity
  _atom_site_fract_x
  _atom_site_fract_y
  _atom_site_fract_z
  _atom_site_occupancy
  Hg  Hg1       1.0  0.847821436588596  0.5411689143161595  0.197109850449408  1.0000
  Hg  Hg2       1.0  0.6521802234604265  0.9588305418668313  0.6971109853755948  1.0000
  Hg  Hg3       1.0  0.15217755556385273  0.45882998581219436  0.802891789444061  1.0000
  Hg  Hg4       1.0  0.347821208656093  0.0411691421559013  0.3028913999245688  1.0000
  H   H1        1.0  0.6161011709167354  0.4141514107314634  0.3893060198961322  1.0000
  H   H2        1.0  0.8838983922506997  0.08584949717895538  0.8893084820894258  1.0000
  H   H3        1.0  0.38390467091546304  0.5858553799797053  0.6106911475574178  1.0000
  H   H4        1.0  0.11609473509294328  0.9141446737680495  0.1106909215881728  1.0000
  H   H5        1.0  0.4183728108403173  0.12209134876221842  0.5526268991816679  1.0000
  H   H6        1.0  0.08163152337647264  0.37791073076305554  0.05262745952749979  1.0000
  H   H7        1.0  0.5816309492454652  0.8779122837775761  0.4473739953035079  1.0000
  H   H8        1.0  0.9183680732077163  0.6220865854420055  0.9473741803684914  1.0000
  H   H9        1.0  0.250614430214263  0.22567653001336652  0.6301056072942329  1.0000
  H   H10       1.0  0.24938766620617514  0.2743245809031833  0.1301059506133697  1.0000
  H   H11       1.0  0.7493877405600814  0.7743255250562485  0.3698952871917669  1.0000
  H   H12       1.0  0.7506108335074019  0.7256727385275425  0.8698964346875968  1.0000
  H   H13       1.0  0.8150102549132612  0.7475908816998639  0.6477923546044337  1.0000
  H   H14       1.0  0.6849934701954583  0.752408685604117  0.1477948915951686  1.0000
  H   H15       1.0  0.1849947140330812  0.2524095829960231  0.35220630366831057  1.0000
  H   H16       1.0  0.31500308199291993  0.2475894306298585  0.8522060028916059  1.0000
  H   H17       1.0  0.06864335507901846  0.7116198488118927  0.3608217630583895  1.0000
  H   H18       1.0  0.43135865112827076  0.7883788118049962  0.8608245176829428  1.0000
  H   H19       1.0  0.931365889362759  0.28838376759693324  0.639177640619394  1.0000
  H   H20       1.0  0.5686316780424008  0.2116169495166247  0.1391763768020837  1.0000
  H   H21       1.0  0.20202017248971063  0.7554205845599213  0.5268639384143298  1.0000
  H   H22       1.0  0.2979812085353544  0.7445796625783389  0.026868161138949603  1.0000
  H   H23       1.0  0.7979877288634681  0.2445822447244197  0.4731377014809155  1.0000
  H   H24       1.0  0.7020107099516152  0.2554176762090208  0.9731364603743842  1.0000
  H   H25       1.0  0.12427158647950885  0.6853987448852054  0.6354785429598805  1.0000
  H   H26       1.0  0.3757305703940333  0.814602824008155  0.13548121303818308  1.0000
  H   H27       1.0  0.875732285597195  0.3146017230354587  0.3645216061236667  1.0000
  H   H28       1.0  0.6242673248877965  0.18539607934586402  0.8645211722602609  1.0000
  H   H29       1.0  0.887534948264502  0.5671988173197136  0.7022408135344023  1.0000
  H   H30       1.0  0.6124658745222717  0.9328014202047045  0.20224276969285876  1.0000
  H   H31       1.0  0.11246990868897201  0.4328048119970874  0.2977570993283223  1.0000
  H   H32       1.0  0.3875305434371086  0.067192741061767  0.7977573793931256  1.0000
  H   H33       1.0  0.9928600680567216  0.13736820482328232  0.6889665210439873  1.0000
  H   H34       1.0  0.5071415243125301  0.36263079998568065  0.1889670060020876  1.0000
  H   H35       1.0  0.00713917031273342  0.8626314856561025  0.3110328826311672  1.0000
  H   H36       1.0  0.4928594153612238  0.6373673033429769  0.8110331430822698  1.0000
  H   H37       1.0  0.6711237179418035  0.4136782851744911  0.7091455399807529  1.0000
  H   H38       1.0  0.8288731813844592  0.08632305870293072  0.209147240068404  1.0000
  H   H39       1.0  0.32887943770737144  0.5863269312930371  0.2908516274727688  1.0000
  H   H40       1.0  0.17111994595821056  0.9136711122449698  0.790851418203374  1.0000
  H   H41       1.0  0.536310992183786  0.3392886049604301  0.5564320048239964  1.0000
  H   H42       1.0  0.9636844117928333  0.160713106220534  0.0564344653003701  1.0000
  H   H43       1.0  0.4636932603350346  0.6607166082823214  0.4435636718187296  1.0000
  H   H44       1.0  0.03630676802658441  0.8392818615288393  0.9435641929688713  1.0000
  H   H45       1.0  0.34053764046800705  0.9265176635122857  0.534328317050516  1.0000
  H   H46       1.0  0.1594655955618052  0.5734849336523026  0.0343297887486855  1.0000
  H   H47       1.0  0.6594672164893609  0.0734859658009626  0.4656725774355123  1.0000
  H   H48       1.0  0.840531807279213  0.4265123890058647  0.9656718511456006  1.0000
  C   C1        1.0  0.021306832348713625  0.9836884026887702  0.6396434035951017  1.0000
  C   C2        1.0  0.4786964322621898  0.5163131530503193  0.1396447716908753  1.0000
  C   C3        1.0  0.9786975321668621  0.0163136459295217  0.3603560000809479  1.0000
  C   C4        1.0  0.521303410539005  0.4836849535057794  0.8603546319868015  1.0000
  C   C5        1.0  0.11965973831412674  0.9245599461533659  0.5974096077425273  1.0000
  C   C6        1.0  0.3803409761335814  0.5754409263768495  0.0974121610328282  1.0000
  C   C7        1.0  0.8803435293318103  0.07544210568969593  0.4025912867443252  1.0000
  C   C8        1.0  0.6196553298319573  0.4245563995114167  0.9025864972373014  1.0000
  C   C9        1.0  0.7986218662750775  0.5325814767771035  0.4519536396168746  1.0000
  C   C10       1.0  0.7013768099183438  0.9674197557939124  0.9519555736457973  1.0000
  C   C11       1.0  0.20138397555809462  0.4674253139331698  0.5480442732425033  1.0000
  C   C12       1.0  0.2986163174252995  0.0325744151530998  0.048043830031808496  1.0000
  C   C13       1.0  0.674420739305887  0.44798008075627377  0.4565356631993821  1.0000
  C   C14       1.0  0.8255789992835005  0.05202066687657242  0.9565366323814642  1.0000
  C   C15       1.0  0.3255859531789511  0.5520259163790869  0.5434622496616797  1.0000
  C   C16       1.0  0.17441218053689062  0.9479743008719056  0.043462771293604895  1.0000
  C   C17       1.0  0.30708096853734906  0.0814086978923285  0.5771529539367819  1.0000
  C   C18       1.0  0.1929220865844314  0.41859253603952606  0.0771535805179013  1.0000
  C   C19       1.0  0.6929225453275336  0.9185941442999946  0.42284719514340446  1.0000
  C   C20       1.0  0.8070750700347135  0.5814039962720514  0.9228465685655748  1.0000
  C   C21       1.0  0.21081088766923267  0.14060459571761902  0.6207679883052393  1.0000
  C   C22       1.0  0.2891925274776312  0.35939732458236046  0.1207681720530829  1.0000
  C   C23       1.0  0.7891901862315793  0.8593974625803183  0.37923141536825966  1.0000
  C   C24       1.0  0.7108095090677153  0.6406007755197508  0.87923197703212  1.0000
  C   C25       1.0  0.873536484597217  0.5757545028474808  0.5399495444886141  1.0000
  C   C26       1.0  0.6264630640665274  0.9242469151644528  0.03995079910053081  1.0000
  C   C27       1.0  0.1264688647970829  0.42425070716516444  0.4600491137782612  1.0000
  C   C28       1.0  0.3735303094970348  0.07574804613092569  0.9600486045762366  1.0000
  C   C29       1.0  0.9022815587909251  0.8188835311689929  0.6397725081178081  1.0000
  C   C30       1.0  0.597721540956826  0.6811176391806557  0.1397728593110799  1.0000
  C   C31       1.0  0.09772475324984951  0.1811177206460499  0.36022838637243376  1.0000
  C   C32       1.0  0.40227635432112413  0.31888126417691603  0.8602265443640603  1.0000
  C   C33       1.0  0.9859991769532854  0.6579216451920685  0.4054634055929256  1.0000
  C   C34       1.0  0.5140008330155155  0.8420773207161077  0.9054653758266085  1.0000
  C   C35       1.0  0.014009463056744715  0.34208355514004307  0.5945359980823355  1.0000
  C   C36       1.0  0.4859881530626638  0.15791765348458145  0.0945347732525761  1.0000
  C   C37       1.0  0.0980073500985057  0.7275271314181069  0.568898074202238  1.0000
  C   C38       1.0  0.40199328995372957  0.7724738090849428  0.0689008943367  1.0000
  C   C39       1.0  0.9019981112906096  0.2724749139718554  0.43110282028631275  1.0000
  C   C40       1.0  0.5980008222734909  0.22752352325198896  0.9311014909608558  1.0000
  C   C41       1.0  0.8290979707007153  0.5354249091669275  0.6343067589656712  1.0000
  C   C42       1.0  0.6708998766482421  0.9645770806934664  0.1343079774346165  1.0000
  C   C43       1.0  0.17090628182004514  0.46458030407404755  0.3656904084887032  1.0000
  C   C44       1.0  0.32909434756601297  0.035417087027880705  0.8656906808380143  1.0000
  C   C45       1.0  0.067046163230593  0.0929515968359951  0.6529955600183895  1.0000
  C   C46       1.0  0.4329570897896177  0.4070494562822163  0.15299658746796752  1.0000
  C   C47       1.0  0.9329560075418044  0.9070504582353892  0.34700384365595477  1.0000
  C   C48       1.0  0.5670414099200656  0.5929478631520625  0.8470028162096952  1.0000
  C   C49       1.0  0.7069478643801544  0.449410954496308  0.6373853024182309  1.0000
  C   C50       1.0  0.7930488477004616  0.0505905604616288  0.1373870400105588  1.0000
  C   C51       1.0  0.2930552912690203  0.5505942619712202  0.3626118650352907  1.0000
  C   C52       1.0  0.20694427964318154  0.9494036104853835  0.8626123636670399  1.0000
  C   C53       1.0  0.6306533699818929  0.4068621871761665  0.5504329638249175  1.0000
  C   C54       1.0  0.8693442120844992  0.09313953185372273  0.0504354541356946  1.0000
  C   C55       1.0  0.36935137497774667  0.5931446067624364  0.44956345822195937  1.0000
  C   C56       1.0  0.13064781838755124  0.9068546423198357  0.9495639495410587  1.0000
  C   C57       1.0  0.2642779643057338  0.9721756268029011  0.5655025612421412  1.0000
  C   C58       1.0  0.23572644993869574  0.5278268928145452  0.0655035240109072  1.0000
  C   C59       1.0  0.7357277433033005  0.0278272089354274  0.4344983332455712  1.0000
  C   C60       1.0  0.7642753403876981  0.4721704169383116  0.9344973704809618  1.0000
  N   N1        1.0  0.8724903481124853  0.5860638764432906  0.3700789967378668  1.0000
  N   N2        1.0  0.6275120094890525  0.9139359577195307  0.8700802102142902  1.0000
  N   N3        1.0  0.12751634437331924  0.413942120691182  0.6299196615290228  1.0000
  N   N4        1.0  0.3724811178545835  0.08605821322747433  0.1299191934633086  1.0000
  N   N5        1.0  0.04026815674176737  0.8197785879035993  0.599175548953994  1.0000
  N   N6        1.0  0.4597339054071057  0.6802230675367369  0.0991794434337194  1.0000
  N   N7        1.0  0.9597373046473407  0.18022345748636334  0.4008253455345567  1.0000
  N   N8        1.0  0.5402637436538313  0.3197750454697968  0.9008221964597354  1.0000
  N   N9        1.0  0.887075664137079  0.9150024222806437  0.6644467951137257  1.0000
  N   N10       1.0  0.6129274999961752  0.584998689241978  0.16444891039085258  1.0000
  N   N11       1.0  0.1129276035069111  0.08499962956419442  0.3355526085614784  1.0000
  N   N12       1.0  0.3870714921543268  0.4150002108881523  0.835551238690961  1.0000
  N   N13       1.0  0.9918221245299675  0.6560738533383059  0.5073007563565994  1.0000
  N   N14       1.0  0.5081779433762393  0.84392605858514  0.007303527742656998  1.0000
  N   N15       1.0  0.008184679948705285  0.3439289791752529  0.4926986473203171  1.0000
  N   N16       1.0  0.49181348266601793  0.15606969950993493  0.9926973667432222  1.0000
  Cl  Cl1       1.0  0.8252364136037827  0.35149263915122486  0.18138350734717787  1.0000
  Cl  Cl2       1.0  0.6747640621073431  0.1485063869626373  0.6813839927746769  1.0000
  Cl  Cl3       1.0  0.17476038480451453  0.6485062674311167  0.8186173871387581  1.0000
  Cl  Cl4       1.0  0.325238466879796  0.8514932938344303  0.3186176471205044  1.0000
  Cl  Cl5       1.0  0.008857391035597614  0.7073991941330816  0.1410917385536621  1.0000
  Cl  Cl6       1.0  0.4911442880420438  0.7926007806838271  0.6410923383647784  1.0000
  Cl  Cl7       1.0  0.9911418473358041  0.2926004963445266  0.8589091559331408  1.0000
  Cl  Cl8       1.0  0.5088573902924549  0.20739969368905525  0.35890855612289124  1.0000
