data_image0
_chemical_formula_structural       Zn4H44C44N4O20
_chemical_formula_sum              "Zn4 H44 C44 N4 O20"
_cell_length_a       7.943397224
_cell_length_b       11.618700480552384
_cell_length_c       14.1677
_cell_angle_alpha    90.0
_cell_angle_beta     90.0
_cell_angle_gamma    107.49833874741925

_space_group_name_H-M_alt    "P 1"
_space_group_IT_number       1

loop_
  _space_group_symop_operation_xyz
  'x, y, z'

loop_
  _atom_site_type_symbol
  _atom_site_label
  _atom_site_symmetry_multiplicity
  _atom_site_fract_x
  _atom_site_fract_y
  _atom_site_fract_z
  _atom_site_occupancy
  Zn  Zn1       1.0  0.41815099079103385  0.0969916857783346  0.9973312534850365  1.0000
  Zn  Zn2       1.0  0.5818509491352158  0.40300773259823336  0.4973312534850365  1.0000
  Zn  Zn3       1.0  0.5818500217744074  0.9030071509748013  0.0026680406840924  1.0000
  Zn  Zn4       1.0  0.41814966653844005  0.5969902017135881  0.5026680406840924  1.0000
  H   H1        1.0  0.042429505712817686  0.0765865850857779  0.8441546616599709  1.0000
  H   H2        1.0  0.9575745551360484  0.4234119308494684  0.3441560733217131  1.0000
  H   H3        1.0  0.9575706448372043  0.9234131541086796  0.1558453383400291  1.0000
  H   H4        1.0  0.042428578352009104  0.5765860034623458  0.655845338340029  1.0000
  H   H5        1.0  0.2793160684339711  0.19313597915694203  0.734909688940334  1.0000
  H   H6        1.0  0.7206850094768525  0.3068643416609476  0.23491039477120515  1.0000
  H   H7        1.0  0.7206857379150404  0.8068646624788371  0.2650903110596659  1.0000
  H   H8        1.0  0.27931514107316957  0.69313539753351  0.7650903110596659  1.0000
  H   H9        1.0  0.9321372207609783  0.3854931514544901  0.6297338311793721  1.0000
  H   H10       1.0  0.06785928664465497  0.1145053644807561  0.1297345370102434  1.0000
  H   H11       1.0  0.0678629297890438  0.6145065877399674  0.3702661688206277  1.0000
  H   H12       1.0  0.9321366902919619  0.8854934722723797  0.8702654629897564  1.0000
  H   H13       1.0  0.6961389846481792  0.2705771761730134  0.7386858840884543  1.0000
  H   H14       1.0  0.3038605739273378  0.22941682755563161  0.23868800158106035  1.0000
  H   H15       1.0  0.30386076901005765  0.7294216605801225  0.2613134100806747  1.0000
  H   H16       1.0  0.6961367983801665  0.7705765945495814  0.7613134100806747  1.0000
  H   H17       1.0  0.5188595385104263  0.32529580318608  0.8919224715373699  1.0000
  H   H18       1.0  0.4811424014158162  0.1747036151904879  0.3919224715373701  1.0000
  H   H19       1.0  0.4811406120395957  0.6747039360083775  0.10807752846262988  1.0000
  H   H20       1.0  0.518858611149625  0.8252952215626479  0.6080768226317586  1.0000
  H   H21       1.0  0.5549646486446775  0.49456130698064277  0.8219859257324771  1.0000
  H   H22       1.0  0.4450364292661461  0.0054390138372469  0.3219866315633481  1.0000
  H   H23       1.0  0.4450351050135523  0.5054375297725002  0.1780140742675229  1.0000
  H   H24       1.0  0.5549649801910803  0.9945607253572107  0.6780133684366518  1.0000
  H   H25       1.0  0.4677293281492397  0.6022803127329867  0.8781107730965516  1.0000
  H   H26       1.0  0.5322686361327698  0.8977188448380389  0.3781107730965516  1.0000
  H   H27       1.0  0.5322708224007824  0.39771942646147107  0.12188922690344839  1.0000
  H   H28       1.0  0.4677307206336748  0.10227908947378242  0.6218885210725773  1.0000
  H   H29       1.0  0.3508067236374472  0.5123980596757178  0.7827720801541531  1.0000
  H   H30       1.0  0.6491924995517734  0.9876010978953076  0.2827720801541531  1.0000
  H   H31       1.0  0.6491930300207897  0.4876007770774181  0.2172279198458469  1.0000
  H   H32       1.0  0.3508072541064634  0.0123977388578282  0.7172272140149758  1.0000
  H   H33       1.0  0.12353788967408967  0.3549346834676115  0.0013431961433382996  1.0000
  H   H34       1.0  0.8764623944531633  0.1450638324676419  0.5013424903124744  1.0000
  H   H35       1.0  0.8764622608759325  0.645065055726846  0.9986568038566617  1.0000
  H   H36       1.0  0.12353696231328117  0.8549341018441794  0.49865680385666167  1.0000
  H   H37       1.0  0.07913806846034525  0.42449395799246764  0.8949744842140956  1.0000
  H   H38       1.0  0.9208622156669006  0.0755045579427787  0.39497448421409587  1.0000
  H   H39       1.0  0.9208612200742576  0.5755066836433116  0.1050255157859041  1.0000
  H   H40       1.0  0.07913879689853337  0.9244942788103573  0.6050255157859041  1.0000
  H   H41       1.0  0.200493726555699  0.5164067040203406  0.9881554521905471  1.0000
  H   H42       1.0  0.799507617556138  0.9835915511093632  0.4881554521905471  1.0000
  H   H43       1.0  0.7995072860097423  0.4835921327327953  0.011844547809452896  1.0000
  H   H44       1.0  0.20049339500929614  0.0164072856437727  0.5118445478094528  1.0000
  C   C1        1.0  0.8544327668048624  0.1657107874340298  0.7971477374591487  1.0000
  C   C2        1.0  0.14556798244601765  0.3342859236185802  0.2971491491208909  1.0000
  C   C3        1.0  0.14556698685337469  0.8342880493191132  0.20285155670998015  1.0000
  C   C4        1.0  0.854432236335846  0.6657111082519194  0.7028515567099802  1.0000
  C   C5        1.0  0.018089520545124995  0.1429494124542501  0.7961136952363503  1.0000
  C   C6        1.0  0.9819116255975401  0.3570482010396745  0.2961151068980853  1.0000
  C   C7        1.0  0.9819106300048971  0.8570503267402074  0.2038863047636497  1.0000
  C   C8        1.0  0.0180885931843235  0.6429488308308251  0.7038855989327855  1.0000
  C   C9        1.0  0.15029432489657774  0.2080262609413452  0.735681867910813  1.0000
  C   C10       1.0  0.8497050972152563  0.2919731574352227  0.23568469123428315  1.0000
  C   C11       1.0  0.8497058256534444  0.7919734782531123  0.264317426258323  1.0000
  C   C12       1.0  0.1502937944275544  0.7080265817592348  0.764317426258323  1.0000
  C   C13       1.0  0.1197745840838706  0.2959926310756913  0.6762269105077008  1.0000
  C   C14       1.0  0.8802239760125515  0.20400768974219832  0.1762283221694432  1.0000
  C   C15       1.0  0.8802255664661515  0.7040071081187663  0.32377308949229894  1.0000
  C   C16       1.0  0.11977491563026628  0.7959920494522592  0.8237723836614277  1.0000
  C   C17       1.0  0.9559058968927586  0.3181719314038958  0.6768431008561746  1.0000
  C   C18       1.0  0.044091869420086  0.1818265845313576  0.1768445125179099  1.0000
  C   C19       1.0  0.04409385676547831  0.6818269053492472  0.3231561933129611  1.0000
  C   C20       1.0  0.9559053664237424  0.8181722522217855  0.823156193312961  1.0000
  C   C21       1.0  0.823735204943773  0.2534732058299909  0.7374295051419748  1.0000
  C   C22       1.0  0.17626349161632499  0.2465217003399758  0.23743162263458117  1.0000
  C   C23       1.0  0.1762628929154673  0.7465247284818233  0.2625697890271539  1.0000
  C   C24       1.0  0.8237363302737462  0.7534744290892021  0.7625690831962828  1.0000
  C   C25       1.0  0.7150575815383604  0.0982388596829438  0.8643428361695981  1.0000
  C   C26       1.0  0.2849431677125196  0.40175785136966624  0.36434354200046926  1.0000
  C   C27       1.0  0.28494217211986944  0.9017599770701921  0.1356571638304018  1.0000
  C   C28       1.0  0.7150583099765483  0.5982391805008334  0.6356564579995305  1.0000
  C   C29       1.0  0.2630437540612435  0.36811935115671457  0.6130508127642429  1.0000
  C   C30       1.0  0.736956064942376  0.1318809696611751  0.11305081276424288  1.0000
  C   C31       1.0  0.7369551375815746  0.6318803880377502  0.3869484814048859  1.0000
  C   C32       1.0  0.26304282670043466  0.8681187695332824  0.886949187235757  1.0000
  C   C33       1.0  0.39633705515744566  0.3247534359526014  0.9287647253964977  1.0000
  C   C34       1.0  0.6036632289698075  0.1752450799826448  0.4287654312273688  1.0000
  C   C35       1.0  0.6036626985007842  0.6752454008005344  0.0712352746035023  1.0000
  C   C36       1.0  0.3963373867038484  0.8247528543291693  0.5712338629417602  1.0000
  C   C37       1.0  0.4336337804101617  0.512706694607246  0.8449889537469062  1.0000
  C   C38       1.0  0.5663663047944709  0.9872915605224578  0.3449889537469062  1.0000
  C   C39       1.0  0.5663672321552795  0.48729214214588984  0.1550110462530938  1.0000
  C   C40       1.0  0.433634310879178  0.012706373789356502  0.6550110462530936  1.0000
  C   C41       1.0  0.17570331842892264  0.4293418727649438  0.9516823478758027  1.0000
  C   C42       1.0  0.8242982246055348  0.0706566431703024  0.4516816420449317  1.0000
  C   C43       1.0  0.824296435229314  0.570656963988192  0.04831835795506829  1.0000
  C   C44       1.0  0.1757036499753256  0.929341291141512  0.5483176521241973  1.0000
  N   N1        1.0  0.34000685505819916  0.41982653148404847  0.9116250344092547  1.0000
  N   N2        1.0  0.6599938259608392  0.0801728868925196  0.4116250344092549  1.0000
  N   N3        1.0  0.6599932954918231  0.5801732077104093  0.08837496559074508  1.0000
  N   N4        1.0  0.3400071866045948  0.9198259498606163  0.5883742597598738  1.0000
  O   O1        1.0  0.5984708233182301  0.1480815962426121  0.887750305271851  1.0000
  O   O2        1.0  0.4015315817316462  0.3519160172513196  0.3877517169335859  1.0000
  O   O3        1.0  0.4015305861389961  0.8519181429518454  0.112248988897278  1.0000
  O   O4        1.0  0.5984698959574215  0.6480810146191801  0.6122482830664138  1.0000
  O   O5        1.0  0.7249231527818195  0.9966489745723095  0.8931781446529781  1.0000
  O   O6        1.0  0.2750757417474503  0.5033465732334363  0.39317885048384926  1.0000
  O   O7        1.0  0.2750766008764102  0.0033498621808334  0.1068218553470217  1.0000
  O   O8        1.0  0.7249253390498323  0.4966495561957345  0.6068211495161504  1.0000
  O   O9        1.0  0.2557137909472188  0.4726581536964432  0.5905263380788668  1.0000
  O   O10       1.0  0.7442843722574108  0.027341264680131903  0.0905263380788668  1.0000
  O   O11       1.0  0.7442834448966024  0.5273406830566998  0.4094729560902621  1.0000
  O   O12       1.0  0.2557157782926112  0.9726584745143259  0.909472250259391  1.0000
  O   O13       1.0  0.3801537010958639  0.3197123987375861  0.5877206603753606  1.0000
  O   O14       1.0  0.6198481705985441  0.1802897269629398  0.0877192487136256  1.0000
  O   O15       1.0  0.619845190546954  0.6802873404568714  0.4122786337937683  1.0000
  O   O16       1.0  0.38015237684327025  0.8197109146728395  0.9122793396246391  1.0000
  O   O17       1.0  0.3185031566183624  0.23873182686342892  0.9825878582973928  1.0000
  O   O18       1.0  0.6814987833078802  0.2612675915131391  0.48258856412826384  1.0000
  O   O19       1.0  0.6814965970398745  0.761267009889707  0.0174114358717361  1.0000
  O   O20       1.0  0.3185018323657686  0.7387303427986822  0.5174114358717361  1.0000
