data_image0
_chemical_formula_structural       Zn2H20C44S4N10O36
_chemical_formula_sum              "Zn2 H20 C44 S4 N10 O36"
_cell_length_a       10.945315029192068
_cell_length_b       14.122726703175712
_cell_length_c       15.232897417503048
_cell_angle_alpha    90.01302790630979
_cell_angle_beta     90.2647199583023
_cell_angle_gamma    89.67611448117542

_space_group_name_H-M_alt    "P 1"
_space_group_IT_number       1

loop_
  _space_group_symop_operation_xyz
  'x, y, z'

loop_
  _atom_site_type_symbol
  _atom_site_label
  _atom_site_symmetry_multiplicity
  _atom_site_fract_x
  _atom_site_fract_y
  _atom_site_fract_z
  _atom_site_occupancy
  Zn  Zn1       1.0  0.49056607033066507  0.5979523437598359  0.5011814626586785  1.0000
  Zn  Zn2       1.0  0.4995137829657352  0.39609010220611657  0.4957117612266373  1.0000
  H   H1        1.0  0.795324043282669  0.2794706237735057  0.8771353983060451  1.0000
  H   H2        1.0  0.25516669499055666  0.8337338338619987  0.2453602356183353  1.0000
  H   H3        1.0  0.9106652003324739  0.4322580948159072  0.8803705394259396  1.0000
  H   H4        1.0  0.18296934520245134  0.6855950410571412  0.17131912785358594  1.0000
  H   H5        1.0  0.8116589825519894  0.2808128100739894  0.5945020680178318  1.0000
  H   H6        1.0  0.14385709500039917  0.7174866997443414  0.49410068900954945  1.0000
  H   H7        1.0  0.7443606872795457  0.20555702811580548  0.7337219997828868  1.0000
  H   H8        1.0  0.2315915978540417  0.8495614413173981  0.4083196419772649  1.0000
  H   H9        1.0  0.6732233668791779  0.6032424849383276  0.22615717582542771  1.0000
  H   H10       1.0  0.48724793728397486  0.3406468775135777  0.7758681558868831  1.0000
  H   H11       1.0  0.3853346821199252  0.40837197802426317  0.05494401665096402  1.0000
  H   H12       1.0  0.5913342191238158  0.6343816148014694  0.9342822521219105  1.0000
  H   H13       1.0  0.3268102021194963  0.24744436093109812  0.5206633267822767  1.0000
  H   H14       1.0  0.5908967230203359  0.7431164843861565  0.402883189033247  1.0000
  H   H15       1.0  0.3145598086751633  0.07227494255088371  0.5325657273699206  1.0000
  H   H16       1.0  0.6025504021417163  0.9177885625940546  0.38812300574750225  1.0000
  H   H17       1.0  0.7920454302450112  0.6118309470639928  0.9229766337354307  1.0000
  H   H18       1.0  0.6170504145669824  0.3229220681984231  0.06902110662025511  1.0000
  H   H19       1.0  0.3962864162891507  0.23961268292659807  0.2161450334828885  1.0000
  H   H20       1.0  0.8167792480636463  0.6100354119837378  0.6866466314504436  1.0000
  C   C1        1.0  0.5142589072282391  0.5187649323192147  0.3305009510539705  1.0000
  C   C2        1.0  0.5052808690317292  0.4852905665036858  0.666934176935385  1.0000
  C   C3        1.0  0.731991170583612  0.49668446952180295  0.5123558337527356  1.0000
  C   C4        1.0  0.2625287807795472  0.4833019489772425  0.48651115888648633  1.0000
  C   C5        1.0  0.886444158261675  0.398235932670204  0.818533684062224  1.0000
  C   C6        1.0  0.17646069297354217  0.6946023089404888  0.24207245332956262  1.0000
  C   C7        1.0  0.9184118342731296  0.44159308080842413  0.7395126161769597  1.0000
  C   C8        1.0  0.12462988177909298  0.6216744541620757  0.29118498835166673  1.0000
  C   C9        1.0  0.8911129019891746  0.4017370007606542  0.6565058105254948  1.0000
  C   C10       1.0  0.11342765037613128  0.6276392166076477  0.38272857417590705  1.0000
  C   C11       1.0  0.8292501497335109  0.31526981210461713  0.6570340843225042  1.0000
  C   C12       1.0  0.1530058212764587  0.7114177401846999  0.42320215435062647  1.0000
  C   C13       1.0  0.7938297037686438  0.2723531493179435  0.7353996157487899  1.0000
  C   C14       1.0  0.20335111556464364  0.7848803658690642  0.3748089057377939  1.0000
  C   C15       1.0  0.8224413531612597  0.3135257583825534  0.8162303930807654  1.0000
  C   C16       1.0  0.21607352954122658  0.7764264698948293  0.2838612324767453  1.0000
  C   C17       1.0  0.06498354601310301  0.43808409855596864  0.5570714817957453  1.0000
  C   C18       1.0  0.9305741301575311  0.5551199111371047  0.4535265809728131  1.0000
  C   C19       1.0  0.12580658807090828  0.49100087993269886  0.49307944346904975  1.0000
  C   C20       1.0  0.8695306738286136  0.4989993896521341  0.5144233327708818  1.0000
  C   C21       1.0  0.0573435504889588  0.5552996399384966  0.4416428553636039  1.0000
  C   C22       1.0  0.9397521910401493  0.44423528190594663  0.5737372037582419  1.0000
  C   C23       1.0  0.6283741727222464  0.5509754515951499  0.09732641462361612  1.0000
  C   C24       1.0  0.5244809855757707  0.4026361586419186  0.9028029273291552  1.0000
  C   C25       1.0  0.6109442648846654  0.5596548315067835  0.1878591961949567  1.0000
  C   C26       1.0  0.5105734099650192  0.4046894365008527  0.8118863802302627  1.0000
  C   C27       1.0  0.520109871156656  0.509921636836772  0.2321825212445177  1.0000
  C   C28       1.0  0.5322287469770757  0.4867814560485826  0.7633245559683531  1.0000
  C   C29       1.0  0.4430220789891237  0.4512067781242308  0.1826123114295655  1.0000
  C   C30       1.0  0.5751761995409623  0.566483706251894  0.8089428157390373  1.0000
  C   C31       1.0  0.45308788061173993  0.4483364313664707  0.0916997989221571  1.0000
  C   C32       1.0  0.5704400140461203  0.5685018707811195  0.9001692909212127  1.0000
  C   C33       1.0  0.5464255995524354  0.4958010808784367  0.04658105138467761  1.0000
  C   C34       1.0  0.5463293259165525  0.4874608160170836  0.9498687903447732  1.0000
  C   C35       1.0  0.6109689660606746  0.09811828455281811  0.4736352954078954  1.0000
  C   C36       1.0  0.44214065449325796  0.8990836902436214  0.5776080087963678  1.0000
  C   C37       1.0  0.605176062157426  0.19540285459804346  0.45996238381231086  1.0000
  C   C38       1.0  0.43141478627292434  0.8009328719145756  0.5761490526479633  1.0000
  C   C39       1.0  0.405674826805651  0.20262432703463415  0.506157935479429  1.0000
  C   C40       1.0  0.5480928120325572  0.7896294411677403  0.4510081181796437  1.0000
  C   C41       1.0  0.4009168192684384  0.10473871799257489  0.5147121149766535  1.0000
  C   C42       1.0  0.556201061024943  0.8874904431255145  0.44454712772016347  1.0000
  C   C43       1.0  0.5059495932031481  0.0496209283240745  0.5008490035924993  1.0000
  C   C44       1.0  0.5032456955975135  0.9451573136311708  0.5088477705398163  1.0000
  S   S1        1.0  0.7556332053471593  0.6229124221163147  0.0610734265545787  1.0000
  S   S2        1.0  0.5263439228574782  0.28487198318747897  0.948575226590016  1.0000
  S   S3        1.0  0.3250994149889976  0.3783237760444892  0.227865977521418  1.0000
  S   S4        1.0  0.6646077599686464  0.6621484989697348  0.7647800910288113  1.0000
  N   N1        1.0  0.5068433152960167  0.24745567791335077  0.478614111511213  1.0000
  N   N2        1.0  0.48381914156937  0.7471144408909111  0.5148483793365699  1.0000
  N   N3        1.0  0.7277430152333438  0.046821542693280094  0.4596082790319969  1.0000
  N   N4        1.0  0.38781231412013994  0.9564490552532876  0.649268434789832  1.0000
  N   N5        1.0  0.711992004766529  0.24376060436930666  0.4191981732928127  1.0000
  N   N6        1.0  0.3501447388536861  0.7537827308429498  0.6418622571930827  1.0000
  N   N7        1.0  0.9840317293761132  0.5314497155372849  0.7478880441078815  1.0000
  N   N8        1.0  0.08073908094651472  0.5383635095593107  0.24158760477808275  1.0000
  N   N9        1.0  0.1378361370684047  0.3742256159212616  0.615035752767625  1.0000
  N   N10       1.0  0.8566284602994259  0.6188583394255288  0.396788739987791  1.0000
  O   O1        1.0  0.5103893318775475  0.6011842448331778  0.3632485774736268  1.0000
  O   O2        1.0  0.4973064272084144  0.4048849680038984  0.6301147432815599  1.0000
  O   O3        1.0  0.5165855858204863  0.4406657103205447  0.3714701341293606  1.0000
  O   O4        1.0  0.4887856855236947  0.5656875444441242  0.6312021454212556  1.0000
  O   O5        1.0  0.6762310131236333  0.5750293365444605  0.5048053939156532  1.0000
  O   O6        1.0  0.3112573382834399  0.4021658359410977  0.4963443116548589  1.0000
  O   O7        1.0  0.6856502150841379  0.41465478713233483  0.5146229380791709  1.0000
  O   O8        1.0  0.31790814789287236  0.5603549734296536  0.4745929589592706  1.0000
  O   O9        1.0  0.7760981359619732  0.012358458246772803  0.5253823272653906  1.0000
  O   O10       1.0  0.7639185415597111  0.04188874787757161  0.3829878055684688  1.0000
  O   O11       1.0  0.46031835221883444  0.9941884571395645  0.6999157650654837  1.0000
  O   O12       1.0  0.2753306155546014  0.9649226502610091  0.6479077805590591  1.0000
  O   O13       1.0  0.6903887144421433  0.2876010618102498  0.3514319030277663  1.0000
  O   O14       1.0  0.8116777506605001  0.23173271912493482  0.4560423186190405  1.0000
  O   O15       1.0  0.2888541595970436  0.6875576046757317  0.6136964956076201  1.0000
  O   O16       1.0  0.34859652911681854  0.7879467789308094  0.7160439865134336  1.0000
  O   O17       1.0  0.957181364013195  0.5970549184325833  0.6944066604854201  1.0000
  O   O18       1.0  0.06035210233750379  0.5399443674063278  0.806356438857641  1.0000
  O   O19       1.0  0.014974200429392702  0.4812451668431025  0.2806407548586876  1.0000
  O   O20       1.0  0.11248884081393129  0.5312304479116818  0.16402607571382083  1.0000
  O   O21       1.0  0.19809710648677037  0.41147606900992867  0.6742835680617958  1.0000
  O   O22       1.0  0.12939802818252127  0.2883357893715868  0.6007380633580581  1.0000
  O   O23       1.0  0.7958442041650358  0.5812713349185972  0.3382448982566544  1.0000
  O   O24       1.0  0.8628421268396665  0.7047212260472618  0.4119226549744185  1.0000
  O   O25       1.0  0.7051896219273955  0.7135978732987949  0.0356112278855676  1.0000
  O   O26       1.0  0.8469433628752016  0.6164800320318591  0.1285340148324394  1.0000
  O   O27       1.0  0.8082023914437855  0.57133104136593  0.9764531588759697  1.0000
  O   O28       1.0  0.41734965326605084  0.2656731840929041  0.9978164772200203  1.0000
  O   O29       1.0  0.5653342141694822  0.22176211664569226  0.8804124107530954  1.0000
  O   O30       1.0  0.6415077517366967  0.2899215437751648  0.0150368388120867  1.0000
  O   O31       1.0  0.2754793152247145  0.4233634835351835  0.303984305155474  1.0000
  O   O32       1.0  0.2496456468571893  0.3450778889617183  0.15710054566952183  1.0000
  O   O33       1.0  0.40234548444907847  0.2869685686173398  0.2630560709174716  1.0000
  O   O34       1.0  0.591813851424206  0.7425715325852451  0.7403313325106211  1.0000
  O   O35       1.0  0.7612214849689278  0.6751079082475117  0.8301629688420464  1.0000
  O   O36       1.0  0.7237169326786842  0.6181892837042966  0.680899929294533  1.0000
