data_image0
_chemical_formula_structural       Al2H12C26N2O14F2
_chemical_formula_sum              "Al2 H12 C26 N2 O14 F2"
_cell_length_a       6.837535438663847
_cell_length_b       11.117362496689662
_cell_length_c       15.399872446856786
_cell_angle_alpha    83.12424926546741
_cell_angle_beta     75.7349325600256
_cell_angle_gamma    71.91267834467205

_space_group_name_H-M_alt    "P 1"
_space_group_IT_number       1

loop_
  _space_group_symop_operation_xyz
  'x, y, z'

loop_
  _atom_site_type_symbol
  _atom_site_label
  _atom_site_symmetry_multiplicity
  _atom_site_fract_x
  _atom_site_fract_y
  _atom_site_fract_z
  _atom_site_occupancy
  Al  Al1       1.0  0.497773954681321  0.4906116429712813  0.5056640023280962  1.0000
  Al  Al2       1.0  0.0007048344510282033  0.4867896140099789  0.5040923504292818  1.0000
  H   H1        1.0  0.24248220124022882  0.3964759772731341  0.606567743503639  1.0000
  H   H2        1.0  0.7699541380559223  0.5637807669582106  0.39814267379840357  1.0000
  H   H3        1.0  0.8520611300955565  0.47956067903993477  0.9364638489810343  1.0000
  H   H4        1.0  0.17739565271288169  0.4620720386150765  0.06920059144800207  1.0000
  H   H5        1.0  0.6607809691932757  0.5475857225395944  0.23047491075108434  1.0000
  H   H6        1.0  0.7340943325752463  0.5714936580882368  0.06447504172027854  1.0000
  H   H7        1.0  0.2697206763587729  0.5718827236296422  0.7773941917030098  1.0000
  H   H8        1.0  0.1857120946784292  0.5749195227337937  0.9437783061836951  1.0000
  H   H9        1.0  0.2308723086165115  0.2354441798513919  0.38509648858241247  1.0000
  H   H10       1.0  0.47573394029994615  0.7642472968710623  0.3807514940987032  1.0000
  H   H11       1.0  0.7603236858332562  0.8646652345821129  0.5553112909172383  1.0000
  H   H12       1.0  0.6382991448446448  0.10188055583977024  0.558397408071208  1.0000
  C   C1        1.0  0.8596715399408693  0.2624162442489891  0.5007258310480223  1.0000
  C   C2        1.0  0.6509678056000328  0.5145243678660523  0.6637606449635951  1.0000
  C   C3        1.0  0.14176853165238149  0.7158929581910418  0.492865736693524  1.0000
  C   C4        1.0  0.3415837488524929  0.4799981477755326  0.3437996322718958  1.0000
  C   C5        1.0  0.6013318386719958  0.5252666248305503  0.7633250103238891  1.0000
  C   C6        1.0  0.3813367449476813  0.494385067150141  0.24368858395335732  1.0000
  C   C7        1.0  0.7590764459667271  0.5065742816190877  0.8108273898364825  1.0000
  C   C8        1.0  0.7202458501753313  0.5005681004000381  0.9036971003819612  1.0000
  C   C9        1.0  0.24445942272468807  0.47719704161126963  0.19532375570879162  1.0000
  C   C10       1.0  0.28647356031568444  0.4820791983525013  0.10244729951336494  1.0000
  C   C11       1.0  0.5585891718924784  0.5277535911275779  0.19361527901953215  1.0000
  C   C12       1.0  0.5995543245927237  0.539198339153032  0.10056890315529186  1.0000
  C   C13       1.0  0.39455079663918713  0.5500047113618864  0.8139980854058134  1.0000
  C   C14       1.0  0.34991421567769254  0.5498815441905907  0.9069836947820274  1.0000
  C   C15       1.0  0.5123197785845618  0.5207844956286751  0.9539851681873865  1.0000
  C   C16       1.0  0.46744532185861215  0.513330125706638  0.05286924485333337  1.0000
  C   C17       1.0  0.9359008328976656  0.12359849261700623  0.4860011496396693  1.0000
  C   C18       1.0  0.1441798061202277  0.06294690966089433  0.4367489736704825  1.0000
  C   C19       1.0  0.7986932388308999  0.05279545048144741  0.5244408078963259  1.0000
  C   C20       1.0  0.2795194332012088  0.1326990103212253  0.3856354849174223  1.0000
  C   C21       1.0  0.47277253242105394  0.07117765107955883  0.3353657692760875  1.0000
  C   C22       1.0  0.07329513927698618  0.8570784460330929  0.4828685126360524  1.0000
  C   C23       1.0  0.86700588488565  0.9201177385435105  0.5228155491801514  1.0000
  C   C24       1.0  0.21453825445896543  0.9267739508727787  0.4352387082060073  1.0000
  C   C25       1.0  0.4173337873630487  0.8667912466258659  0.382873791714857  1.0000
  C   C26       1.0  0.5421647017700976  0.9377778673087467  0.33400538426617027  1.0000
  N   N1        1.0  0.9755215106799967  0.501056077706018  0.7625249071960594  1.0000
  N   N2        1.0  0.035450337394991004  0.4657018609236588  0.24189543092619903  1.0000
  O   O1        1.0  0.663314977867472  0.316867239623413  0.5058825007894041  1.0000
  O   O2        1.0  0.8396568741269873  0.5087421722615348  0.6236035584890087  1.0000
  O   O3        1.0  0.00618109153643324  0.6596824826542618  0.4911498223050968  1.0000
  O   O4        1.0  0.48224161173720137  0.4896790416092217  0.38064040374330677  1.0000
  O   O5        1.0  0.32958443091293094  0.6634085833119984  0.5030157645530406  1.0000
  O   O6        1.0  0.16760765628912108  0.4592462455084887  0.3838958060079987  1.0000
  O   O7        1.0  0.9945025041111607  0.3144628703648707  0.5105507110922358  1.0000
  O   O8        1.0  0.5057636252269617  0.5081212093115826  0.628435847181265  1.0000
  O   O9        1.0  0.25239862959803355  0.4370873591422893  0.5467327255691854  1.0000
  O   O10       1.0  0.7479466394582771  0.5388926706063304  0.46192829896177284  1.0000
  O   O11       1.0  0.0055491598193240736  0.6052866232683203  0.7386318555378748  1.0000
  O   O12       1.0  0.11087289594097174  0.39656272614480054  0.7532109208514439  1.0000
  O   O13       1.0  0.9053522554056315  0.5677918611901022  0.26862872934321996  1.0000
  O   O14       1.0  0.9995066517450437  0.36307806849936963  0.24663064148121788  1.0000
  F   F1        1.0  0.6004391459637262  0.13783782645580095  0.2847958393182211  1.0000
  F   F2        1.0  0.7341000539643119  0.8811216955709688  0.2824214986339228  1.0000
