data_image0
_chemical_formula_structural       Gd4P4H24C8O32
_chemical_formula_sum              "Gd4 P4 H24 C8 O32"
_cell_length_a       7.553221503034536
_cell_length_b       8.527401654516423
_cell_length_c       12.23906107661294
_cell_angle_alpha    93.7243148030889
_cell_angle_beta     89.99977469246126
_cell_angle_gamma    89.99975765710042

_space_group_name_H-M_alt    "P 1"
_space_group_IT_number       1

loop_
  _space_group_symop_operation_xyz
  'x, y, z'

loop_
  _atom_site_type_symbol
  _atom_site_label
  _atom_site_symmetry_multiplicity
  _atom_site_fract_x
  _atom_site_fract_y
  _atom_site_fract_z
  _atom_site_occupancy
  Gd  Gd1       1.0  0.7834096637864505  0.7494290995083829  0.41759465349507957  1.0000
  Gd  Gd2       1.0  0.2834015370205094  0.7505707065763969  0.08240224617448888  1.0000
  Gd  Gd3       1.0  0.21659391267657924  0.2505752435866028  0.5824097894484623  1.0000
  Gd  Gd4       1.0  0.7165874761711136  0.24942647803253232  0.9175912858956465  1.0000
  P   P1        1.0  0.9714291654985913  0.12409905696732437  0.34472787263209886  1.0000
  P   P2        1.0  0.47142396071112813  0.3759017699855107  0.1552690302781841  1.0000
  P   P3        1.0  0.0285770588621475  0.8759040530095487  0.6552708010076672  1.0000
  P   P4        1.0  0.5285690242843089  0.624098948325212  0.8447254614745107  1.0000
  H   H1        1.0  0.8204555052321467  0.7640385253875548  0.1749462728003977  1.0000
  H   H2        1.0  0.3204604997018379  0.735959965228879  0.3250512981981117  1.0000
  H   H3        1.0  0.1795440994457849  0.23595989231293393  0.8250530285558924  1.0000
  H   H4        1.0  0.679549696479981  0.26404079445448747  0.6749472805848953  1.0000
  H   H5        1.0  0.6470634859498077  0.6522138100870474  0.1892508023228672  1.0000
  H   H6        1.0  0.1470680378114082  0.8477854090837694  0.31075049999356  1.0000
  H   H7        1.0  0.35293611870866215  0.34778933302883525  0.8107511409683  1.0000
  H   H8        1.0  0.8529408344360833  0.15221067487544807  0.6892503413202109  1.0000
  H   H9        1.0  0.0173652821177015  0.5437561227344359  0.2726121836973832  1.0000
  H   H10       1.0  0.5173590470845254  0.9562424332176815  0.22738859913231835  1.0000
  H   H11       1.0  0.9826356464901805  0.4562446535303834  0.7273880299192541  1.0000
  H   H12       1.0  0.48263261395823787  0.043754834200257185  0.7726131070407477  1.0000
  H   H13       1.0  0.092538175734532  0.5239778043351959  0.3932722987902366  1.0000
  H   H14       1.0  0.5925259786021542  0.9760239672779389  0.1067276087581206  1.0000
  H   H15       1.0  0.9074706964798478  0.47603353991722475  0.6067275242367957  1.0000
  H   H16       1.0  0.4074656824461229  0.02397211671579669  0.8932732325785651  1.0000
  H   H17       1.0  0.8139970382215864  0.17405282045874054  0.2950803321235115  1.0000
  H   H18       1.0  0.313993085596266  0.3259521964626585  0.20492040188472777  1.0000
  H   H19       1.0  0.18601051006434233  0.8259514977839827  0.704921658582812  1.0000
  H   H20       1.0  0.6860038712088682  0.6740497052643019  0.7950749546990608  1.0000
  H   H21       1.0  0.10680619703554581  0.15599536080713955  0.26926331501658757  1.0000
  H   H22       1.0  0.6068044466500737  0.3440022031259601  0.2307319168017727  1.0000
  H   H23       1.0  0.8932013512500064  0.8440101242969289  0.730737905704828  1.0000
  H   H24       1.0  0.39319251019323076  0.6559925814928957  0.7692566159424461  1.0000
  C   C1        1.0  0.5716897023138258  0.46761056081899693  0.5377266308529586  1.0000
  C   C2        1.0  0.0716855423273657  0.032394117096409  0.9622773773944433  1.0000
  C   C3        1.0  0.42832976144706686  0.5323901657200591  0.4622686782751302  1.0000
  C   C4        1.0  0.9283206819856886  0.967613809391615  0.037732929697298793  1.0000
  C   C5        1.0  0.48562049567482996  0.02553990908180029  0.4408378467804185  1.0000
  C   C6        1.0  0.985603306533214  0.47445153436823495  0.059165995649827594  1.0000
  C   C7        1.0  0.5143963202478758  0.9744443737451504  0.5591576158015528  1.0000
  C   C8        1.0  0.014380410861186  0.525545791035661  0.9408414324083338  1.0000
  O   O1        1.0  0.7235373592291053  0.5292698275059634  0.5337052022389486  1.0000
  O   O2        1.0  0.2235350617957295  0.9707336332793017  0.9662971278438944  1.0000
  O   O3        1.0  0.2764622454433194  0.47072977361872836  0.46629496395372183  1.0000
  O   O4        1.0  0.7764526274171287  0.02926950986047669  0.03370481546313191  1.0000
  O   O5        1.0  0.5858697625134254  0.9613387301734093  0.3676386354630026  1.0000
  O   O6        1.0  0.08587292363769448  0.5386583841458686  0.1323627349386172  1.0000
  O   O7        1.0  0.4141192506066104  0.03867383895020279  0.6323661394800767  1.0000
  O   O8        1.0  0.9141107938176631  0.4613247567304126  0.867635949904269  1.0000
  O   O9        1.0  0.9649054744396893  0.9450330556081068  0.35076685894230764  1.0000
  O   O10       1.0  0.4649005092937982  0.5549707479558774  0.1492321994059722  1.0000
  O   O11       1.0  0.035108693516598094  0.054974829456824595  0.649239361085634  1.0000
  O   O12       1.0  0.5350990953984008  0.4450311206400456  0.8507598875317088  1.0000
  O   O13       1.0  0.7486477071514342  0.7067808453049763  0.2273445765352093  1.0000
  O   O14       1.0  0.24864746001951935  0.7932191250289616  0.272654867913225  1.0000
  O   O15       1.0  0.251354545393788  0.29321527179325085  0.7726595344299554  1.0000
  O   O16       1.0  0.7513534686015717  0.2067804429673429  0.7273420286350999  1.0000
  O   O17       1.0  0.9866057506595424  0.5545481973669053  0.3515732764087716  1.0000
  O   O18       1.0  0.4865962860013795  0.9454484765970433  0.1484262570224359  1.0000
  O   O19       1.0  0.0134031215549015  0.44545498713755177  0.6484327539232809  1.0000
  O   O20       1.0  0.5133993468881286  0.05454635771306469  0.8515671801874091  1.0000
  O   O21       1.0  0.4763542289910133  0.641288386382541  0.4029127157038062  1.0000
  O   O22       1.0  0.9763466215338712  0.8587071452695123  0.09708598018431759  1.0000
  O   O23       1.0  0.5236493475165176  0.3586971627094825  0.5970917858386287  1.0000
  O   O24       1.0  0.023637095870732608  0.14129830675661736  0.9029119709262333  1.0000
  O   O25       1.0  0.6337124908289056  0.8743123996544708  0.5733028852395066  1.0000
  O   O26       1.0  0.1337094328134825  0.6256820285344344  0.9267001220174081  1.0000
  O   O27       1.0  0.36629240955744535  0.12569898601307727  0.4267010248460394  1.0000
  O   O28       1.0  0.866287524014183  0.3742976531384271  0.07330495981580751  1.0000
  O   O29       1.0  0.0022060937158058995  0.7787596871549451  0.5483856344530693  1.0000
  O   O30       1.0  0.5021956074616298  0.7212469370983212  0.9516100231144338  1.0000
  O   O31       1.0  0.9978041024377261  0.22124932337213465  0.4516157285420165  1.0000
  O   O32       1.0  0.49779208178752304  0.27875492324006496  0.048381246428462504  1.0000
