data_image0
_chemical_formula_structural       Co6H6C6O18
_chemical_formula_sum              "Co6 H6 C6 O18"
_cell_length_a       7.373111390037759
_cell_length_b       7.386170510372491
_cell_length_c       7.469454129313354
_cell_angle_alpha    93.28281737090407
_cell_angle_beta     92.89036337443137
_cell_angle_gamma    93.13920754688937

_space_group_name_H-M_alt    "P 1"
_space_group_IT_number       1

loop_
  _space_group_symop_operation_xyz
  'x, y, z'

loop_
  _atom_site_type_symbol
  _atom_site_label
  _atom_site_symmetry_multiplicity
  _atom_site_fract_x
  _atom_site_fract_y
  _atom_site_fract_z
  _atom_site_occupancy
  Co  Co1       1.0  0.2034368590582361  0.4637647898142205  0.5688555909123352  1.0000
  Co  Co2       1.0  0.5572441221641  0.22056904789603485  0.4625697917659721  1.0000
  Co  Co3       1.0  0.46761103571881085  0.5566424999984604  0.2241990974939654  1.0000
  Co  Co4       1.0  0.7964777577277857  0.536357759538106  0.4311437182099453  1.0000
  Co  Co5       1.0  0.44259175256223676  0.7796002931984132  0.5372244089688607  1.0000
  Co  Co6       1.0  0.5327258682138165  0.4435391790885319  0.7757851134472276  1.0000
  H   H1        1.0  0.9405113055107321  0.9070703836743093  0.654020054527365  1.0000
  H   H2        1.0  0.6283003459542514  0.9411155998569923  0.9027111489735375  1.0000
  H   H3        1.0  0.9178828035948143  0.6635480649087527  0.9547497746062277  1.0000
  H   H4        1.0  0.0592442049987909  0.0922150690797636  0.3470459156639834  1.0000
  H   H5        1.0  0.37051568855540756  0.05892260159348687  0.09699207440991839  1.0000
  H   H6        1.0  0.08326978099842819  0.3362605078663633  0.04535260633846149  1.0000
  C   C1        1.0  0.05892958920200189  0.8237006690503108  0.634408240500065  1.0000
  C   C2        1.0  0.6135433834730436  0.05902871113222827  0.8195277829232809  1.0000
  C   C3        1.0  0.8362161418693503  0.6240628462847793  0.06796427584658461  1.0000
  C   C4        1.0  0.9408948834529411  0.1759461511445011  0.3658883150567078  1.0000
  C   C5        1.0  0.3856945407617971  0.9410472883516403  0.18011277612119153  1.0000
  C   C6        1.0  0.16472783385029294  0.376008270457838  0.9321705210966655  1.0000
  O   O1        1.0  0.019042055707487286  0.6529207797678465  0.5974375815307907  1.0000
  O   O2        1.0  0.6012068637216004  0.0224501405537083  0.6488478128485227  1.0000
  O   O3        1.0  0.6716879355172409  0.5669754539258277  0.0281591339726148  1.0000
  O   O4        1.0  0.9807413403396127  0.3467973470327195  0.4024811003433442  1.0000
  O   O5        1.0  0.3981554089878188  0.9777841166437253  0.35074572958512107  1.0000
  O   O6        1.0  0.32923221342871056  0.4332373344150753  0.971873873036941  1.0000
  O   O7        1.0  0.08588353156757479  0.36141290281638305  0.7775783492068341  1.0000
  O   O8        1.0  0.7850614202914415  0.0984028046328831  0.34919110408977616  1.0000
  O   O9        1.0  0.39066233391282174  0.7865577807187518  0.10245049594882967  1.0000
  O   O10       1.0  0.9146188144628766  0.6387838439952631  0.22275697544679932  1.0000
  O   O11       1.0  0.2147028657158572  0.9013329413361217  0.6509567680924703  1.0000
  O   O12       1.0  0.6091459004432238  0.21354057773118731  0.8971967007805262  1.0000
  O   O13       1.0  0.37719163490825747  0.3076668757549541  0.6033381697926503  1.0000
  O   O14       1.0  0.5167247089367565  0.3358340924889234  0.27009215984614343  1.0000
  O   O15       1.0  0.29845635852001345  0.5991170814162599  0.3999123419912038  1.0000
  O   O16       1.0  0.6227487265870194  0.6925441438798288  0.39647305017425793  1.0000
  O   O17       1.0  0.4832943708444759  0.6642697343126681  0.7297242496072017  1.0000
  O   O18       1.0  0.7016147875607927  0.40096007345537277  0.6000764871481649  1.0000
