data_image0
_chemical_formula_structural       U2H32C32N4O20
_chemical_formula_sum              "U2 H32 C32 N4 O20"
_cell_length_a       9.45439338343702
_cell_length_b       9.45434349019598
_cell_length_c       12.794072946110687
_cell_angle_alpha    96.4989408762637
_cell_angle_beta     96.49965519815198
_cell_angle_gamma    113.35821257434715

_space_group_name_H-M_alt    "P 1"
_space_group_IT_number       1

loop_
  _space_group_symop_operation_xyz
  'x, y, z'

loop_
  _atom_site_type_symbol
  _atom_site_label
  _atom_site_symmetry_multiplicity
  _atom_site_fract_x
  _atom_site_fract_y
  _atom_site_fract_z
  _atom_site_occupancy
  U   U1        1.0  0.5265608839046507  0.4711591545998601  0.7499737676975257  1.0000
  U   U2        1.0  0.471176900710823  0.5265521920002956  0.2499724708642859  1.0000
  H   H1        1.0  0.10292697408181074  0.6767632755741388  0.1378138203298391  1.0000
  H   H2        1.0  0.32344165786051343  0.897430118383312  0.3623784049453249  1.0000
  H   H3        1.0  0.8974285264187217  0.3234391606583245  0.8623748115596328  1.0000
  H   H4        1.0  0.6767595220224083  0.1029238079118286  0.6378162395881333  1.0000
  H   H5        1.0  0.08506109486280174  0.8580966736682073  0.15203344113749043  1.0000
  H   H6        1.0  0.14292056982566237  0.916994304150407  0.3472689822666908  1.0000
  H   H7        1.0  0.9170071552309553  0.1429250572974468  0.8472689505718236  1.0000
  H   H8        1.0  0.8580884817653142  0.08505316169919301  0.6520368255095974  1.0000
  H   H9        1.0  0.919695336808438  0.6826527195780868  0.1586624034978144  1.0000
  H   H10       1.0  0.3197029345603681  0.08166558289387642  0.3419585776971772  1.0000
  H   H11       1.0  0.08166913578818943  0.3197131898457856  0.8419596098262119  1.0000
  H   H12       1.0  0.6826437037330776  0.9196867601506541  0.6586678177395769  1.0000
  H   H13       1.0  0.15533983948158442  0.6766374003397149  0.9392804634029803  1.0000
  H   H14       1.0  0.32049133521944373  0.8432606301349993  0.5599040082454039  1.0000
  H   H15       1.0  0.843255030235632  0.320499104784588  0.05989163487561912  1.0000
  H   H16       1.0  0.6766408309829615  0.15534259529854214  0.4392832735432037  1.0000
  H   H17       1.0  0.0427980008817314  0.7520492540044684  0.8582750843840755  1.0000
  H   H18       1.0  0.2455133013844488  0.955907720990993  0.641195616923504  1.0000
  H   H19       1.0  0.9559001661788785  0.24552687633191547  0.14119541853957432  1.0000
  H   H20       1.0  0.7520523237438468  0.042796176164387106  0.35827682129531274  1.0000
  H   H21       1.0  0.18263513051310548  0.8747479883745868  0.9735266132997183  1.0000
  H   H22       1.0  0.12290242059581406  0.8175198887965608  0.5252668391413594  1.0000
  H   H23       1.0  0.8175201640301922  0.1229099265024587  0.025263587125493814  1.0000
  H   H24       1.0  0.8747502237670871  0.1826306618171074  0.47353500758675443  1.0000
  H   H25       1.0  0.7399448488227308  0.622588029202909  0.01787444004360593  1.0000
  H   H26       1.0  0.38000618654444906  0.2605734353110662  0.4835436797120991  1.0000
  H   H27       1.0  0.2605776470071249  0.38000638338119336  0.9835460527357898  1.0000
  H   H28       1.0  0.6225775000706762  0.7399363491606721  0.5178795294189628  1.0000
  H   H29       1.0  0.509870270234707  0.9857497325158421  0.8065992427868665  1.0000
  H   H30       1.0  0.014154833454163915  0.49316378127412724  0.6938880406945885  1.0000
  H   H31       1.0  0.4931558037278235  0.014151945111706296  0.193892329918242  1.0000
  H   H32       1.0  0.9857524580163498  0.5098599706064064  0.30659285289358  1.0000
  C   C1        1.0  0.5129176865254338  0.7319603679167273  0.8745414942637026  1.0000
  C   C2        1.0  0.2676019977381685  0.4889120749408491  0.6255918394598794  1.0000
  C   C3        1.0  0.48892333340747735  0.26762934781861963  0.1256037599004287  1.0000
  C   C4        1.0  0.7319440621417642  0.5129120222982451  0.3745287370319659  1.0000
  C   C5        1.0  0.4966856095641674  0.12239963760298882  0.9491924650478722  1.0000
  C   C6        1.0  0.8774332910357572  0.5061497432356532  0.5512486932576905  1.0000
  C   C7        1.0  0.5061490805755041  0.8774294557552269  0.0512533210221591  1.0000
  C   C8        1.0  0.12239697828508149  0.49667989889439906  0.44918971610987773  1.0000
  C   C9        1.0  0.5098705066061484  0.8697250290487446  0.9412375119912043  1.0000
  C   C10       1.0  0.13026342599786742  0.49331380636754585  0.5592498246172184  1.0000
  C   C11       1.0  0.49331555791459897  0.13027126063821023  0.059258410736447324  1.0000
  C   C12       1.0  0.8697209202646476  0.5098622028787502  0.44123015202797694  1.0000
  C   C13       1.0  0.5060448502230558  0.9929828586201028  0.8917529243444166  1.0000
  C   C14       1.0  0.007023394268990967  0.4971565482002163  0.6087555089173762  1.0000
  C   C15       1.0  0.4971572071295329  0.007024002325401601  0.10876166024450382  1.0000
  C   C16       1.0  0.9929825327092914  0.506035904537903  0.39174488099858706  1.0000
  C   C17       1.0  0.4959166334708556  0.2474803073989449  0.8874953869472009  1.0000
  C   C18       1.0  0.7509092782835793  0.5045989742416951  0.6121921419483841  1.0000
  C   C19       1.0  0.5046147344059904  0.7509021864220174  0.11220161423559459  1.0000
  C   C20       1.0  0.2474827579396077  0.49589318375927155  0.387494522259118  1.0000
  C   C21       1.0  0.8227269971614105  0.6521275805905021  0.961404813224533  1.0000
  C   C22       1.0  0.34813170826564727  0.1768942710951507  0.5392692127525295  1.0000
  C   C23       1.0  0.1768965350549863  0.3481384497145186  0.0392704784793168  1.0000
  C   C24       1.0  0.6521195943559376  0.8227238062183986  0.46141219025410163  1.0000
  C   C25       1.0  0.02236978897213495  0.7321044890349242  0.1202239855824274  1.0000
  C   C26       1.0  0.2687569160792195  0.9786184567770205  0.3797881308499242  1.0000
  C   C27       1.0  0.978625774769988  0.26876272761632686  0.8797905591538611  1.0000
  C   C28       1.0  0.7320948200986023  0.0223607072388603  0.620224497066836  1.0000
  C   C29       1.0  0.09570276372054565  0.7556048038194731  0.9397325655943618  1.0000
  C   C30       1.0  0.24215691193413852  0.9035853624758091  0.5596364649414198  1.0000
  C   C31       1.0  0.9035858091581874  0.24216780719137895  0.059631009040238346  1.0000
  C   C32       1.0  0.7556057110238682  0.09570245344617942  0.43973479082247013  1.0000
  N   N1        1.0  0.9735113539745229  0.7089054484579833  0.004958686972031526  1.0000
  N   N2        1.0  0.2905887628952328  0.026522189410776796  0.4950820643895213  1.0000
  N   N3        1.0  0.0265239378240238  0.2905926899258162  0.9950822825408778  1.0000
  N   N4        1.0  0.7089034400802131  0.9735079448348284  0.5049618718717639  1.0000
  O   O1        1.0  0.5492293911588463  0.7429073690397489  0.7815213168861987  1.0000
  O   O2        1.0  0.25718042396368196  0.45454226401763265  0.7192328401945431  1.0000
  O   O3        1.0  0.4545328703668902  0.25718966246890324  0.2192413645946942  1.0000
  O   O4        1.0  0.7429085972207119  0.5492565905978638  0.28151270188675437  1.0000
  O   O5        1.0  0.624456817900942  0.3231425438523843  0.8544211301982543  1.0000
  O   O6        1.0  0.6747658130775491  0.3748779225654176  0.6435205676299773  1.0000
  O   O7        1.0  0.3748915627825866  0.6747806947891064  0.14353224268245413  1.0000
  O   O8        1.0  0.3231491635599538  0.6244481488305524  0.3544427171760702  1.0000
  O   O9        1.0  0.4784991669132452  0.6034589402204134  0.9103889274413461  1.0000
  O   O10       1.0  0.39487917825255175  0.5194597598674094  0.5887915849575833  1.0000
  O   O11       1.0  0.5194791496531224  0.3949087041921048  0.08879374928071831  1.0000
  O   O12       1.0  0.6034446205744713  0.4784838957242528  0.41038523173334346  1.0000
  O   O13       1.0  0.7764885869324872  0.6352226641596488  0.8622590154379284  1.0000
  O   O14       1.0  0.3633574256010307  0.22197789149052483  0.6385142659212732  1.0000
  O   O15       1.0  0.2219792674068657  0.3633680454783743  0.13851592896048  1.0000
  O   O16       1.0  0.6352273892252143  0.7764924649945115  0.3622689897083049  1.0000
  O   O17       1.0  0.3747665974373717  0.2701595830352588  0.8609520434166029  1.0000
  O   O18       1.0  0.7271396799750319  0.6249043142685052  0.6395855771331185  1.0000
  O   O19       1.0  0.6249262414274028  0.7271427259797107  0.13958852756761791  1.0000
  O   O20       1.0  0.2701342539500189  0.3747304667907231  0.36093672551297123  1.0000
