data_image0
_chemical_formula_structural       Zn2H40C44N4O8
_chemical_formula_sum              "Zn2 H40 C44 N4 O8"
_cell_length_a       7.656824154465043
_cell_length_b       8.822029834484951
_cell_length_c       15.406764198621707
_cell_angle_alpha    86.82269727122221
_cell_angle_beta     90.59666656244559
_cell_angle_gamma    82.38280019750323

_space_group_name_H-M_alt    "P 1"
_space_group_IT_number       1

loop_
  _space_group_symop_operation_xyz
  'x, y, z'

loop_
  _atom_site_type_symbol
  _atom_site_label
  _atom_site_symmetry_multiplicity
  _atom_site_fract_x
  _atom_site_fract_y
  _atom_site_fract_z
  _atom_site_occupancy
  Zn  Zn1       1.0  0.6190172730551283  0.19626149852221894  0.7549873365092239  1.0000
  Zn  Zn2       1.0  0.380972696131444  0.8037281513382764  0.2450129859443493  1.0000
  H   H1        1.0  0.4957244668617517  0.5094758065101958  0.7973365510094013  1.0000
  H   H2        1.0  0.5042861375427062  0.49051268829398254  0.2026552155287291  1.0000
  H   H3        1.0  0.27618496449749586  0.6424799353898791  0.8946635229296548  1.0000
  H   H4        1.0  0.7238491579802754  0.35753496326491774  0.10533103237719392  1.0000
  H   H5        1.0  0.24794094534755826  0.20487019269955914  0.030741647754240396  1.0000
  H   H6        1.0  0.7520651919625861  0.7951619238599008  0.9692680957982347  1.0000
  H   H7        1.0  0.4732505047901725  0.09001124379044259  0.9283182472687131  1.0000
  H   H8        1.0  0.5267385293582122  0.9099956298304759  0.0716899167516871  1.0000
  H   H9        1.0  0.10005951520173537  0.6322453562258445  0.025023533129299804  1.0000
  H   H10       1.0  0.8999668814803526  0.367786732557029  0.9749737219908853  1.0000
  H   H11       1.0  0.09496045626963928  0.4624129155559801  0.0888268391813867  1.0000
  H   H12       1.0  0.9050645100235926  0.5376214835989543  0.911174890404084  1.0000
  H   H13       1.0  0.22016464073901423  0.1868959486286457  0.7733328465692253  1.0000
  H   H14       1.0  0.7798296670443744  0.813106289771021  0.22666245511437919  1.0000
  H   H15       1.0  0.9750891444365946  0.1380238896300199  0.6761302179598447  1.0000
  H   H16       1.0  0.024902545773812755  0.8619714914435974  0.3238698897939827  1.0000
  H   H17       1.0  0.33464452211045165  0.1256226188255596  0.4630181460737077  1.0000
  H   H18       1.0  0.6653354787390384  0.8743704271135612  0.5369762886542304  1.0000
  H   H19       1.0  0.5717928580912994  0.1664706279777519  0.56991068481517  1.0000
  H   H20       1.0  0.4281922261244945  0.8335304275564325  0.4300795339411181  1.0000
  H   H21       1.0  0.004654344966574807  0.14048393085903393  0.4374089608155387  1.0000
  H   H22       1.0  0.9953258730268001  0.8594999583586685  0.5625877423626663  1.0000
  H   H23       1.0  0.8634239544484428  0.1306472871164317  0.5284618773841743  1.0000
  H   H24       1.0  0.13656010689714285  0.8693297480488128  0.4715382843703325  1.0000
  H   H25       1.0  0.904058447114444  0.4864089589628264  0.5797979120235868  1.0000
  H   H26       1.0  0.09596817030458028  0.5135555458420312  0.420204966286704  1.0000
  H   H27       1.0  0.7836261362906283  0.632200659031902  0.6358569617301768  1.0000
  H   H28       1.0  0.2163781912432299  0.36778320194467545  0.3641259253795966  1.0000
  H   H29       1.0  0.2070067626403471  0.4704284335954583  0.5678133872485065  1.0000
  H   H30       1.0  0.7930070002052572  0.5295612772311387  0.4321925968077593  1.0000
  H   H31       1.0  0.48189952622178817  0.5852184864154778  0.5863855117074763  1.0000
  H   H32       1.0  0.5181061741795148  0.4147815305925135  0.41362146912715764  1.0000
  H   H33       1.0  0.4904001127927983  0.7934376875265486  0.6903081615752171  1.0000
  H   H34       1.0  0.5095884795431898  0.20657030730235695  0.3096947720788635  1.0000
  H   H35       1.0  0.23002594484885458  0.8664395445376484  0.7812419666945447  1.0000
  H   H36       1.0  0.7699579728439188  0.1335638456556154  0.2187579179249539  1.0000
  H   H37       1.0  0.9646955002050316  0.7798726275855684  0.8482040528031263  1.0000
  H   H38       1.0  0.03529948577916289  0.22011015794802086  0.151797122598893  1.0000
  H   H39       1.0  0.8291339681483902  0.6748991859499114  0.7885892687562759  1.0000
  H   H40       1.0  0.1708586515944006  0.3250973242725124  0.2114068965518143  1.0000
  C   C1        1.0  0.43958501331717054  0.446803090671473  0.8507394494865183  1.0000
  C   C2        1.0  0.5604224142159993  0.5531991724906219  0.14925705075769  1.0000
  C   C3        1.0  0.31601611043336664  0.5196430448936127  0.904983538544478  1.0000
  C   C4        1.0  0.6840071403418334  0.4803672701389702  0.09501450661964841  1.0000
  C   C5        1.0  0.23860818719147397  0.4348269700968856  0.9697947722235156  1.0000
  C   C6        1.0  0.7614116757826322  0.5651982557527403  0.0302073187535541  1.0000
  C   C7        1.0  0.29931199365314853  0.27736374092656757  0.9800212479039203  1.0000
  C   C8        1.0  0.7006969316519257  0.7226568952290859  0.019983035080940712  1.0000
  C   C9        1.0  0.42476523950953277  0.21233549259120113  0.9236537889626251  1.0000
  C   C10       1.0  0.5752361166830938  0.7876748179901297  0.0763502653152699  1.0000
  C   C11       1.0  0.08974372203692836  0.5096477580943386  0.021406473509529202  1.0000
  C   C12       1.0  0.9102746513981825  0.49038662564350927  0.9785940078708961  1.0000
  C   C13       1.0  0.24272587212793434  0.16927706119999192  0.704634678191404  1.0000
  C   C14       1.0  0.757257959645578  0.8307251592112621  0.2953600539985572  1.0000
  C   C15       1.0  0.1054524993682477  0.1441447835229397  0.6501338497228417  1.0000
  C   C16       1.0  0.8945379974439261  0.8558494441148596  0.3498650090787835  1.0000
  C   C17       1.0  0.13531255086034116  0.12608487939555604  0.5617228457320493  1.0000
  C   C18       1.0  0.8646765938515628  0.8739001653647448  0.4382731000508073  1.0000
  C   C19       1.0  0.3057140665124223  0.1371917498290642  0.5316754296240235  1.0000
  C   C20       1.0  0.6942735756300634  0.8628036134938453  0.4683221122174999  1.0000
  C   C21       1.0  0.4372616380494278  0.15960638237876876  0.5903523897079667  1.0000
  C   C22       1.0  0.5627225166339825  0.8403935440066164  0.40964177149405157  1.0000
  C   C23       1.0  0.9928296280393667  0.08791750788971339  0.5028822585394224  1.0000
  C   C24       1.0  0.007157057801599393  0.9120687089862116  0.4971201573802233  1.0000
  C   C25       1.0  0.8374830217583308  0.4188191788768023  0.7087420085879828  1.0000
  C   C26       1.0  0.16251948732467267  0.5811750898696175  0.29126195225158114  1.0000
  C   C27       1.0  0.894455818457807  0.5386376914159571  0.6429397061462441  1.0000
  C   C28       1.0  0.10554696681315076  0.4613451022961569  0.35706076075771165  1.0000
  C   C29       1.0  0.061588000170821985  0.6033170270810331  0.6627261458419582  1.0000
  C   C30       1.0  0.9384104608442667  0.3966772239146792  0.33727524908530887  1.0000
  C   C31       1.0  0.21225120918946763  0.5581977119136852  0.6146354050230656  1.0000
  C   C32       1.0  0.7877545702087189  0.4418011504916777  0.3853696680057369  1.0000
  C   C33       1.0  0.36671967359757207  0.6238181329657736  0.624319201205175  1.0000
  C   C34       1.0  0.6332835410576009  0.37617956806295183  0.3756833349508356  1.0000
  C   C35       1.0  0.3725385798211889  0.7375235620883415  0.6834460727686817  1.0000
  C   C36       1.0  0.6274562357410643  0.2624775611750961  0.3165557571307289  1.0000
  C   C37       1.0  0.22541994927310335  0.7792463668837398  0.7339013970773111  1.0000
  C   C38       1.0  0.7745720116194617  0.22075589206480825  0.26609911586199797  1.0000
  C   C39       1.0  0.0698513453775078  0.7132261604624829  0.7250976826773652  1.0000
  C   C40       1.0  0.9301464038513101  0.28677267251321575  0.2749035563763158  1.0000
  C   C41       1.0  0.9166480406504718  0.7640104894586628  0.7823454884791374  1.0000
  C   C42       1.0  0.08334382750649638  0.23598374611996323  0.2176546582430845  1.0000
  C   C43       1.0  0.8032977208922955  0.912160957195269  0.749620411902093  1.0000
  C   C44       1.0  0.1967025930795359  0.0878390371570745  0.2503833640243869  1.0000
  N   N1        1.0  0.4917388229042032  0.2948096822982151  0.8587707196857223  1.0000
  N   N2        1.0  0.5082620179849399  0.7051845511844943  0.14122611291058015  1.0000
  N   N3        1.0  0.4074841984513  0.17357729972877678  0.6759362118280164  1.0000
  N   N4        1.0  0.5925044391900373  0.8264191988146906  0.3240586854172633  1.0000
  O   O1        1.0  0.7168862370880829  0.34507296980888913  0.6770737392624682  1.0000
  O   O2        1.0  0.2831071151020836  0.6549304607907374  0.32293191617748823  1.0000
  O   O3        1.0  0.8996873625976106  0.3978613514267408  0.7840475987672377  1.0000
  O   O4        1.0  0.10032263660095708  0.6021443974966303  0.21595849858513116  1.0000
  O   O5        1.0  0.7513441836558099  0.006437391895886399  0.8091756742119998  1.0000
  O   O6        1.0  0.2486414606726584  0.9935488473979888  0.1908319430344605  1.0000
  O   O7        1.0  0.7640609258312377  0.936673384411158  0.6707107006889006  1.0000
  O   O8        1.0  0.23595813883510167  0.06334038578623338  0.3292924487546358  1.0000
