data_image0
_chemical_formula_structural       Cd4H36C48N16O16
_chemical_formula_sum              "Cd4 H36 C48 N16 O16"
_cell_length_a       10.401264166565944
_cell_length_b       10.664941424795858
_cell_length_c       13.348362737421851
_cell_angle_alpha    89.4034662713275
_cell_angle_beta     83.56269178808616
_cell_angle_gamma    69.17809245385527

_space_group_name_H-M_alt    "P 1"
_space_group_IT_number       1

loop_
  _space_group_symop_operation_xyz
  'x, y, z'

loop_
  _atom_site_type_symbol
  _atom_site_label
  _atom_site_symmetry_multiplicity
  _atom_site_fract_x
  _atom_site_fract_y
  _atom_site_fract_z
  _atom_site_occupancy
  Cd  Cd1       1.0  0.6190562545135592  0.49357026774885787  0.6115030080297146  1.0000
  Cd  Cd2       1.0  0.3809439811357366  0.5064292297793003  0.38849657681057437  1.0000
  Cd  Cd3       1.0  0.4019471623311261  0.07336826987125991  0.8785329345137496  1.0000
  Cd  Cd4       1.0  0.5980527059187465  0.9266322313412236  0.12146742322040177  1.0000
  H   H1        1.0  0.5960319982163895  0.7229762646402165  0.8266773998703768  1.0000
  H   H2        1.0  0.40396920650660223  0.27702323239245175  0.17332284840658466  1.0000
  H   H3        1.0  0.895762366671434  0.2572064121774956  0.4778859395361151  1.0000
  H   H4        1.0  0.1042388366849067  0.7427930848438891  0.522113559705538  1.0000
  H   H5        1.0  0.9986981820985293  0.5617926325067301  0.32075784610934477  1.0000
  H   H6        1.0  0.001301686151343484  0.438207868705753  0.6792425116248065  1.0000
  H   H7        1.0  0.764799574559042  0.6796603267156132  0.45825946007855817  1.0000
  H   H8        1.0  0.2352006610902535  0.3203391708125451  0.5417401247617304  1.0000
  H   H9        1.0  0.18300509044113505  0.24262412777073916  0.3730337659825337  1.0000
  H   H10       1.0  0.8169941761344571  0.7573753702529089  0.6269651554210823  1.0000
  H   H11       1.0  0.13239980582262942  0.3271498161618425  0.2612891652802886  1.0000
  H   H12       1.0  0.867599460752963  0.6728496818618055  0.7387097561233272  1.0000
  H   H13       1.0  0.8612840063505516  0.07126818836652402  0.1436678421786795  1.0000
  H   H14       1.0  0.13871526159168476  0.9287313096684072  0.856331828260245  1.0000
  H   H15       1.0  0.958871594361497  0.8547548983657833  0.2297320927377909  1.0000
  H   H16       1.0  0.041128872829347095  0.14524660601296802  0.7702682032562789  1.0000
  H   H17       1.0  0.12506755246877788  0.8345136873263926  0.35654304760758027  1.0000
  H   H18       1.0  0.8749332821214963  0.1654868133680267  0.6434564754926269  1.0000
  H   H19       1.0  0.18561928221596694  0.029654584886145603  0.39774555846264537  1.0000
  H   H20       1.0  0.8143811836082263  0.9703469194813152  0.602253988496116  1.0000
  H   H21       1.0  0.4135283778184515  0.307224172363334  0.6855826770935565  1.0000
  H   H22       1.0  0.5864714890647634  0.6927763288378587  0.3144169316052866  1.0000
  H   H23       1.0  0.09575248621158038  0.09679616230277331  0.019363157205049195  1.0000
  H   H24       1.0  0.9042473820382922  0.9032043389097097  0.9806372005291023  1.0000
  H   H25       1.0  0.27541991160131124  0.39339143020284695  0.9706116034762571  1.0000
  H   H26       1.0  0.7245812917550296  0.6066080668185307  0.029387895765395872  1.0000
  H   H27       1.0  0.04730197444325764  0.4905474323581205  0.11500599617313158  1.0000
  H   H28       1.0  0.9526975250405416  0.5094540725274043  0.8849943854195742  1.0000
  H   H29       1.0  0.8323582358139915  0.295658058345623  0.1206714377430131  1.0000
  H   H30       1.0  0.16764163243588112  0.7043424428668601  0.8793289199911454  1.0000
  H   H31       1.0  0.8863070254328349  0.38928302483446947  0.20547347077103234  1.0000
  H   H32       1.0  0.11369284281703775  0.6107174763780138  0.7945268869631191  1.0000
  H   H33       1.0  0.2872764622204826  0.9783990026759285  0.5284877167574746  1.0000
  H   H34       1.0  0.7127237747954637  0.0216004948635202  0.47151261711812237  1.0000
  H   H35       1.0  0.7985320060129198  0.2657611339217425  0.9444935797239747  1.0000
  H   H36       1.0  0.20146822963637584  0.7342383636064156  0.05550600511631389  1.0000
  C   C1        1.0  0.5360171121334147  0.7709840252896639  0.7662220168700242  1.0000
  C   C2        1.0  0.46398275474980016  0.22901647591152857  0.23377759182881863  1.0000
  C   C3        1.0  0.3999641972349579  0.923575619076253  0.6783630434727995  1.0000
  C   C4        1.0  0.6000364085470551  0.07642287479015411  0.3216372665442435  1.0000
  C   C5        1.0  0.4447002109586791  0.8001594852877787  0.6254822319419231  1.0000
  C   C6        1.0  0.5552990583502151  0.1998400127584432  0.3745181875323098  1.0000
  C   C7        1.0  0.309013959153944  0.0589580889912895  0.6546508677099253  1.0000
  C   C8        1.0  0.6909872442023969  0.9410414080300951  0.3453486315317278  1.0000
  C   C9        1.0  0.40660216102342156  0.7607190192356229  0.5305732706174168  1.0000
  C   C10       1.0  0.5933990436995699  0.2392804777970454  0.46942697765955177  1.0000
  C   C11       1.0  0.8904604620182467  0.3570209815701447  0.456199252642797  1.0000
  C   C12       1.0  0.10954074133809402  0.642978515451233  0.5438002465988558  1.0000
  C   C13       1.0  0.940533070579825  0.5185186793495333  0.3738755573760739  1.0000
  C   C14       1.0  0.059466197362418365  0.4814808186853981  0.6261241130628503  1.0000
  C   C15       1.0  0.8262675854775023  0.5743619228994704  0.44334376661200975  1.0000
  C   C16       1.0  0.17373265017178596  0.4256375746286878  0.5566558182282789  1.0000
  C   C17       1.0  0.09794461546197648  0.277577861510281  0.325679242833182  1.0000
  C   C18       1.0  0.9020562191282973  0.7224226391841386  0.6743202802670251  1.0000
  C   C19       1.0  0.059608353985439115  0.1606799239927099  0.2950657070771854  1.0000
  C   C20       1.0  0.940392480604835  0.8393205767017095  0.704933816023022  1.0000
  C   C21       1.0  0.967875037073746  0.17175846934687666  0.22244145019500638  1.0000
  C   C22       1.0  0.03212349333634992  0.828243036034138  0.7775582679610265  1.0000
  C   C23       1.0  0.9320951444812308  0.0613157230795167  0.2002948194649505  1.0000
  C   C24       1.0  0.06790472376863481  0.9386847781329664  0.799705538269201  1.0000
  C   C25       1.0  0.9876355534883671  0.939788115775926  0.2481018860273139  1.0000
  C   C26       1.0  0.012365282468550683  0.06021238492977691  0.7518983861082018  1.0000
  C   C27       1.0  0.07943122941678388  0.9285258729262366  0.3189736995826847  1.0000
  C   C28       1.0  0.9205696051734832  0.07147462776818261  0.6810258235175296  1.0000
  C   C29       1.0  0.11419890638968158  0.0388377183910364  0.34231940654321835  1.0000
  C   C30       1.0  0.8858022969666592  0.9611617786303485  0.6576800926984416  1.0000
  C   C31       1.0  0.4876257689587573  0.29888653977465657  0.7386287949888908  1.0000
  C   C32       1.0  0.5123744666905381  0.7011129577535016  0.2613707898513978  1.0000
  C   C33       1.0  0.6046017910978065  0.2355811594892572  0.8666253776683913  1.0000
  C   C34       1.0  0.39539710807836304  0.7644193422187158  0.1333743166290873  1.0000
  C   C35       1.0  0.6529217538247067  0.32578094415318765  0.8115700896548289  1.0000
  C   C36       1.0  0.3470781130585151  0.6742195570480122  0.18842951904401414  1.0000
  C   C37       1.0  0.6491467452787845  0.15713736895538233  0.9565558374835275  1.0000
  C   C38       1.0  0.3508528914295325  0.8428611254065076  0.04344380909684277  1.0000
  C   C39       1.0  0.7650373381404093  0.3752342872478849  0.8235215222492369  1.0000
  C   C40       1.0  0.23496193253513548  0.6247652108096207  0.17647964626030435  1.0000
  C   C41       1.0  0.11339508635900587  0.19082011346681335  0.023060294409020795  1.0000
  C   C42       1.0  0.8866038141838145  0.8091803882524433  0.9769401489237662  1.0000
  C   C43       1.0  0.20366166903941257  0.34631304099499266  0.001715606593812408  1.0000
  C   C44       1.0  0.7963372301367573  0.6536874607129803  0.9982840877036662  1.0000
  C   C45       1.0  0.0907118322875888  0.3956129401483254  0.0732266919905982  1.0000
  C   C46       1.0  0.9092870668885806  0.6043875615596477  0.9267730023068805  1.0000
  C   C47       1.0  0.9193437839368669  0.29556810625236823  0.1602732444785744  1.0000
  C   C48       1.0  0.0806570506534001  0.7044323944420512  0.839726278621633  1.0000
  N   N1        1.0  0.530958097948421  0.7055634343563071  0.6819275073911369  1.0000
  N   N2        1.0  0.4690421390675183  0.2944360631831416  0.31807282648446017  1.0000
  N   N3        1.0  0.458480371826738  0.9024804255904826  0.7672896174141923  1.0000
  N   N4        1.0  0.54152046413018  0.09752007511522719  0.23271065472132335  1.0000
  N   N5        1.0  0.7966275469554135  0.47249990680352744  0.49434252149895724  1.0000
  N   N6        1.0  0.20337172098683  0.5274995912314112  0.5056571489399673  1.0000
  N   N7        1.0  0.9793803965792802  0.3811130856443654  0.38304163657439005  1.0000
  N   N8        1.0  0.02061983907001511  0.6188864118837929  0.6169579482659058  1.0000
  N   N9        1.0  0.5773709500296604  0.364058729256044  0.7312050204247597  1.0000
  N   N10       1.0  0.4226289168535616  0.6359417719451488  0.26879458827408337  1.0000
  N   N11       1.0  0.5005852988493303  0.22081633532075537  0.8192623930344636  1.0000
  N   N12       1.0  0.4994149367999655  0.7791831622074028  0.18073719180582504  1.0000
  N   N13       1.0  0.2162428588897711  0.2186131081998255  0.9711587533243884  1.0000
  N   N14       1.0  0.7837560416530494  0.781387393519431  0.028841690008398813  1.0000
  N   N15       1.0  0.03465707324335201  0.296210585553041  0.08561944653413177  1.0000
  N   N16       1.0  0.9653427950065206  0.7037899156594422  0.9143809112000196  1.0000
  O   O1        1.0  0.2799734553976094  0.1550725015944394  0.7156651567288673  1.0000
  O   O2        1.0  0.720026780251686  0.8449269959337186  0.2843344281114213  1.0000
  O   O3        1.0  0.2605672443661291  0.0742750077375263  0.5660384485206078  1.0000
  O   O4        1.0  0.7394333614158838  0.9257234861288808  0.433961861496435  1.0000
  O   O5        1.0  0.3213777673042984  0.8496349610337857  0.4821036325110199  1.0000
  O   O6        1.0  0.6786224683449903  0.15036453649437223  0.517895952329269  1.0000
  O   O7        1.0  0.46010916635688653  0.6366354151627931  0.5033376582956774  1.0000
  O   O8        1.0  0.5398904730847249  0.3633630792216778  0.4966634863553096  1.0000
  O   O9        1.0  0.5840212843176715  0.07947540842101833  0.9863362909528984  1.0000
  O   O10       1.0  0.41597664715145294  0.9205250937937282  0.013663488943215887  1.0000
  O   O11       1.0  0.7490642983334154  0.1693082389152138  0.9981737130040853  1.0000
  O   O12       1.0  0.250935707140968  0.8306892517736418  0.001825909717730704  1.0000
  O   O13       1.0  0.8329886470630327  0.3362911415086245  0.9033607550243372  1.0000
  O   O14       1.0  0.16701062361250502  0.6637083565488809  0.09664041348520407  1.0000
  O   O15       1.0  0.7954675112872276  0.4503750334361529  0.7606532087672377  1.0000
  O   O16       1.0  0.20453102185616956  0.5496264719674357  0.2393480074594122  1.0000
