data_image0
_chemical_formula_structural       Al2H10C22S2N2O10F2
_chemical_formula_sum              "Al2 H10 C22 S2 N2 O10 F2"
_cell_length_a       6.67454446324914
_cell_length_b       12.8011015107054
_cell_length_c       16.92979287529117
_cell_angle_alpha    85.28801490121413
_cell_angle_beta     82.86004753018045
_cell_angle_gamma    74.2872697374465

_space_group_name_H-M_alt    "P 1"
_space_group_IT_number       1

loop_
  _space_group_symop_operation_xyz
  'x, y, z'

loop_
  _atom_site_type_symbol
  _atom_site_label
  _atom_site_symmetry_multiplicity
  _atom_site_fract_x
  _atom_site_fract_y
  _atom_site_fract_z
  _atom_site_occupancy
  Al  Al1       1.0  0.5000011325178092  0.4999995528846027  0.5000011411457803  1.0000
  Al  Al2       1.0  0.999999998817806  0.4999991608400973  0.5000009978679782  1.0000
  H   H1        1.0  0.20090175679204234  0.6285372627950777  0.45096738163623923  1.0000
  H   H2        1.0  0.7991036206504984  0.3714586176101448  0.5490337251284599  1.0000
  H   H3        1.0  0.8532973303088692  0.49703740457293566  0.7360704169349359  1.0000
  H   H4        1.0  0.7893709544711668  0.49991739903001065  0.8860769154812899  1.0000
  H   H5        1.0  0.42642820197075065  0.5049184875408698  0.8956841328847245  1.0000
  H   H6        1.0  0.48929851342695946  0.5036443439264885  0.7450097459471008  1.0000
  H   H7        1.0  0.5735762709984583  0.49508223771766763  0.10431795459660259  1.0000
  H   H8        1.0  0.21063015034820143  0.50008095115529  0.11392310126375087  1.0000
  H   H9        1.0  0.14670972978217364  0.502964154817505  0.26393031493113733  1.0000
  H   H10       1.0  0.5107047235409609  0.4963588321856562  0.2549916887838677  1.0000
  C   C1        1.0  0.6521577892756342  0.6944698222563588  0.5086305414268324  1.0000
  C   C2        1.0  0.7881037915547461  0.5031887228846871  0.3560888896758526  1.0000
  C   C3        1.0  0.34784535472895317  0.3055303099005258  0.4913621916530315  1.0000
  C   C4        1.0  0.2118960913256983  0.4968120646140263  0.6439110650567341  1.0000
  C   C5        1.0  0.17491765119982006  0.49982693496410485  0.7325656803686369  1.0000
  C   C6        1.0  0.9768579246707316  0.4988377827182192  0.7719776582894722  1.0000
  C   C7        1.0  0.9414567792215324  0.5002351770066368  0.8543262733677037  1.0000
  C   C8        1.0  0.10567823243404442  0.5018865234270465  0.8986865528315914  1.0000
  C   C9        1.0  0.30318976303367146  0.5033983533768024  0.8594283975692389  1.0000
  C   C10       1.0  0.33749267147061324  0.5026287515720683  0.7767486134168988  1.0000
  C   C11       1.0  0.6968181257456718  0.4966015675978424  0.14057296637638217  1.0000
  C   C12       1.0  0.8943247628533226  0.49811103870767676  0.10131222637414078  1.0000
  C   C13       1.0  0.058545050376380886  0.49976476828075517  0.14567480677722236  1.0000
  C   C14       1.0  0.02314638813925997  0.5011662302189633  0.22802249756055193  1.0000
  C   C15       1.0  0.8250859227692542  0.5001754964111739  0.2674328213435898  1.0000
  C   C16       1.0  0.6625082817786916  0.49737601148826366  0.223254628920479  1.0000
  C   C17       1.0  0.5904672113414688  0.11493619027910278  0.5162804833656266  1.0000
  C   C18       1.0  0.4095246711132813  0.8850623250071051  0.48371349566821903  1.0000
  C   C19       1.0  0.40897025440402485  0.1864987714373569  0.49291158380780314  1.0000
  C   C20       1.0  0.5910301196679907  0.8135007026100781  0.5070748252944667  1.0000
  C   C21       1.0  0.40724936604722456  0.995162734456997  0.4868152871922645  1.0000
  C   C22       1.0  0.5927529828669903  0.004835870298727198  0.5131734287981544  1.0000
  S   S1        1.0  0.23484302369460858  0.11872956846711699  0.46695492302741554  1.0000
  S   S2        1.0  0.7651563589095216  0.8812689875141402  0.5330363093832629  1.0000
  N   N1        1.0  0.08871614050789121  0.5021684138113541  0.9826654257997729  1.0000
  N   N2        1.0  0.9112856609652905  0.4978315585564133  0.017334472869329393  1.0000
  O   O1        1.0  0.512333393369296  0.6480299174930195  0.49789382716291175  1.0000
  O   O2        1.0  0.9341973087522745  0.5191014243020502  0.39171547882975216  1.0000
  O   O3        1.0  0.1578184751251611  0.3522797287057031  0.48035866544275746  1.0000
  O   O4        1.0  0.38700057731687554  0.5086685355227587  0.6106575477922432  1.0000
  O   O5        1.0  0.4876661720455643  0.35196846246579827  0.5021050848406148  1.0000
  O   O6        1.0  0.06580698999535865  0.4809026021753268  0.6082840862823602  1.0000
  O   O7        1.0  0.8421796352593913  0.647718599785499  0.5196426862467121  1.0000
  O   O8        1.0  0.6130043928126908  0.49132815732026813  0.389343538301638  1.0000
  O   O9        1.0  0.2334057488257811  0.5518749205256553  0.46712434774528316  1.0000
  O   O10       1.0  0.766591285716707  0.4481225711405017  0.5328782828251304  1.0000
  F   F1        1.0  0.7493797430659938  0.145115619206436  0.5411882570867234  1.0000
  F   F2        1.0  0.25061433325998883  0.8548845291092917  0.4588049363989695  1.0000
