data_image0
_chemical_formula_structural       CuH42C24N4O4
_chemical_formula_sum              "Cu1 H42 C24 N4 O4"
_cell_length_a       7.902077548595984
_cell_length_b       8.950889306122608
_cell_length_c       10.382556080658812
_cell_angle_alpha    84.36080996819476
_cell_angle_beta     74.269362776995
_cell_angle_gamma    80.3343890878433

_space_group_name_H-M_alt    "P 1"
_space_group_IT_number       1

loop_
  _space_group_symop_operation_xyz
  'x, y, z'

loop_
  _atom_site_type_symbol
  _atom_site_label
  _atom_site_symmetry_multiplicity
  _atom_site_fract_x
  _atom_site_fract_y
  _atom_site_fract_z
  _atom_site_occupancy
  Cu  Cu1       1.0  0.4999887576218143  0.5000240914976286  0.5000049969504161  1.0000
  H   H1        1.0  0.3775924474183583  0.6502723996526356  0.32980153607658735  1.0000
  H   H2        1.0  0.6224145545441715  0.34970351183795856  0.6702021429204238  1.0000
  H   H3        1.0  0.8046287037846656  0.4994399741619232  0.41435714071820934  1.0000
  H   H4        1.0  0.19534545438594356  0.5005558523974541  0.5856574026546681  1.0000
  H   H5        1.0  0.7246490765798512  0.469478874968118  0.2015939539786302  1.0000
  H   H6        1.0  0.2753651604117877  0.5305250981244993  0.7983865354876585  1.0000
  H   H7        1.0  0.5231687082061072  0.7675127691649449  0.1103042224268478  1.0000
  H   H8        1.0  0.47683163356949626  0.23250074602503903  0.889726546611037  1.0000
  H   H9        1.0  0.5603372204463216  0.5930061859488164  0.03343311945484826  1.0000
  H   H10       1.0  0.4396332423553204  0.40701307461986147  0.9665595960623535  1.0000
  H   H11       1.0  0.885259164309858  0.591281197874842  0.9694812778029558  1.0000
  H   H12       1.0  0.1147201385590932  0.40875660569668776  0.030533782830751505  1.0000
  H   H13       1.0  0.7798207563229981  0.7617031504556521  0.9068718891732743  1.0000
  H   H14       1.0  0.22014908887686607  0.2383708945803348  0.09314387874695738  1.0000
  H   H15       1.0  0.8087175960740044  0.9018401832934726  0.09180319451087376  1.0000
  H   H16       1.0  0.19125824892756071  0.0981829362070599  0.9082422627512869  1.0000
  H   H17       1.0  0.019715958145177098  0.8059352337703203  0.01150787062618259  1.0000
  H   H18       1.0  0.9802691222752389  0.1941044334465118  0.9885194876018416  1.0000
  H   H19       1.0  0.9897856476659261  0.5978820587200387  0.19096357265253522  1.0000
  H   H20       1.0  0.010200042891760566  0.40215022903338143  0.8090477007765884  1.0000
  H   H21       1.0  0.9631027535450091  0.7748067989960744  0.26128783017496454  1.0000
  H   H22       1.0  0.03688912956804559  0.22521010488761556  0.7387424178893554  1.0000
  H   H23       1.0  0.6283009921893524  0.7850633854078949  0.3115373441196567  1.0000
  H   H24       1.0  0.3716972589301122  0.21493442935386756  0.6884879579147949  1.0000
  H   H25       1.0  0.8972111347400756  0.7296396219338134  0.4697475170263417  1.0000
  H   H26       1.0  0.10278309321250133  0.27036370507128993  0.5302493185276872  1.0000
  H   H27       1.0  0.8789897655133388  0.4889272412282324  0.6131427687270089  1.0000
  H   H28       1.0  0.12103571846561323  0.511076110692855  0.38685683612846583  1.0000
  H   H29       1.0  0.8607988277683563  0.6556961663488181  0.6959651291785888  1.0000
  H   H30       1.0  0.1391957486766557  0.3442965982336901  0.3040418745445734  1.0000
  H   H31       1.0  0.34557189488843676  0.4955315468441272  0.16535956094164564  1.0000
  H   H32       1.0  0.6544463421989236  0.5044412065379049  0.8346383184439005  1.0000
  H   H33       1.0  0.4748081032521653  0.33925575626515325  0.22864930009784962  1.0000
  H   H34       1.0  0.525212127772612  0.6607108307426726  0.7713630081075209  1.0000
  H   H35       1.0  0.6404293363338452  0.9174296494691276  0.46605159781589833  1.0000
  H   H36       1.0  0.3595645607573347  0.0825732374449544  0.5339578551724884  1.0000
  H   H37       1.0  0.6565016690502788  0.8941291994816752  0.6325037496114021  1.0000
  H   H38       1.0  0.3435211779416463  0.1058552041578835  0.3674858552493347  1.0000
  H   H39       1.0  0.4949413774429062  0.8078593954071637  0.5845985775340807  1.0000
  H   H40       1.0  0.5050584719670255  0.19213345796089237  0.4154064613096438  1.0000
  H   H41       1.0  0.004906282693390601  0.03785996711847161  0.35138833591345525  1.0000
  H   H42       1.0  0.9950920030673562  0.962085436471632  0.6485782273718074  1.0000
  C   C1        1.0  0.6365414993662172  0.5792780054520391  0.22075737930141773  1.0000
  C   C2        1.0  0.36347002053852867  0.42071620753537087  0.7792424868709275  1.0000
  C   C3        1.0  0.6179646558008401  0.662075716083109  0.08761127477948347  1.0000
  C   C4        1.0  0.38202590357121846  0.3379386371304419  0.9123943068610743  1.0000
  C   C5        1.0  0.797481349385592  0.698481358395945  0.9998026674935331  1.0000
  C   C6        1.0  0.202508677569341  0.3015568597187794  0.00020166937816410812  1.0000
  C   C7        1.0  0.8870472151092915  0.7881221131496473  0.0737495923052265  1.0000
  C   C8        1.0  0.11294113381369902  0.2119088306358847  0.9262680017369577  1.0000
  C   C9        1.0  0.9016484413096607  0.7075915924173799  0.20819836721807408  1.0000
  C   C10       1.0  0.09834458334560031  0.2924361245940901  0.7918146700971036  1.0000
  C   C11       1.0  0.7186225979488725  0.676739144074176  0.29379256473383464  1.0000
  C   C12       1.0  0.2813508971613814  0.3232682439571732  0.7062156689936785  1.0000
  C   C13       1.0  0.7672465417877277  0.6939733483874093  0.5195468754128073  1.0000
  C   C14       1.0  0.23275397136631432  0.30601613544781964  0.48045726415021056  1.0000
  C   C15       1.0  0.7907539424535202  0.5954288277603509  0.6439929448458912  1.0000
  C   C16       1.0  0.20925398115072366  0.40455618689239264  0.3560100468875476  1.0000
  C   C17       1.0  0.3796543684812832  0.4428325082057255  0.2573961509959801  1.0000
  C   C18       1.0  0.6203670583763029  0.5571570937996312  0.742606923052378  1.0000
  C   C19       1.0  0.6309460170289897  0.8360181428063456  0.5528497322411781  1.0000
  C   C20       1.0  0.3690615312644284  0.1639610165375558  0.44715847974714507  1.0000
  C   C21       1.0  0.8250234640312258  0.18275227010989434  0.5093261285541075  1.0000
  C   C22       1.0  0.1749794231604439  0.817214380964117  0.49061716294156815  1.0000
  C   C23       1.0  0.9623377148573911  0.0498339822178906  0.45960451749542125  1.0000
  C   C24       1.0  0.037620944104176615  0.9500878078080743  0.5403515850048848  1.0000
  N   N1        1.0  0.46595730897310267  0.5462584315514009  0.3115318190289429  1.0000
  N   N2        1.0  0.534057463824503  0.45373381080346314  0.6884598329420726  1.0000
  N   N3        1.0  0.7205142665573022  0.6017462190512218  0.42678290575482697  1.0000
  N   N4        1.0  0.2794830707402767  0.39825352891516985  0.5732193273678305  1.0000
  O   O1        1.0  0.7852816877110058  0.28118217750469643  0.4202248829981772  1.0000
  O   O2        1.0  0.214842413864389  0.718877008223636  0.5797134282103329  1.0000
  O   O3        1.0  0.7604559919416118  0.18999081621662836  0.6357505317136544  1.0000
  O   O4        1.0  0.23955394091741064  0.8099006236872341  0.36417060854408584  1.0000
