data_image0
_chemical_formula_structural       Zn4H23C46N4O18F5
_chemical_formula_sum              "Zn4 H23 C46 N4 O18 F5"
_cell_length_a       9.629905950505837
_cell_length_b       11.08817360359387
_cell_length_c       26.569556651770363
_cell_angle_alpha    90.17984582695229
_cell_angle_beta     89.51113536200083
_cell_angle_gamma    89.91686091186587

_space_group_name_H-M_alt    "P 1"
_space_group_IT_number       1

loop_
  _space_group_symop_operation_xyz
  'x, y, z'

loop_
  _atom_site_type_symbol
  _atom_site_label
  _atom_site_symmetry_multiplicity
  _atom_site_fract_x
  _atom_site_fract_y
  _atom_site_fract_z
  _atom_site_occupancy
  Zn  Zn1       1.0  0.6409837346924049  0.49684978670579477  0.4994375824613614  1.0000
  Zn  Zn2       1.0  0.35916073479781824  0.5020423923318446  0.4989397987713744  1.0000
  Zn  Zn3       1.0  0.35950663949626005  0.49986048305527203  0.08333453095507791  1.0000
  Zn  Zn4       1.0  0.6410660262378441  0.504212157318946  0.0816307190885865  1.0000
  H   H1        1.0  0.1276381647353233  0.6355125856145705  0.5543264226317177  1.0000
  H   H2        1.0  0.1424533541846458  0.3642057938599521  0.4458441904892894  1.0000
  H   H3        1.0  0.8604917906951001  0.6310234083338813  0.5521869687958869  1.0000
  H   H4        1.0  0.7232693324583579  0.8918068830767679  0.49989774802102727  1.0000
  H   H5        1.0  0.2767602266825051  0.8821710421595269  0.4992308102449243  1.0000
  H   H6        1.0  0.7136958449981208  0.1183217258404383  0.49974418018248207  1.0000
  H   H7        1.0  0.7247633620947765  0.5005934363730162  0.6603548420627945  1.0000
  H   H8        1.0  0.2739048347799269  0.5016371887408225  0.9214321156649847  1.0000
  H   H9        1.0  0.7181999921344157  0.5019252859028355  0.920333918736148  1.0000
  H   H10       1.0  0.7179426095126544  0.5009451774932926  0.8283572962757476  1.0000
  H   H11       1.0  0.28051440418321494  0.5010041197664492  0.6612960494309308  1.0000
  H   H12       1.0  0.2806172318500018  0.5007415446728132  0.7533024141885392  1.0000
  H   H13       1.0  0.28120253999516354  0.502014509014799  0.243586458696079  1.0000
  H   H14       1.0  0.7279812483702769  0.5042832018875599  0.2436090921821688  1.0000
  H   H15       1.0  0.28166166715519836  0.5017677279336539  0.3381492107222144  1.0000
  H   H16       1.0  0.8732904302444026  0.6366744254085717  0.026781229973984504  1.0000
  H   H17       1.0  0.856993665109634  0.36677928432295187  0.1351221976546171  1.0000
  H   H18       1.0  0.14039314405965797  0.6322629126403784  0.0296730866497938  1.0000
  H   H19       1.0  0.27658336100171976  0.8948403824010001  0.08173503497737761  1.0000
  H   H20       1.0  0.7231046537945574  0.8843320461729577  0.0822945246383995  1.0000
  H   H21       1.0  0.28600600105313845  0.1213056764447913  0.08173313900560691  1.0000
  H   H22       1.0  0.8267528062545537  0.4977534615483067  0.7298938474011082  1.0000
  H   H23       1.0  0.17182506977915318  0.49847165083952666  0.8518675787538329  1.0000
  C   C1        1.0  0.5036877057703039  0.7372794361569176  0.500291892699245  1.0000
  C   C2        1.0  0.5054685294958928  0.5023201580678176  0.5981092931525751  1.0000
  C   C3        1.0  0.49407947064243274  0.2631092660769738  0.4993809851922181  1.0000
  C   C4        1.0  0.4954931578089442  0.5015601995554064  0.4005593674597563  1.0000
  C   C5        1.0  0.496676403363402  0.7398729018829185  0.081673476968021  1.0000
  C   C6        1.0  0.49413017957635924  0.5039224389825279  0.9836025182981629  1.0000
  C   C7        1.0  0.5058536336414861  0.26562644510820377  0.0821257938761946  1.0000
  C   C8        1.0  0.5063954858771212  0.5037199170401436  0.1812054900240767  1.0000
  C   C9        1.0  0.9348103928108458  0.4239861700996812  0.46889652336533066  1.0000
  C   C10       1.0  0.06970549155913369  0.5750688415595206  0.5298785010758706  1.0000
  C   C11       1.0  0.0798276107033686  0.42424948591008155  0.4693532787625685  1.0000
  C   C12       1.0  0.925652696047031  0.5727491834923553  0.5287625896715866  1.0000
  C   C13       1.0  0.49210760611197907  0.127816690541664  0.49942760281939513  1.0000
  C   C14       1.0  0.5009903200218774  0.8726908470545354  0.5000299559043385  1.0000
  C   C15       1.0  0.37040378884204017  0.058083201195138705  0.4991830352737523  1.0000
  C   C16       1.0  0.6243875765426311  0.9395599750319052  0.49996942239927483  1.0000
  C   C17       1.0  0.3733697548533002  0.9329849985271038  0.49955751687495115  1.0000
  C   C18       1.0  0.6190027118529855  0.06470885816582239  0.4997522159236212  1.0000
  C   C19       1.0  0.5031396601543676  0.5018499298650809  0.6543433991745076  1.0000
  C   C20       1.0  0.4956079013903292  0.5029590581374777  0.9274004429022682  1.0000
  C   C21       1.0  0.6265764306014745  0.5011441986246155  0.6813025493400036  1.0000
  C   C22       1.0  0.62819960457567  0.5004101131076696  0.7338107262418063  1.0000
  C   C23       1.0  0.37209785158378145  0.5020721657868279  0.9004870330283127  1.0000
  C   C24       1.0  0.37041372281590407  0.5009276689600456  0.8479580023346076  1.0000
  C   C25       1.0  0.6202822035717688  0.5022866572792497  0.9001373500773016  1.0000
  C   C26       1.0  0.619019546406406  0.5014769074953377  0.8479454756312705  1.0000
  C   C27       1.0  0.37837904344344503  0.5014463621689486  0.6815256371002292  1.0000
  C   C28       1.0  0.3795506044118824  0.5010611841138085  0.7337272353458602  1.0000
  C   C29       1.0  0.5023733303030085  0.50079514423291  0.7628676776681402  1.0000
  C   C30       1.0  0.49612580647381316  0.5010350317911829  0.8188280729090707  1.0000
  C   C31       1.0  0.5027799755742848  0.5022132205499331  0.3441301095859473  1.0000
  C   C32       1.0  0.5042133627692209  0.5032272828938461  0.2376492957784038  1.0000
  C   C33       1.0  0.6273642224058378  0.5028415839714454  0.3161622366408636  1.0000
  C   C34       1.0  0.3781068654219553  0.5024179915005291  0.2644042902167669  1.0000
  C   C35       1.0  0.6293455515336888  0.5034662984636994  0.2639080046479023  1.0000
  C   C36       1.0  0.3785146870722116  0.5020692302275335  0.316657498951905  1.0000
  C   C37       1.0  0.06490112569351679  0.4269928538689314  0.1129432256934209  1.0000
  C   C38       1.0  0.9308893672517015  0.5765534254029915  0.051374865438070606  1.0000
  C   C39       1.0  0.9199557935211544  0.4266206993483835  0.1118618013378025  1.0000
  C   C40       1.0  0.074953743110072  0.5744552836614928  0.0529636772110109  1.0000
  C   C41       1.0  0.5075817797950677  0.13037820357879326  0.0819186174445647  1.0000
  C   C42       1.0  0.4988805864619081  0.8752601041812653  0.0816483378540269  1.0000
  C   C43       1.0  0.6293427515411949  0.06041352203292398  0.0820998644340776  1.0000
  C   C44       1.0  0.37544562411073906  0.942373873790899  0.08161993871246413  1.0000
  C   C45       1.0  0.6264678985394383  0.9353143495189825  0.0819318816467387  1.0000
  C   C46       1.0  0.3807427787840254  0.06751442603341219  0.08170639613905452  1.0000
  N   N1        1.0  0.8587148701189095  0.4962153213337216  0.49782460875245965  1.0000
  N   N2        1.0  0.1444297157479184  0.5007542861268419  0.5000801865047961  1.0000
  N   N3        1.0  0.141443578313492  0.49880615646144116  0.0842804206547356  1.0000
  N   N4        1.0  0.8558053637539658  0.5025686768018217  0.08089644391336752  1.0000
  O   O1        1.0  0.6216453112685015  0.6854623248540719  0.5010803513256548  1.0000
  O   O2        1.0  0.38598145953693563  0.6844584678538579  0.4995872288272309  1.0000
  O   O3        1.0  0.3886621992685022  0.5009579778599546  0.5758517260328446  1.0000
  O   O4        1.0  0.6243424422303505  0.5038070406394154  0.5763800328628008  1.0000
  O   O5        1.0  0.37866402981741487  0.31857653398517277  0.49612042405986767  1.0000
  O   O6        1.0  0.612856152935727  0.31285954717479564  0.502618262777915  1.0000
  O   O7        1.0  0.6098591725809399  0.5005329145212727  0.4242469779639393  1.0000
  O   O8        1.0  0.3749955260827349  0.5020484739887648  0.4207408181930958  1.0000
  O   O9        1.0  0.37884936333223607  0.6878274241751966  0.0817576894715373  1.0000
  O   O10       1.0  0.6145605222919882  0.6871685679916055  0.081699285108094  1.0000
  O   O11       1.0  0.6117401297921106  0.5032336426825452  0.0053645667700692  1.0000
  O   O12       1.0  0.37606159261541444  0.5051168011536759  0.0059369307612229  1.0000
  O   O13       1.0  0.6216860600774936  0.3204964186465773  0.08394719169539401  1.0000
  O   O14       1.0  0.3869099822098363  0.31598934398375894  0.08050319986707422  1.0000
  O   O15       1.0  0.38916943526198366  0.5039725080863772  0.1592355203355496  1.0000
  O   O16       1.0  0.6246532815350107  0.5037648315396624  0.15934669833578144  1.0000
  O   O17       1.0  0.7565051149547485  0.49917180548395373  0.7564987197160775  1.0000
  O   O18       1.0  0.24211849251815917  0.4995244193862547  0.8252820120797679  1.0000
  F   F1        1.0  0.868604306718865  0.34828585770534193  0.4384981455425248  1.0000
  F   F2        1.0  0.24257436519268077  0.11076836473540651  0.4986812009025527  1.0000
  F   F3        1.0  0.7529520737872843  0.5029907726786219  0.3391522755954099  1.0000
  F   F4        1.0  0.1307145634230054  0.35263160836609597  0.144001959326566  1.0000
  F   F5        1.0  0.7571874324935877  0.1127243588129403  0.082499344997629  1.0000
