data_image0
_chemical_formula_structural       Cd4H32C76N4O28
_chemical_formula_sum              "Cd4 H32 C76 N4 O28"
_cell_length_a       5.100859855003878
_cell_length_b       15.176907525623147
_cell_length_c       21.23367542507886
_cell_angle_alpha    109.3377146815992
_cell_angle_beta     89.999907516727
_cell_angle_gamma    90.00013199006658

_space_group_name_H-M_alt    "P 1"
_space_group_IT_number       1

loop_
  _space_group_symop_operation_xyz
  'x, y, z'

loop_
  _atom_site_type_symbol
  _atom_site_label
  _atom_site_symmetry_multiplicity
  _atom_site_fract_x
  _atom_site_fract_y
  _atom_site_fract_z
  _atom_site_occupancy
  Cd  Cd1       1.0  0.36512689815375415  0.8225237133319538  0.19232530115226598  1.0000
  Cd  Cd2       1.0  0.8651299462611353  0.6774773276822899  0.30767489707017137  1.0000
  Cd  Cd3       1.0  0.6348712474515069  0.1774763106889239  0.8076751711037456  1.0000
  Cd  Cd4       1.0  0.1348721202532701  0.3225226942251779  0.692325103737019  1.0000
  H   H1        1.0  0.858513980299101  0.5935466889656383  0.05364465126213245  1.0000
  H   H2        1.0  0.35851372198185777  0.906452953191625  0.4463556922394856  1.0000
  H   H3        1.0  0.14148808621530412  0.4064533329418368  0.9463553495450507  1.0000
  H   H4        1.0  0.6414883445306999  0.09354637042792999  0.5536441447222343  1.0000
  H   H5        1.0  0.5951070716302028  0.44759253511278274  0.004931008978225291  1.0000
  H   H6        1.0  0.0951060097060932  0.05240684287265651  0.4950692771484027  1.0000
  H   H7        1.0  0.40489303443041547  0.5524074867940386  0.9950689918291855  1.0000
  H   H8        1.0  0.904894096349246  0.947591784573042  0.5049308674164548  1.0000
  H   H9        1.0  0.3662504767109027  0.40481524098044025  0.2769678246461352  1.0000
  H   H10       1.0  0.8662496069421124  0.09518501760230438  0.22303303439566946  1.0000
  H   H11       1.0  0.6337496293499925  0.5951854813290041  0.7230328114551126  1.0000
  H   H12       1.0  0.1337504991150809  0.9048143081313144  0.7769672740146516  1.0000
  H   H13       1.0  0.10692329689963742  0.2614434839985762  0.22360098911321555  1.0000
  H   H14       1.0  0.606925015246226  0.23855590184053446  0.27639929429467697  1.0000
  H   H15       1.0  0.893074848707201  0.7385565379075983  0.7763990116944155  1.0000
  H   H16       1.0  0.3930750908093898  0.7614434260077941  0.7236014855640247  1.0000
  H   H17       1.0  0.5268454965687965  0.993839117343974  0.13987962880347732  1.0000
  H   H18       1.0  0.0268450241089226  0.5061623971442941  0.36012081108908933  1.0000
  H   H19       1.0  0.47315460949553073  0.006162301138679999  0.8601206996948602  1.0000
  H   H20       1.0  0.9731531214997633  0.49383832304978625  0.6398793535640122  1.0000
  H   H21       1.0  0.35953354265397763  0.07904102650688573  0.06837653403762538  1.0000
  H   H22       1.0  0.8595335116819458  0.42095992167073604  0.431623547498077  1.0000
  H   H23       1.0  0.6404665634100725  0.920959691573138  0.9316231591668751  1.0000
  H   H24       1.0  0.140466594380527  0.579040798523998  0.5683766171547971  1.0000
  H   H25       1.0  0.7945695665439488  0.8548417261584973  0.9909261640258221  1.0000
  H   H26       1.0  0.29456849094485454  0.64515817017778  0.5090738844462945  1.0000
  H   H27       1.0  0.20543053951852397  0.14515899403623678  0.009074000627052181  1.0000
  H   H28       1.0  0.7054316151157636  0.35484185172904154  0.4909261163611162  1.0000
  H   H29       1.0  0.9833327537347643  0.7809701844806938  0.06640486350218566  1.0000
  H   H30       1.0  0.4833312914782939  0.7190302389152805  0.43359561512951206  1.0000
  H   H31       1.0  0.016669312781488102  0.219030535714694  0.9335953011504611  1.0000
  H   H32       1.0  0.5166668541269672  0.2809697851055973  0.5664048571265068  1.0000
  C   C1        1.0  0.16011390308893436  0.6427268146726063  0.15738878536885875  1.0000
  C   C2        1.0  0.6601140325798127  0.8572733918066292  0.342611296173274  1.0000
  C   C3        1.0  0.839886202971684  0.35727320723421485  0.8426112154385521  1.0000
  C   C4        1.0  0.3398880339327449  0.1427259318129259  0.6573885407884459  1.0000
  C   C5        1.0  0.03576208799531601  0.5479259738284838  0.12927207656383635  1.0000
  C   C6        1.0  0.5357646411995846  0.9520748482986079  0.37072819743158886  1.0000
  C   C7        1.0  0.9642380180690113  0.4520754446541701  0.8707282519345011  1.0000
  C   C8        1.0  0.4642393857667527  0.047924475321600817  0.6292716395299107  1.0000
  C   C9        1.0  0.8735974474156548  0.537261869338117  0.07464471385098645  1.0000
  C   C10       1.0  0.3736016386039225  0.9627384621001979  0.4253515469901002  1.0000
  C   C11       1.0  0.12640265864654052  0.46273815045398686  0.9253548155080435  1.0000
  C   C12       1.0  0.6264004279133675  0.0372608551752194  0.5746468756264844  1.0000
  C   C13       1.0  0.7208328209907648  0.45706945318501363  0.047989959885953164  1.0000
  C   C14       1.0  0.220831983477126  0.04292931006653331  0.4520101334710062  1.0000
  C   C15       1.0  0.2791692455217856  0.5429298704345413  0.9520098770757668  1.0000
  C   C16       1.0  0.7791681225797974  0.9570693152644552  0.5479895396454777  1.0000
  C   C17       1.0  0.7296035550053049  0.386440952812208  0.07569999018987514  1.0000
  C   C18       1.0  0.22960142945851206  0.11355711797979502  0.42429993730398496  1.0000
  C   C19       1.0  0.2703985115091001  0.6135590690952668  0.9243000106173083  1.0000
  C   C20       1.0  0.7703947556874057  0.8864408111766906  0.5757000434158568  1.0000
  C   C21       1.0  0.9049326592965913  0.39194612059065304  0.12857837210687245  1.0000
  C   C22       1.0  0.4049308515446696  0.10805276500837376  0.37142167889660255  1.0000
  C   C23       1.0  0.09506744676402691  0.6080539013161612  0.8714216287005383  1.0000
  C   C24       1.0  0.5950672940568893  0.8919458624366783  0.6285784656684823  1.0000
  C   C25       1.0  0.06094965162078131  0.4744066853131912  0.1571077279128658  1.0000
  C   C26       1.0  0.5609514176553604  0.025594754263274  0.3428907003661123  1.0000
  C   C27       1.0  0.9390504544535645  0.5255961212864476  0.8428910424828826  1.0000
  C   C28       1.0  0.4390486884081426  0.9744045630114968  0.6571077222506926  1.0000
  C   C29       1.0  0.22388867181693686  0.4775249932595215  0.212356797658927  1.0000
  C   C30       1.0  0.7238868671001414  0.0224758647715788  0.2876433150831303  1.0000
  C   C31       1.0  0.7761114342436813  0.5224750286472997  0.7876432031484837  1.0000
  C   C32       1.0  0.27611127850697414  0.9775248575372187  0.7123573210183449  1.0000
  C   C33       1.0  0.2407521571993883  0.401050355816338  0.23463548775495002  1.0000
  C   C34       1.0  0.7407529890532347  0.0989498172494478  0.26536492871014156  1.0000
  C   C35       1.0  0.7592499093150168  0.59894966609113  0.7653645130522332  1.0000
  C   C36       1.0  0.2592490774598702  0.9010509071753603  0.7346361788392597  1.0000
  C   C37       1.0  0.0927592826608077  0.32045071943995396  0.20537029851653435  1.0000
  C   C38       1.0  0.5927585118664426  0.17954865487059382  0.2946295167018106  1.0000
  C   C39       1.0  0.9072388629460307  0.6795493024662136  0.7946297022910966  1.0000
  C   C40       1.0  0.407239633736964  0.8204506708623711  0.7053707917087448  1.0000
  C   C41       1.0  0.9218863193067295  0.3161932352704824  0.15345275892614293  1.0000
  C   C42       1.0  0.42188323971556946  0.18380565948036318  0.3465468167287752  1.0000
  C   C43       1.0  0.07811378675231852  0.6838067887510493  0.8465477133296415  1.0000
  C   C44       1.0  0.578114905887567  0.8161929658499786  0.653452856387936  1.0000
  C   C45       1.0  0.38141128342717684  0.5610012928220769  0.253118972243051  1.0000
  C   C46       1.0  0.881410658776062  0.9389990628399119  0.24688152983637207  1.0000
  C   C47       1.0  0.6185907830890757  0.4389994273733109  0.7468811924095957  1.0000
  C   C48       1.0  0.11858944728456321  0.0610009590669094  0.7531184709710386  1.0000
  C   C49       1.0  0.7587646116888962  0.23328069289759412  0.12516181202520466  1.0000
  C   C50       1.0  0.2587619123646263  0.2667167032153799  0.37483888781129326  1.0000
  C   C51       1.0  0.24123549436829717  0.7667186328360244  0.8748384963851232  1.0000
  C   C52       1.0  0.741236233226914  0.7332805361126874  0.6251628148563809  1.0000
  C   C53       1.0  0.5475497491756016  0.3083688990122796  0.051180261984647785  1.0000
  C   C54       1.0  0.047555837781708014  0.19162904233553496  0.44881782159764316  1.0000
  C   C55       1.0  0.4524523173406508  0.6916318211831083  0.9488199026679991  1.0000
  C   C56       1.0  0.9524599519091201  0.808366775046018  0.5511778959965239  1.0000
  C   C57       1.0  0.36333190448071667  0.9656310997179389  0.10621888939424905  1.0000
  C   C58       1.0  0.8633314281530956  0.5343706362754403  0.3937810016386293  1.0000
  C   C59       1.0  0.6366682015849108  0.0343696162473748  0.8937803323618635  1.0000
  C   C60       1.0  0.13666671745559003  0.4656300839186471  0.6062191630144722  1.0000
  C   C61       1.0  0.26703323568596465  0.013164672033084898  0.06523998082370497  1.0000
  C   C62       1.0  0.7670336369515028  0.4868362125567528  0.43475965054398086  1.0000
  C   C63       1.0  0.7329668703796701  0.9868360439322219  0.9347592409324076  1.0000
  C   C64       1.0  0.23296646911096994  0.5131645076379883  0.5652405141088932  1.0000
  C   C65       1.0  0.05610166847714029  0.9757919057563955  0.022010502831392383  1.0000
  C   C66       1.0  0.556100555810403  0.5242089298866119  0.47798976648517294  1.0000
  C   C67       1.0  0.9439003980406966  0.024208812324282295  0.9779891903728807  1.0000
  C   C68       1.0  0.44389955025206973  0.475791790308129  0.5220103981677011  1.0000
  C   C69       1.0  0.9565730814745096  0.8898564538729657  0.022629183566145506  1.0000
  C   C70       1.0  0.45657253591411984  0.610143949624849  0.477370829773342  1.0000
  C   C71       1.0  0.0434289850449048  0.1101442620930015  0.9773700381897468  1.0000
  C   C72       1.0  0.5434275701449282  0.3898560743966825  0.5226296424824496  1.0000
  C   C73       1.0  0.0630998996721317  0.8469477137310975  0.06526885490949033  1.0000
  C   C74       1.0  0.5630999646270497  0.6530531265631366  0.43473141279693533  1.0000
  C   C75       1.0  0.9369021668456983  0.153053004349573  0.9347308382947755  1.0000
  C   C76       1.0  0.436900141435423  0.3469475936316043  0.5652687518559387  1.0000
  N   N1        1.0  0.26298971493748274  0.8839607797863208  0.10697715733516582  1.0000
  N   N2        1.0  0.7629898057277203  0.6160401933493133  0.39302306438506196  1.0000
  N   N3        1.0  0.7370123515787698  0.11603994040906682  0.8930230073174809  1.0000
  N   N4        1.0  0.2370103003329049  0.3839598285575078  0.6069769364223487  1.0000
  O   O1        1.0  0.32049491663360646  0.6683992618306575  0.12107767366391889  1.0000
  O   O2        1.0  0.8204965856715918  0.8316010512340027  0.3789223709811436  1.0000
  O   O3        1.0  0.6795051894272887  0.3316014604787867  0.8789229624373359  1.0000
  O   O4        1.0  0.17950744129790766  0.1683982681567854  0.6210765230835873  1.0000
  O   O5        1.0  0.0850442043014539  0.6974434018227954  0.21411876710428854  1.0000
  O   O6        1.0  0.58504433883882  0.8025560543645085  0.2858806964143667  1.0000
  O   O7        1.0  0.914953941303537  0.3025559217954523  0.7858810698578791  1.0000
  O   O8        1.0  0.4149557672215282  0.1974432671396826  0.7141186690991926  1.0000
  O   O9        1.0  0.6135290954072945  0.5664563533521586  0.2337066703109868  1.0000
  O   O10       1.0  0.1135282742210251  0.9335445183409588  0.26629311434553654  1.0000
  O   O11       1.0  0.38647101065675576  0.4335443647278651  0.7662930228935066  1.0000
  O   O12       1.0  0.8864718318411777  0.0664555014511521  0.7337064150134933  1.0000
  O   O13       1.0  0.2797656822967625  0.6150581123494446  0.3064558847693774  1.0000
  O   O14       1.0  0.7797650444094445  0.8849414753589782  0.19354400540056804  1.0000
  O   O15       1.0  0.7202363842160652  0.3849419116727403  0.6935445874861869  1.0000
  O   O16       1.0  0.22023506165090373  0.11505784614521268  0.8064553601129985  1.0000
  O   O17       1.0  0.7644927627411134  0.16268794202866838  0.14062558430840966  1.0000
  O   O18       1.0  0.264496534594862  0.3373129451033848  0.3593749905401039  1.0000
  O   O19       1.0  0.23550538286943382  0.8373134764533321  0.8593747441901554  1.0000
  O   O20       1.0  0.735507492370445  0.6626877814367872  0.6406265884574578  1.0000
  O   O21       1.0  0.5743311688490138  0.23494798643437062  0.07699883097218667  1.0000
  O   O22       1.0  0.07433009455515101  0.26505137562924125  0.4230009884857181  1.0000
  O   O23       1.0  0.4256689372116043  0.7650520354724506  0.923001169835224  1.0000
  O   O24       1.0  0.9256660905944756  0.73494795010307  0.5769993199250576  1.0000
  O   O25       1.0  0.3704640297233439  0.30153357969713573  0.011383184412522986  1.0000
  O   O26       1.0  0.8704542424657761  0.19846459104853414  0.48861812502131824  1.0000
  O   O27       1.0  0.6295341158819171  0.6984664443237417  0.9886172878434888  1.0000
  O   O28       1.0  0.12952625903883333  0.8015333529057145  0.5113851558389937  1.0000
