data_image0
_chemical_formula_structural       Zn2H24C14O14
_chemical_formula_sum              "Zn2 H24 C14 O14"
_cell_length_a       5.018542290248418
_cell_length_b       9.000601589273064
_cell_length_c       10.785364996312028
_cell_angle_alpha    100.33658712291283
_cell_angle_beta     89.95587088148139
_cell_angle_gamma    90.04605528724755

_space_group_name_H-M_alt    "P 1"
_space_group_IT_number       1

loop_
  _space_group_symop_operation_xyz
  'x, y, z'

loop_
  _atom_site_type_symbol
  _atom_site_label
  _atom_site_symmetry_multiplicity
  _atom_site_fract_x
  _atom_site_fract_y
  _atom_site_fract_z
  _atom_site_occupancy
  Zn  Zn1       1.0  0.2127910742824568  0.9995909854255628  0.749744202655819  1.0000
  Zn  Zn2       1.0  0.7872935298550061  0.00027604810971129976  0.2500757459455584  1.0000
  H   H1        1.0  0.4034402640463455  0.363320524233245  0.5112972172772317  1.0000
  H   H2        1.0  0.40382488618895707  0.6368986031778191  0.9892523797238937  1.0000
  H   H3        1.0  0.596175982435021  0.6367561058710294  0.4888124702592264  1.0000
  H   H4        1.0  0.5964987050682495  0.363180529765465  0.010896498694336298  1.0000
  H   H5        1.0  0.6811078092067788  0.24525321015558887  0.47246627738904584  1.0000
  H   H6        1.0  0.6809848966065674  0.7556001588423625  0.027714554014075084  1.0000
  H   H7        1.0  0.31872386645841294  0.755011691815632  0.5275432447936055  1.0000
  H   H8        1.0  0.3192014345077823  0.24461737559454377  0.9722879076086386  1.0000
  H   H9        1.0  0.8312278423279053  0.4924439401740982  0.5928549727689756  1.0000
  H   H10       1.0  0.8327551021399486  0.5087502083174298  0.9076238380564732  1.0000
  H   H11       1.0  0.1679383246233712  0.5079520384521315  0.4072407909672364  1.0000
  H   H12       1.0  0.16795329500206443  0.4915624804561317  0.0924584265568953  1.0000
  H   H13       1.0  0.9009950886146852  0.3528217769798303  0.679689808451819  1.0000
  H   H14       1.0  0.9003747687641235  0.6480197738477714  0.8200356674468807  1.0000
  H   H15       1.0  0.0992073749954869  0.647463018673747  0.32014920672641267  1.0000
  H   H16       1.0  0.09935539574897942  0.3521915419102939  0.17979813255917781  1.0000
  H   H17       1.0  0.8911472917338159  0.8650100398477247  0.5739283187862441  1.0000
  H   H18       1.0  0.8915171066376644  0.13457232959859058  0.9256606270655396  1.0000
  H   H19       1.0  0.1085827032937061  0.13504793298656634  0.4259690483221945  1.0000
  H   H20       1.0  0.10884851492158279  0.8654462063575605  0.07422153166194079  1.0000
  H   H21       1.0  0.7955209929983981  0.8373472079239547  0.710043281341072  1.0000
  H   H22       1.0  0.796390654630514  0.16197260810625377  0.7894643285946401  1.0000
  H   H23       1.0  0.20427269691756317  0.1625842557896107  0.2898242530560111  1.0000
  H   H24       1.0  0.20393106429252578  0.8379340993606019  0.21039667560168598  1.0000
  C   C1        1.0  0.4225355833676261  0.18277849904529828  0.6109951294324674  1.0000
  C   C2        1.0  0.4222366734319749  0.817062170876028  0.8890025816855599  1.0000
  C   C3        1.0  0.5775171089441359  0.817191615612252  0.38894853867695645  1.0000
  C   C4        1.0  0.577680473833631  0.18287525871001256  0.1109678036314463  1.0000
  C   C5        1.0  0.5602354542314174  0.302043596724971  0.5521113599556671  1.0000
  C   C6        1.0  0.5603720497853999  0.6983447726374121  0.9482011354823001  1.0000
  C   C7        1.0  0.439530329686022  0.6980734946407804  0.447927325088081  1.0000
  C   C8        1.0  0.4398001811384731  0.3017465183042134  0.051867973210704604  1.0000
  C   C9        1.0  0.733662737604  0.4099336996666023  0.6424630325666456  1.0000
  C   C10       1.0  0.7339759120859738  0.5905507641578679  0.8578702467444755  1.0000
  C   C11       1.0  0.26607716292806327  0.5902217960025238  0.3575850410541221  1.0000
  C   C12       1.0  0.2661823962498957  0.409557413482986  0.1421837433389896  1.0000
  C   C13       1.0  0.5773358477690422  0.49965605814136876  0.7505480702967945  1.0000
  C   C14       1.0  0.4226406106858461  0.5000656649607577  0.249776136604865  1.0000
  O   O1        1.0  0.33214167028753394  0.49853672744062993  0.7512404385618653  1.0000
  O   O2        1.0  0.667783932092398  0.5003974197368564  0.24960714612670643  1.0000
  O   O3        1.0  0.22179211190249495  0.11167786997822297  0.5587171754810782  1.0000
  O   O4        1.0  0.2221028875891591  0.8885233817090137  0.9414133890138174  1.0000
  O   O5        1.0  0.7780932479685277  0.8883848564188099  0.44125226083696845  1.0000
  O   O6        1.0  0.7781172483545191  0.11155971906939037  0.0585534379809189  1.0000
  O   O7        1.0  0.5074639802090245  0.1513933054261187  0.7159635906197082  1.0000
  O   O8        1.0  0.5062156698569923  0.8474146665329483  0.7834206024994189  1.0000
  O   O9        1.0  0.4929413189438279  0.8482704672459389  0.283814211776459  1.0000
  O   O10       1.0  0.4934144612808994  0.15218459696527017  0.2163505805771848  1.0000
  O   O11       1.0  0.9588773647939347  0.8437066814094009  0.6577700110310047  1.0000
  O   O12       1.0  0.9594896801330679  0.1556048452977024  0.841726071601343  1.0000
  O   O13       1.0  0.0409063882062739  0.15628127821091198  0.3421160731072419  1.0000
  O   O14       1.0  0.0408300609339349  0.8443425538595617  0.1581529997880438  1.0000
