data_image0
_chemical_formula_structural       Cu2H24C30S2N8O2
_chemical_formula_sum              "Cu2 H24 C30 S2 N8 O2"
_cell_length_a       7.960290411860785
_cell_length_b       7.960236407127673
_cell_length_c       11.132300796616
_cell_angle_alpha    87.9414137456824
_cell_angle_beta     87.9419386470664
_cell_angle_gamma    88.76738486127658

_space_group_name_H-M_alt    "P 1"
_space_group_IT_number       1

loop_
  _space_group_symop_operation_xyz
  'x, y, z'

loop_
  _atom_site_type_symbol
  _atom_site_label
  _atom_site_symmetry_multiplicity
  _atom_site_fract_x
  _atom_site_fract_y
  _atom_site_fract_z
  _atom_site_occupancy
  Cu  Cu1       1.0  0.038594971778785216  0.9063922363947442  0.9376904588104651  1.0000
  Cu  Cu2       1.0  0.906382183068864  0.0386048085943642  0.4377010605324402  1.0000
  H   H1        1.0  0.5462896562097085  0.7526062357227089  0.09972444047478751  1.0000
  H   H2        1.0  0.7526139917942416  0.5462858063448194  0.5997207044100108  1.0000
  H   H3        1.0  0.2666649081509363  0.6214639271728899  0.1352346520763987  1.0000
  H   H4        1.0  0.6214690175240419  0.2666623017044643  0.6352386094452811  1.0000
  H   H5        1.0  0.16257280785403347  0.42091032912215093  0.9890338204158198  1.0000
  H   H6        1.0  0.4209095051300977  0.1625687829518156  0.4890426371803684  1.0000
  H   H7        1.0  0.33852911683412407  0.3526506377412986  0.807975750053899  1.0000
  H   H8        1.0  0.3526471512636036  0.33852425654411894  0.30798210140263654  1.0000
  H   H9        1.0  0.6205963763325428  0.4813981765254738  0.7748078564715116  1.0000
  H   H10       1.0  0.4813928260783272  0.6205923158911872  0.27480746781645854  1.0000
  H   H11       1.0  0.04734620851432681  0.4901545194053938  0.6697407215801121  1.0000
  H   H12       1.0  0.4901646792594009  0.04734563820008469  0.1697362353159377  1.0000
  H   H13       1.0  0.2338155110599018  0.5687730241645212  0.5945412809718746  1.0000
  H   H14       1.0  0.5687801542308578  0.2338159070603467  0.09453381911966122  1.0000
  H   H15       1.0  0.031218215175577806  0.6584440826615533  0.5614607903691322  1.0000
  H   H16       1.0  0.6584473481449891  0.031217284573386902  0.061453495942906514  1.0000
  H   H17       1.0  0.4141177476191373  0.7625292853115297  0.5868495035434622  1.0000
  H   H18       1.0  0.7625429072911061  0.4141203318534252  0.08684004180764764  1.0000
  H   H19       1.0  0.6592385086867195  0.9307939894726047  0.6391025347186385  1.0000
  H   H20       1.0  0.93080183300539  0.6592442891398348  0.13909559929951604  1.0000
  H   H21       1.0  0.6422963274956431  0.0958308491398441  0.8283817675916368  1.0000
  H   H22       1.0  0.0958315265233978  0.6423011348619809  0.3283796770905454  1.0000
  H   H23       1.0  0.3751483235745  0.082847304210766  0.9568705940171399  1.0000
  H   H24       1.0  0.08284394398841499  0.3751522525156332  0.4568694416611265  1.0000
  C   C1        1.0  0.9712600104575131  0.14188872164449148  0.6933266787366037  1.0000
  C   C2        1.0  0.14186609370557335  0.971273481726122  0.1933124351401858  1.0000
  C   C3        1.0  0.7634053528326205  0.7087274303785663  0.9118942900090944  1.0000
  C   C4        1.0  0.7087285003596193  0.7634060425939071  0.4118920544248327  1.0000
  C   C5        1.0  0.5998109402856927  0.6262834917930961  0.9339791754332298  1.0000
  C   C6        1.0  0.6262875011639011  0.5998092716753548  0.43397807684317513  1.0000
  C   C7        1.0  0.499886478267122  0.6646856215960212  0.03629900360182601  1.0000
  C   C8        1.0  0.6646899138914363  0.4998839780133224  0.5362978917170838  1.0000
  C   C9        1.0  0.34391125413424817  0.5902018878860529  0.05606475229164691  1.0000
  C   C10       1.0  0.5902052541046955  0.3439076426112991  0.556068445742163  1.0000
  C   C11       1.0  0.28539684469154736  0.47772774152063846  0.9743637186446179  1.0000
  C   C12       1.0  0.4777299944162721  0.28539325682235983  0.47436773698338913  1.0000
  C   C13       1.0  0.38480681067129296  0.4386705402008388  0.8726236110011314  1.0000
  C   C14       1.0  0.4386696331050147  0.38480142859245353  0.37262733418668154  1.0000
  C   C15       1.0  0.5415507327074066  0.5109853928342218  0.8530807357706395  1.0000
  C   C16       1.0  0.5109862094416114  0.5415458154399674  0.3530796401107708  1.0000
  C   C17       1.0  0.10973554851229039  0.6034705341342457  0.6328950118099286  1.0000
  C   C18       1.0  0.603479041804917  0.10973585217642778  0.13288801277049342  1.0000
  C   C19       1.0  0.12167049141628888  0.7257065930614813  0.7297997628595283  1.0000
  C   C20       1.0  0.7257168220150518  0.12167079584237682  0.22979306187221485  1.0000
  C   C21       1.0  0.2686245515498484  0.82792553077136  0.7464955132045433  1.0000
  C   C22       1.0  0.8279360958777104  0.26862333787914133  0.2464887050201199  1.0000
  C   C23       1.0  0.4100599690943626  0.8342261569478139  0.668330099678542  1.0000
  C   C24       1.0  0.8342387333849358  0.4100620226324665  0.16832181900013413  1.0000
  C   C25       1.0  0.5461574579505495  0.9303702378220321  0.6972312804875003  1.0000
  C   C26       1.0  0.9303769871300106  0.5461585381834838  0.19722396489925134  1.0000
  C   C27       1.0  0.5370270269362576  0.0216495047956826  0.8019942772575207  1.0000
  C   C28       1.0  0.0216549594396014  0.5370324751008867  0.3019903346067778  1.0000
  C   C29       1.0  0.39099598690840753  0.013519901244393406  0.8745537218582555  1.0000
  C   C30       1.0  0.0135211376306827  0.3909984251811238  0.37455221385530285  1.0000
  S   S1        1.0  0.956488950094993  0.2020927853723862  0.8311372644056123  1.0000
  S   S2        1.0  0.20207865028101682  0.9564928805137856  0.33111789640886263  1.0000
  N   N1        1.0  0.9838104042659523  0.0969462131680459  0.5928639603447863  1.0000
  N   N2        1.0  0.09692063260429512  0.9838342052418553  0.09285112385222763  1.0000
  N   N3        1.0  0.8556902351584768  0.6667109514704849  0.8139922676707273  1.0000
  N   N4        1.0  0.6667131626403416  0.8556926694837516  0.3139904265110331  1.0000
  N   N5        1.0  0.001160326864990701  0.749774606555029  0.8109739367034053  1.0000
  N   N6        1.0  0.7497779606133648  0.0011646659158586008  0.3109704654901222  1.0000
  N   N7        1.0  0.26205749586857513  0.9189184586266849  0.8479850245358025  1.0000
  N   N8        1.0  0.918923765900388  0.26205956812114545  0.3479794771440581  1.0000
  O   O1        1.0  0.8100653816801469  0.8169125761521344  0.9879252020776123  1.0000
  O   O2        1.0  0.816916568220634  0.8100659066369857  0.4879248785093538  1.0000
