data_image0
_chemical_formula_structural       K4H32C52S4N8O12F12
_chemical_formula_sum              "K4 H32 C52 S4 N8 O12 F12"
_cell_length_a       6.313316763
_cell_length_b       12.720304248301874
_cell_length_c       18.433
_cell_angle_alpha    90.0
_cell_angle_beta     90.0
_cell_angle_gamma    97.42082144955529

_space_group_name_H-M_alt    "P 1"
_space_group_IT_number       1

loop_
  _space_group_symop_operation_xyz
  'x, y, z'

loop_
  _atom_site_type_symbol
  _atom_site_label
  _atom_site_symmetry_multiplicity
  _atom_site_fract_x
  _atom_site_fract_y
  _atom_site_fract_z
  _atom_site_occupancy
  K   K1        1.0  0.2216314514200803  0.1443661216516361  0.5150789345196145  1.0000
  K   K2        1.0  0.27835079481850755  0.8556297006100237  0.0150794770248979  1.0000
  K   K3        1.0  0.7783663382875545  0.8556336645342881  0.4849199804698117  1.0000
  K   K4        1.0  0.721630882562998  0.1443629505122246  0.9849102153745974  1.0000
  H   H1        1.0  0.5753281696376007  0.6374989123517025  0.6244512558997428  1.0000
  H   H2        1.0  0.9246399211355153  0.3624953243402516  0.12445830846850471  1.0000
  H   H3        1.0  0.42466032265419773  0.3625016666190746  0.3755509141214119  1.0000
  H   H4        1.0  0.07536021125911666  0.6375012907062612  0.875546031573805  1.0000
  H   H5        1.0  0.23642631440046094  0.5969519310673945  0.5541577605381678  1.0000
  H   H6        1.0  0.2635442252488716  0.4030415128397138  0.0541653556122199  1.0000
  H   H7        1.0  0.7635669297517536  0.4030486479033826  0.44584223946183243  1.0000
  H   H8        1.0  0.7364545294972729  0.5969558949916589  0.9458368144089421  1.0000
  H   H9        1.0  0.10884356367455437  0.4074153068713002  0.5219817718222758  1.0000
  H   H10       1.0  0.39113386421718827  0.5925741731115437  0.0219877393804566  1.0000
  H   H11       1.0  0.8911429320537961  0.5925836865297711  0.47801931318830543  1.0000
  H   H12       1.0  0.6088741879447923  0.407422441934969  0.9780171431671434  1.0000
  H   H13       1.0  0.8892077405236873  0.5715249424911519  0.6835148917701943  1.0000
  H   H14       1.0  0.6107659273297941  0.4284724653402137  0.18352085932837534  1.0000
  H   H15       1.0  0.1107801328531508  0.4284732581250665  0.31648836326154145  1.0000
  H   H16       1.0  0.3892395758402145  0.5715265280608577  0.8164829382086511  1.0000
  H   H17       1.0  0.11451808816458708  0.2291790379636325  0.7157614061737121  1.0000
  H   H18       1.0  0.38546243430197785  0.7708223337919975  0.215756523626105  1.0000
  H   H19       1.0  0.8854810791915353  0.7708199554374389  0.2842423913633141  1.0000
  H   H20       1.0  0.6145335651472053  0.2291766596090739  0.7842402213421594  1.0000
  H   H21       1.0  0.9453176796493137  0.04404395526896109  0.6881939998914959  1.0000
  H   H22       1.0  0.5546752019508003  0.9559542453472574  0.1881950849020768  1.0000
  H   H23       1.0  0.054694159334573555  0.9559550381321102  0.3118038300873422  1.0000
  H   H24       1.0  0.4453223814518452  0.044044748053814  0.8118000325503161  1.0000
  H   H25       1.0  0.590304299264524  0.0184417612403109  0.625674062822114  1.0000
  H   H26       1.0  0.9097054533952472  0.9815604033001719  0.12568274290674  1.0000
  H   H27       1.0  0.4097099488927895  0.9815604033001719  0.3743237671567314  1.0000
  H   H28       1.0  0.09029929104124079  0.0184417612403109  0.8743150870720983  1.0000
  H   H29       1.0  0.08829614846352027  0.422527371730844  0.7152368035588381  1.0000
  H   H30       1.0  0.411676660540671  0.5774747928096389  0.215237888569412  1.0000
  H   H31       1.0  0.9116907598748084  0.5774732072399331  0.2847675364834785  1.0000
  H   H32       1.0  0.5883247096838814  0.4225265789459911  0.7847610264200073  1.0000
  C   C1        1.0  0.8801466002257926  0.1829105283983736  0.331175608962191  1.0000
  C   C2        1.0  0.6198564040101147  0.8170900505724035  0.8311723539304483  1.0000
  C   C3        1.0  0.11986709550298963  0.8170956000663664  0.66882547604839  1.0000
  C   C4        1.0  0.3801356023121727  0.18290577168926347  0.16882818857483534  1.0000
  C   C5        1.0  0.5405190995500391  0.3668556410293462  0.6110568003037997  1.0000
  C   C6        1.0  0.9594606978123323  0.6331409740171665  0.1110589703249616  1.0000
  C   C7        1.0  0.4594780712426356  0.6331417668020194  0.38894374220148364  1.0000
  C   C8        1.0  0.040540466107231096  0.3668596049536106  0.8889415721803289  1.0000
  C   C9        1.0  0.6280316424661407  0.47212319932230423  0.6306998318233639  1.0000
  C   C10       1.0  0.8719479485912415  0.5278726229393556  0.13070579938154483  1.0000
  C   C11       1.0  0.37195444065223165  0.5278742085090613  0.3693012531872171  1.0000
  C   C12       1.0  0.1280545929768095  0.4721271632465687  0.8693001681766361  1.0000
  C   C13       1.0  0.5138926966856374  0.5559958727991585  0.6100884283621753  1.0000
  C   C14       1.0  0.986080558557866  0.4439999494625013  0.11009710844680852  1.0000
  C   C15       1.0  0.4861008935901197  0.4439999494625013  0.3899148266695605  1.0000
  C   C16       1.0  0.013918815103238573  0.5559998367234229  0.8899088591113795  1.0000
  C   C17       1.0  0.3265923202597421  0.5338359506003343  0.5712266044593903  1.0000
  C   C18       1.0  0.1733868978904596  0.4661543221673625  0.0712352845440236  1.0000
  C   C19       1.0  0.6734009238924725  0.46616462837044276  0.42877339554060984  1.0000
  C   C20       1.0  0.8266148184576353  0.5338422928791502  0.9287679704877122  1.0000
  C   C21       1.0  0.2554093961342616  0.4275908885841631  0.5533857755113091  1.0000
  C   C22       1.0  0.24458015095672175  0.5724025553229382  0.05339174306949701  1.0000
  C   C23       1.0  0.7445803339874714  0.5724144470957313  0.44661639450984586  1.0000
  C   C24       1.0  0.7554251459082977  0.4275956452932803  0.9466125969728196  1.0000
  C   C25       1.0  0.8260362917007952  0.4902898642187736  0.6693104757771381  1.0000
  C   C26       1.0  0.6739389601061561  0.509707543612592  0.1693137308088737  1.0000
  C   C27       1.0  0.17394565847212815  0.5097099219671506  0.3306927792545977  1.0000
  C   C28       1.0  0.3260671619788127  0.49029382814303807  0.830689524222862  1.0000
  C   C29       1.0  0.6522225803111539  0.2788525584706392  0.632778169587155  1.0000
  C   C30       1.0  0.84776733968701  0.7211464349304322  0.1327803396083098  1.0000
  C   C31       1.0  0.3477781709984384  0.7211464349304322  0.367221830412845  1.0000
  C   C32       1.0  0.15223898870294048  0.2788557296100507  0.8672191178863997  1.0000
  C   C33       1.0  0.8516148692552576  0.301164695361166  0.6697482775457076  1.0000
  C   C34       1.0  0.6483736730944187  0.6988350908247654  0.16975153257744324  1.0000
  C   C35       1.0  0.14838829122775368  0.698837469179324  0.3302549774860282  1.0000
  C   C36       1.0  0.3516284558636541  0.3011631097914602  0.830247382411976  1.0000
  C   C37       1.0  0.9597458953856374  0.21449824806387596  0.6888401236912074  1.0000
  C   C38       1.0  0.5402442309175085  0.7855015381220483  0.1888395811859169  1.0000
  C   C39       1.0  0.04025823013588337  0.7855015381220483  0.3111615038246641  1.0000
  C   C40       1.0  0.45976085964251456  0.21449586970931728  0.8111560787717664  1.0000
  C   C41       1.0  0.8672138163719865  0.1124993417180349  0.6734682363153013  1.0000
  C   C42       1.0  0.6327836772699911  0.8875044083921536  0.1734731188629084  1.0000
  C   C43       1.0  0.13279127418803677  0.8874980661133307  0.3265301361688273  1.0000
  C   C44       1.0  0.36721831186952864  0.1124993417180349  0.8265263386318014  1.0000
  C   C45       1.0  0.6675902177502451  0.09839807754550381  0.6380426409157495  1.0000
  C   C46       1.0  0.8324129927906512  0.9016032942101263  0.1380491509792208  1.0000
  C   C47       1.0  0.3324186596316919  0.9016017086404204  0.3619551890630959  1.0000
  C   C48       1.0  0.16759195795081885  0.0983996631152095  0.861948136494334  1.0000
  C   C49       1.0  0.9352485260747796  0.4080582553867274  0.687208267780612  1.0000
  C   C50       1.0  0.5647317503840057  0.5919462875083141  0.18721152281234776  1.0000
  C   C51       1.0  0.06474513068741318  0.5919439091537555  0.3127955297564142  1.0000
  C   C52       1.0  0.4352716164039946  0.40805666981702154  0.8127884771876526  1.0000
  S   S1        1.0  0.7643104185219085  0.1612960421781082  0.4238745727770876  1.0000
  S   S2        1.0  0.7356785364377458  0.8387053295775218  0.923877285303533  1.0000
  S   S3        1.0  0.2357002491184872  0.8387045367926689  0.5761232572017576  1.0000
  S   S4        1.0  0.2643135363709703  0.16129683496296107  0.0761227146964671  1.0000
  N   N1        1.0  0.35620186274159943  0.3463351979056171  0.5726843161720794  1.0000
  N   N2        1.0  0.14378651300588532  0.65365983157119  0.0726881137091056  1.0000
  N   N3        1.0  0.6437959269660354  0.6536645882803072  0.4273140563120492  1.0000
  N   N4        1.0  0.8562171999056573  0.34633836904502857  0.9273140563120493  1.0000
  N   N5        1.0  0.5637459011778602  0.1781458914344753  0.6175413660283199  1.0000
  N   N6        1.0  0.9362592394400477  0.8218507236120374  0.1175467910812102  1.0000
  N   N7        1.0  0.4362661441110163  0.8218538947514489  0.3824542939293637  1.0000
  N   N8        1.0  0.0637486064169437  0.1781450986496225  0.8824504963923374  1.0000
  O   O1        1.0  0.8776365401421486  0.2485158533024858  0.46565833016872205  1.0000
  O   O2        1.0  0.6223625374532984  0.7514878968077028  0.9656572451581412  1.0000
  O   O3        1.0  0.12235629140008794  0.7514831400985854  0.5343405848207043  1.0000
  O   O4        1.0  0.3776592843478213  0.2485190244418973  0.0343422123365684  1.0000
  O   O5        1.0  0.8246136355818621  0.0575427029535476  0.4433624477838691  1.0000
  O   O6        1.0  0.675370154907412  0.9424570832323766  0.9433602777627074  1.0000
  O   O7        1.0  0.17539682575354476  0.9424570832323766  0.5566294146367952  1.0000
  O   O8        1.0  0.3246183373843934  0.0575434957384005  0.05662995714208561  1.0000
  O   O9        1.0  0.5364078969127704  0.1640224292860708  0.4133613627732872  1.0000
  O   O10       1.0  0.9635997193649997  0.8359836991786692  0.9133597352574158  1.0000
  O   O11       1.0  0.46359079134693804  0.8359686362664717  0.586638637226713  1.0000
  O   O12       1.0  0.03641741706214669  0.16402956434974672  0.0866315846579511  1.0000
  F   F1        1.0  0.8265684713045899  0.2731801828505596  0.30086855096837445  1.0000
  F   F2        1.0  0.6734392847917334  0.7268203961202175  0.8008658384419223  1.0000
  F   F3        1.0  0.17343028344155437  0.726817224980813  0.6991276514945995  1.0000
  F   F4        1.0  0.32656408199627407  0.2731825612051182  0.1991281939998899  1.0000
  F   F5        1.0  0.8128504202895497  0.10070111754220079  0.2863896272988669  1.0000
  F   F6        1.0  0.6871527902513462  0.8993002542134292  0.7863879997829957  1.0000
  F   F7        1.0  0.18718187027090488  0.8993034253528407  0.7136114577117141  1.0000
  F   F8        1.0  0.3128204149342722  0.1006963608330835  0.21361362773286882  1.0000
  F   F9        1.0  0.0970056492845757  0.191872168371745  0.3353078717517519  1.0000
  F   F10       1.0  0.4029956708821061  0.8081299961687378  0.8352997341724091  1.0000
  F   F11       1.0  0.9030063891586195  0.8081458518657882  0.6646997233223004  1.0000
  F   F12       1.0  0.5969978529072222  0.191859483814099  0.16470406336461715  1.0000
