data_image0
_chemical_formula_structural       Zr6H19C54S10O32F5
_chemical_formula_sum              "Zr6 H19 C54 S10 O32 F5"
_cell_length_a       16.4574085190183
_cell_length_b       16.45802015103053
_cell_length_c       16.52689002308013
_cell_angle_alpha    61.71716236919259
_cell_angle_beta     59.85606430349869
_cell_angle_gamma    60.28692339952849

_space_group_name_H-M_alt    "P 1"
_space_group_IT_number       1

loop_
  _space_group_symop_operation_xyz
  'x, y, z'

loop_
  _atom_site_type_symbol
  _atom_site_label
  _atom_site_symmetry_multiplicity
  _atom_site_fract_x
  _atom_site_fract_y
  _atom_site_fract_z
  _atom_site_occupancy
  Zr  Zr1       1.0  0.887931463764055  0.9029606689420078  0.5973326745220006  1.0000
  Zr  Zr2       1.0  0.11141713232254348  0.10293590380389624  0.39746226615613983  1.0000
  Zr  Zr3       1.0  0.10224710693700706  0.8937795277853128  0.6067867378005902  1.0000
  Zr  Zr4       1.0  0.8972147353999631  0.11198419389676653  0.3886814722581066  1.0000
  Zr  Zr5       1.0  0.10874757935750519  0.8936920506414623  0.38874805438191373  1.0000
  Zr  Zr6       1.0  0.8906074812877235  0.11160449369430828  0.60690136031171  1.0000
  H   H1        1.0  0.07752992401205475  0.7529784765259961  0.5770898522922252  1.0000
  H   H2        1.0  0.09208775359962827  0.0823643862435972  0.2476707187909781  1.0000
  H   H3        1.0  0.08317551537091113  0.08217927441001655  0.589135907702449  1.0000
  H   H4        1.0  0.7449269409862538  0.09427649592203821  0.5770759768005504  1.0000
  H   H5        1.0  0.12537366575442377  0.6121376361263701  0.36192941544301493  1.0000
  H   H6        1.0  0.6105664087492995  0.1275815968548103  0.8984053948925989  1.0000
  H   H7        1.0  0.8680652777767577  0.12554487860489158  0.11667486374710721  1.0000
  H   H8        1.0  0.6215057001033345  0.39542435676870696  0.3638224661084237  1.0000
  H   H9        1.0  0.10023671266081642  0.6382290114727381  0.8691717651260619  1.0000
  H   H10       1.0  0.843041607973177  0.6552712361897762  0.8494910238173717  1.0000
  H   H11       1.0  0.8917075138535678  0.3746041400508346  0.13265436894863575  1.0000
  H   H12       1.0  0.15125112407184818  0.35513499859955294  0.1499648553101167  1.0000
  H   H13       1.0  0.6210340038124755  0.8763926435993098  0.6103506642068055  1.0000
  H   H14       1.0  0.26588495002513907  0.44632397565813176  0.9777956541410048  1.0000
  H   H15       1.0  0.19869493484629433  0.5700615969192953  0.9290158020364744  1.0000
  H   H16       1.0  0.19182389809707698  0.5251541345194611  0.05224640829005275  1.0000
  H   H17       1.0  0.8091566488908125  0.4833902247340094  0.9405814958839827  1.0000
  H   H18       1.0  0.8017137705571429  0.4343935238900371  0.06426827404797557  1.0000
  H   H19       1.0  0.7299923235258559  0.5576538850717155  0.019629742229312755  1.0000
  C   C1        1.0  0.9943308240553603  0.739233371853878  0.48447766665437797  1.0000
  C   C2        1.0  0.2813223209931265  0.9890144402349254  0.23439448583512512  1.0000
  C   C3        1.0  0.9973508003678758  0.2728425021565426  0.5045181850644128  1.0000
  C   C4        1.0  0.7246643096842008  0.008730948404661239  0.7680300951658482  1.0000
  C   C5        1.0  0.980665843251089  0.7411405571421311  0.7653573834992783  1.0000
  C   C6        1.0  0.7311358443422621  0.006737014964471629  0.48593136760533895  1.0000
  C   C7        1.0  0.011883108987831301  0.27091973911367967  0.23572280683237784  1.0000
  C   C8        1.0  0.27570699559505824  0.9920198328356237  0.5004495849027037  1.0000
  C   C9        1.0  0.27258440743212725  0.7309283737511054  0.49588448191184414  1.0000
  C   C10       1.0  0.9910074452909684  0.9974195065239612  0.7769348270217546  1.0000
  C   C11       1.0  0.7336474392351278  0.28169767608199686  0.49308102852416613  1.0000
  C   C12       1.0  7.571856131957998e-05  0.0002545684759170056  0.2261638834655031  1.0000
  C   C13       1.0  0.927241396556731  0.42290398911087834  0.5624304315985925  1.0000
  C   C14       1.0  0.06180014493574492  0.5930618248652663  0.4234788205840943  1.0000
  C   C15       1.0  0.9949682441844132  0.3645040588406516  0.5009453224843059  1.0000
  C   C16       1.0  0.9935596334609473  0.6494991148157182  0.48631404194840405  1.0000
  C   C17       1.0  0.03692218093175364  0.5105172182216506  0.4514244921245947  1.0000
  C   C18       1.0  0.9499327713468093  0.5064018750234637  0.5353283733718612  1.0000
  C   C19       1.0  0.42287255568218274  0.9277982080528203  0.08744915414324357  1.0000
  C   C20       1.0  0.5895126920053289  0.06591173858183186  0.9177713332850956  1.0000
  C   C21       1.0  0.37041767090993716  0.9894781251863024  0.14567019109304633  1.0000
  C   C22       1.0  0.6393728207499336  0.003912950590049018  0.860613895343235  1.0000
  C   C23       1.0  0.5105634602140512  0.03752018102333914  0.0008664163059747451  1.0000
  C   C24       1.0  0.5028029969293543  0.9540901089595905  0.004638544901346997  1.0000
  C   C25       1.0  0.05693490053148763  0.9303964932237748  0.9167046573422655  1.0000
  C   C26       1.0  0.9291106001880465  0.0634656258227082  0.09229403748098268  1.0000
  C   C27       1.0  0.9907369627406695  0.9959306304599165  0.8665973361575113  1.0000
  C   C28       1.0  0.997076175182528  0.9976012101601625  0.139827613116566  1.0000
  C   C29       1.0  0.9510915824520723  0.03841061011817706  0.010985225569733399  1.0000
  C   C30       1.0  0.03565592018250648  0.953480551375378  0.9988436622774018  1.0000
  C   C31       1.0  0.4147512566604308  0.5947212391698853  0.5596315799249966  1.0000
  C   C32       1.0  0.5962913511908357  0.4198734394520542  0.4258164854677703  1.0000
  C   C33       1.0  0.3638248253822169  0.6446197661589822  0.49424114610522474  1.0000
  C   C34       1.0  0.6450394793789656  0.3713911646787056  0.4925544517671201  1.0000
  C   C35       1.0  0.5123699265843767  0.5016043285395283  0.4504996842721098  1.0000
  C   C36       1.0  0.4993712798131186  0.5132348868878651  0.535928361205869  1.0000
  C   C37       1.0  0.04198007331183359  0.6076817019792743  0.899148654933164  1.0000
  C   C38       1.0  0.8955303119098872  0.6172642191153913  0.8882823093963809  1.0000
  C   C39       1.0  0.8863309646571409  0.5356215005701799  0.9689124559295906  1.0000
  C   C40       1.0  0.9566255573536891  0.48752606892431777  0.01834675051944155  1.0000
  C   C41       1.0  0.9504686136278552  0.4046474103139062  0.102145797344619  1.0000
  C   C42       1.0  0.09801289528608244  0.39388410767717363  0.11192967387868438  1.0000
  C   C43       1.0  0.10823132382653707  0.47452399145715424  0.030233440417760056  1.0000
  C   C44       1.0  0.03667176944418339  0.5238804234709135  0.9820592502404678  1.0000
  C   C45       1.0  0.972756726252257  0.6537127311908718  0.8533284534836271  1.0000
  C   C46       1.0  0.01934303057406344  0.3588811368652429  0.14831501734157368  1.0000
  C   C47       1.0  0.4176285862400774  0.05773276057966833  0.4298906430513512  1.0000
  C   C48       1.0  0.5961187897625989  0.9355673697872076  0.5510452886028929  1.0000
  C   C49       1.0  0.36684661458313156  0.991725633282357  0.49618894805155384  1.0000
  C   C50       1.0  0.6441759730945549  0.0033187152033064614  0.48487180438912253  1.0000
  C   C51       1.0  0.5135198636113643  0.9554830126350994  0.5304538365656056  1.0000
  C   C52       1.0  0.5011937239549269  0.03825158675284968  0.4483975408874841  1.0000
  C   C53       1.0  0.1950682882254639  0.5065662768845273  0.994719483200555  1.0000
  C   C54       1.0  0.8028986733098193  0.5002166507721241  0.000855373901764378  1.0000
  S   S1        1.0  0.08852065074481189  0.41245677536269904  0.40776795163557006  1.0000
  S   S2        1.0  0.8987139432772936  0.6035276719415492  0.5796296595349804  1.0000
  S   S3        1.0  0.42009398475337895  0.08145982251092929  0.09871873554887152  1.0000
  S   S4        1.0  0.5919629065041219  0.9105324497649578  0.9068039630559143  1.0000
  S   S5        1.0  0.9000184988970048  0.08781747655369547  0.9215156963166465  1.0000
  S   S6        1.0  0.08785688494510414  0.9045231013177499  0.08686365000538392  1.0000
  S   S7        1.0  0.4211026969319248  0.5908736982884407  0.40121163214382694  1.0000
  S   S8        1.0  0.5899239642994941  0.42442619010785887  0.585566099259296  1.0000
  S   S9        1.0  0.4227917310884593  0.9034685099554736  0.5827540637203513  1.0000
  S   S10       1.0  0.590475237732072  0.09137387478173764  0.3967338487856082  1.0000
  O   O1        1.0  0.922900916985924  0.7773330471154051  0.5520703402763375  1.0000
  O   O2        1.0  0.24699835435278317  0.05745069393910276  0.2714391783271424  1.0000
  O   O3        1.0  0.07033597834037406  0.234212171379518  0.43785841838685974  1.0000
  O   O4        1.0  0.7568443912502405  0.9429641557794143  0.7283770590478297  1.0000
  O   O5        1.0  0.05214748654323373  0.7717035660268294  0.7340789706300229  1.0000
  O   O6        1.0  0.7660812545492774  0.07511021308511084  0.4199741945840997  1.0000
  O   O7        1.0  0.9410240843951031  0.23960262143142308  0.26624254730694463  1.0000
  O   O8        1.0  0.2390335151502542  0.9256590460042348  0.5689832577240423  1.0000
  O   O9        1.0  0.23987067144069116  0.763363204905808  0.4265996134802705  1.0000
  O   O10       1.0  0.9231507585754598  0.06817517785558636  0.7428586555292966  1.0000
  O   O11       1.0  0.7650535549561256  0.2468974198522814  0.5637003737260926  1.0000
  O   O12       1.0  0.06922205910827714  0.9313244071498448  0.2591514939072257  1.0000
  O   O13       1.0  0.06006843094093043  0.9287439887476338  0.739472375059009  1.0000
  O   O14       1.0  0.7704522027233409  0.24538423378854904  0.4235391179821521  1.0000
  O   O15       1.0  0.9338121031044225  0.07221349249855531  0.25990160943686663  1.0000
  O   O16       1.0  0.23267578842199288  0.7658395669351992  0.5670710400641071  1.0000
  O   O17       1.0  0.9150040713239846  0.7790392689753746  0.7257125752777825  1.0000
  O   O18       1.0  0.23962829982215772  0.06111664149256767  0.4346231175143487  1.0000
  O   O19       1.0  0.07912873860744436  0.23126959602498692  0.2736871779117322  1.0000
  O   O20       1.0  0.7632394801392195  0.9403706148259587  0.5552854764910508  1.0000
  O   O21       1.0  0.75858405587347  0.07782391699251427  0.7346243649842777  1.0000
  O   O22       1.0  0.06625148993408912  0.7703451985950168  0.41780774338163706  1.0000
  O   O23       1.0  0.24423322835671948  0.9226479852856714  0.26629111425067725  1.0000
  O   O24       1.0  0.9280627719706372  0.23870871114400669  0.5732459142622661  1.0000
  O   O25       1.0  0.8173023548655111  0.06929512903934648  0.5539587662196014  1.0000
  O   O26       1.0  0.05883846366780436  0.059149732661168804  0.5641187446391597  1.0000
  O   O27       1.0  0.06612265091239064  0.05885610829623291  0.3187082036712141  1.0000
  O   O28       1.0  0.055664442070295174  0.8240139109334522  0.5534368190981881  1.0000
  O   O29       1.0  0.13361471511415599  0.9537617655356458  0.4561307304024994  1.0000
  O   O30       1.0  0.9559237046066328  0.9614018023302364  0.4482066017126983  1.0000
  O   O31       1.0  0.9578463359856287  0.13458159570375014  0.4566803522257317  1.0000
  O   O32       1.0  0.9504123640132389  0.9617548834782925  0.6293212599472896  1.0000
  F   F1        1.0  0.8477773867113569  0.4033575084561108  0.6405633375085317  1.0000
  F   F2        1.0  0.4008253148621319  0.8508010103091268  0.10591091397456867  1.0000
  F   F3        1.0  0.1347296378088245  0.8524392060097554  0.8909010785115754  1.0000
  F   F4        1.0  0.38772213443065323  0.6195478933133317  0.6385677018252949  1.0000
  F   F5        1.0  0.3915028257367581  0.1336901517063041  0.35530173993034  1.0000
