data_image0
_chemical_formula_structural       Zr6H46C126N6O32F30
_chemical_formula_sum              "Zr6 H46 C126 N6 O32 F30"
_cell_length_a       17.51533648997241
_cell_length_b       17.532445526025903
_cell_length_c       17.78124363414301
_cell_angle_alpha    92.40614117026468
_cell_angle_beta     92.31748301988465
_cell_angle_gamma    92.86502192298495

_space_group_name_H-M_alt    "P 1"
_space_group_IT_number       1

loop_
  _space_group_symop_operation_xyz
  'x, y, z'

loop_
  _atom_site_type_symbol
  _atom_site_label
  _atom_site_symmetry_multiplicity
  _atom_site_fract_x
  _atom_site_fract_y
  _atom_site_fract_z
  _atom_site_occupancy
  Zr  Zr1       1.0  0.8113161587468837  0.9519582896003982  0.8497472067041869  1.0000
  Zr  Zr2       1.0  0.7554485422189998  0.8451156274130157  0.004315664118721003  1.0000
  Zr  Zr3       1.0  0.997723398658728  0.9818140863698949  0.9318930528485438  1.0000
  Zr  Zr4       1.0  0.9158996153089304  0.7933649219633239  0.9014502449081905  1.0000
  Zr  Zr5       1.0  0.8382635547739739  0.032392470982877314  0.036004001016699816  1.0000
  Zr  Zr6       1.0  0.9428571808803952  0.8742301453339253  0.08626687391458893  1.0000
  H   H1        1.0  0.1363016834730786  0.258773470397955  0.5888228391677828  1.0000
  H   H2        1.0  0.1419869885548835  0.23154740672909208  0.4413166933627793  1.0000
  H   H3        1.0  0.6318168209882201  0.570587510468137  0.3448421815032319  1.0000
  H   H4        1.0  0.6194237069784662  0.5937554671411293  0.4915843183669396  1.0000
  H   H5        1.0  0.21145728664443916  0.5384613002354969  0.21900089915128976  1.0000
  H   H6        1.0  0.19685492873574617  0.3881256225408337  0.2342972422837377  1.0000
  H   H7        1.0  0.535764773321624  0.28798987000527637  0.7142112825890408  1.0000
  H   H8        1.0  0.5668024014075215  0.4378638958473645  0.7120737788863849  1.0000
  H   H9        1.0  0.5030187706849176  0.1649992290690605  0.3262190936322327  1.0000
  H   H10       1.0  0.35261807823754043  0.17831153392496196  0.3021244212101024  1.0000
  H   H11       1.0  0.25073256706119196  0.664389677143575  0.6098625943030528  1.0000
  H   H12       1.0  0.40063270244509397  0.6506382011367435  0.6351129808745241  1.0000
  H   H13       1.0  0.7605146321988342  0.7956238095230432  0.8505693907574072  1.0000
  H   H14       1.0  0.8884998618796301  0.09321853114391843  0.9035181173277493  1.0000
  H   H15       1.0  0.0567283623031329  0.8478160776577042  0.9789236209957795  1.0000
  H   H16       1.0  0.8085937369333321  0.9209099841687095  0.1452652449481775  1.0000
  H   H17       1.0  0.0453236931744101  0.7615566538933225  0.7045140743158528  1.0000
  H   H18       1.0  0.29019249794623647  0.9128877468385995  0.6919728220268767  1.0000
  H   H19       1.0  0.4617504464015099  0.6975121826802281  0.7367094821232315  1.0000
  H   H20       1.0  0.5998566417072482  0.9494505526825845  0.7299235688152379  1.0000
  H   H21       1.0  0.14660550836798336  0.8845302301636551  0.211774974228284  1.0000
  H   H22       1.0  0.299742505226483  0.127044659327133  0.1952196963821748  1.0000
  H   H23       1.0  0.7035628952559563  0.07102407354790331  0.2215303737455372  1.0000
  H   H24       1.0  0.46285969946749345  0.9153886617388025  0.24472468845453932  1.0000
  H   H25       1.0  0.31100570562205115  0.033550484709032  0.4502218100210271  1.0000
  H   H26       1.0  0.4440389138663363  0.7957661319888987  0.4864222479912429  1.0000
  H   H27       1.0  0.6224433521732848  0.082791746818188  0.8053574610848955  1.0000
  H   H28       1.0  0.5812856996531294  0.3119608113913941  0.9682128622830105  1.0000
  H   H29       1.0  0.585087554664824  0.5602184791930682  0.7508264659614241  1.0000
  H   H30       1.0  0.688397922115378  0.570965700458025  0.015132101836883304  1.0000
  H   H31       1.0  0.06139515303035379  0.17376795032444653  0.1559753803453177  1.0000
  H   H32       1.0  0.1743291189168232  0.3450987076778702  0.9702245089053179  1.0000
  H   H33       1.0  0.06077181501154882  0.5980937193759106  0.9390790178492738  1.0000
  H   H34       1.0  0.24122482878838977  0.6560954220287273  0.15853348065979134  1.0000
  H   H35       1.0  0.31863127276731257  0.3041055981110077  0.039222773961036204  1.0000
  H   H36       1.0  0.4318959226877581  0.5139984602131874  0.8980065494818136  1.0000
  H   H37       1.0  0.9088884303750007  0.7310082828743918  0.2743904723330957  1.0000
  H   H38       1.0  0.693781559928027  0.5377958501265924  0.22824560898479976  1.0000
  H   H39       1.0  0.6564081452440292  0.6661170101766986  0.5768846298820947  1.0000
  H   H40       1.0  0.9264127008092728  0.6927391246424366  0.6687103220366453  1.0000
  H   H41       1.0  0.1057232667812187  0.18588298349981616  0.3359303426989086  1.0000
  H   H42       1.0  0.8294367020746519  0.12407412297687871  0.2844365903155719  1.0000
  H   H43       1.0  0.0458882868107295  0.16824175044812512  0.7935309154037286  1.0000
  H   H44       1.0  0.881672002593781  0.1952486769188795  0.5634305472703574  1.0000
  H   H45       1.0  0.9699922753952566  0.36974271208136156  0.37419903213655914  1.0000
  H   H46       1.0  0.7930639659839043  0.4559229725008862  0.5645996351329928  1.0000
  C   C1        1.0  0.015424436158745903  0.2789502415945081  0.5649013684585356  1.0000
  C   C2        1.0  0.09085784887427202  0.2686785014761669  0.5476451328192482  1.0000
  C   C3        1.0  0.09329011763485787  0.2539201904898577  0.4690937890017892  1.0000
  C   C4        1.0  0.0197983695672121  0.2568291674358534  0.4372973775166216  1.0000
  C   C5        1.0  0.7514058265674136  0.5477099019328691  0.3732559894334528  1.0000
  C   C6        1.0  0.6752727925763009  0.5587494518262659  0.3874205485378043  1.0000
  C   C7        1.0  0.6694615670063442  0.5721609391434515  0.46565563850097663  1.0000
  C   C8        1.0  0.7418638841686586  0.5695378935499491  0.5002609890427366  1.0000
  C   C9        1.0  0.24143705299786689  0.5090166599307083  0.10306283137117592  1.0000
  C   C10       1.0  0.22792415586246048  0.495413364958914  0.1779922312596796  1.0000
  C   C11       1.0  0.21904718798662504  0.4157841411837709  0.18580351328483155  1.0000
  C   C12       1.0  0.22655283684176913  0.3799432904918732  0.1154934310552918  1.0000
  C   C13       1.0  0.5069297708789833  0.3113328129957012  0.8314618757312219  1.0000
  C   C14       1.0  0.5229288385469886  0.3294933769978315  0.7582470690211949  1.0000
  C   C15       1.0  0.5392671622806446  0.4090860286877387  0.7573683643732495  1.0000
  C   C16       1.0  0.53181107420653  0.4406206651581214  0.8295409212096914  1.0000
  C   C17       1.0  0.472703606693976  0.04289862162898571  0.3343063063013432  1.0000
  C   C18       1.0  0.4591782348141392  0.11982592042607375  0.3316034425297332  1.0000
  C   C19       1.0  0.3792556795323704  0.1265320961454606  0.31844143313433904  1.0000
  C   C20       1.0  0.34383033997416124  0.05417376149979701  0.3149847604739478  1.0000
  C   C21       1.0  0.2815707999831005  0.7863232535560343  0.6013222220840362  1.0000
  C   C22       1.0  0.2947673701404411  0.7093983481186116  0.6047020094665356  1.0000
  C   C23       1.0  0.3745200201912269  0.7025619573484363  0.6184659721633282  1.0000
  C   C24       1.0  0.410290555180616  0.7748603124374753  0.6217658276610365  1.0000
  C   C25       1.0  0.936224733829313  0.05603883278491402  0.7753082526528345  1.0000
  C   C26       1.0  0.644102160757761  0.8739509281500306  0.8511566562172277  1.0000
  C   C27       1.0  0.8399483066292248  0.7976257138757532  0.7362847100445933  1.0000
  C   C28       1.0  0.72922385044491  0.10362731008409301  0.9162057514018471  1.0000
  C   C29       1.0  0.8206931061369076  0.7620735162006654  0.15447646322277822  1.0000
  C   C30       1.0  0.10704416795563533  0.9570851967622007  0.08804928173386631  1.0000
  C   C31       1.0  0.7596146799138734  0.6780350939596432  0.928069133139296  1.0000
  C   C32       1.0  0.678875797394248  0.9676515051541514  0.10716028236090121  1.0000
  C   C33       1.0  0.9992058514542917  0.1442591402381197  0.014198136755425098  1.0000
  C   C34       1.0  0.0696267681109362  0.8618299148032449  0.8221883694557448  1.0000
  C   C35       1.0  0.0197055260445254  0.7186909837905519  0.024587301320728717  1.0000
  C   C36       1.0  0.9184026310531763  0.034645601993943814  0.19813861035081004  1.0000
  C   C37       1.0  0.09762151714424759  0.79688532587587  0.6994905688550404  1.0000
  C   C38       1.0  0.11727980611074429  0.8545299550799114  0.7553324067636639  1.0000
  C   C39       1.0  0.18482061533789823  0.8992301241797238  0.7463718956170453  1.0000
  C   C40       1.0  0.2345427757991985  0.8824748363976769  0.6902260233614116  1.0000
  C   C41       1.0  0.21777615326517014  0.8213090552428213  0.6372529092411412  1.0000
  C   C42       1.0  0.1455452950044389  0.782866629147506  0.6413766181948475  1.0000
  C   C43       1.0  0.4930525674363152  0.752174979579685  0.7322607543258998  1.0000
  C   C44       1.0  0.4766507594677876  0.7990368836798041  0.6713701376356982  1.0000
  C   C45       1.0  0.5168140929585618  0.8706718792285953  0.6743268988323339  1.0000
  C   C46       1.0  0.5685760369676982  0.8944588936501816  0.7322989819715673  1.0000
  C   C47       1.0  0.5824923749922772  0.8484501402295735  0.7937367637831586  1.0000
  C   C48       1.0  0.5429044607420436  0.7770121264900425  0.7916151730537919  1.0000
  C   C49       1.0  0.1808870424582594  0.9375710473823347  0.20774804901928692  1.0000
  C   C50       1.0  0.16993566379748865  0.9816908153983089  0.1443078538296589  1.0000
  C   C51       1.0  0.21439639961084106  0.050168719204052116  0.1428859893530117  1.0000
  C   C52       1.0  0.2652248015144778  0.07462965068462071  0.2015835518300619  1.0000
  C   C53       1.0  0.27759305947867563  0.030137732258111807  0.26508178756827044  1.0000
  C   C54       1.0  0.23359619863694547  0.9609002385868523  0.2649961038043003  1.0000
  C   C55       1.0  0.6524473243778316  0.0345928493606138  0.22900969194362375  1.0000
  C   C56       1.0  0.6318019188994413  0.9760413839132909  0.17427929795007202  1.0000
  C   C57       1.0  0.5656017186258139  0.9303864567092859  0.18608937646448  1.0000
  C   C58       1.0  0.5179116733884895  0.9466897079221681  0.2441136330709099  1.0000
  C   C59       1.0  0.535553602709996  0.008504147963968504  0.2961968140859597  1.0000
  C   C60       1.0  0.6068135072452492  0.048087780421830914  0.289046311206242  1.0000
  C   C61       1.0  0.34045224067850904  0.9808277925912424  0.45667655471525154  1.0000
  C   C62       1.0  0.38789030137453295  0.9552955961099914  0.40018479114755223  1.0000
  C   C63       1.0  0.42457686649810705  0.8878421544783137  0.41454842349133264  1.0000
  C   C64       1.0  0.41442131202229865  0.8483973187011531  0.4798177097855287  1.0000
  C   C65       1.0  0.3668079375706128  0.8738618264286729  0.5361917823151643  1.0000
  C   C66       1.0  0.33029355305983193  0.9414321181105407  0.5219500778593584  1.0000
  C   C67       1.0  0.6112523691284507  0.1315918287648259  0.8424532670114077  1.0000
  C   C68       1.0  0.660344993006305  0.1485395693413382  0.9062628218401018  1.0000
  C   C69       1.0  0.6428653581638031  0.2111493885400577  0.9533028838902099  1.0000
  C   C70       1.0  0.585976536349463  0.2596750908497398  0.9338333384141679  1.0000
  C   C71       1.0  0.5415719335012099  0.24679325659835166  0.8661710489289334  1.0000
  C   C72       1.0  0.5526869906524325  0.17815988738266958  0.8248941023184813  1.0000
  C   C73       1.0  0.6074212874757875  0.560317380806069  0.8088665307714251  1.0000
  C   C74       1.0  0.5764081273498575  0.5083322989859411  0.8596377196837397  1.0000
  C   C75       1.0  0.6078018292083699  0.5161361401058784  0.9340723597337474  1.0000
  C   C76       1.0  0.6679008942410862  0.5675478698232014  0.9564360248154031  1.0000
  C   C77       1.0  0.7014704737616028  0.6146248910863505  0.9040556217268758  1.0000
  C   C78       1.0  0.668563357797737  0.6100134451551541  0.8311229744083805  1.0000
  C   C79       1.0  0.08618268568230289  0.21061888948550941  0.1147866232256973  1.0000
  C   C80       1.0  0.05774586011963829  0.2060716436741572  0.0400782074818764  1.0000
  C   C81       1.0  0.09445646254693682  0.2529710218837025  0.9894314269796566  1.0000
  C   C82       1.0  0.15357955895798625  0.3054840077725488  0.011217932980926505  1.0000
  C   C83       1.0  0.18196431324547288  0.31163251974021483  0.0869098751091428  1.0000
  C   C84       1.0  0.1481467166615857  0.25983305660221845  0.135789719815584  1.0000
  C   C85       1.0  0.10088789936015272  0.6113835765640445  0.9868080177811082  1.0000
  C   C86       1.0  0.0893717055595999  0.6748139358287516  0.0352304539821304  1.0000
  C   C87       1.0  0.14462277877879606  0.6908447369232533  0.09423450518331583  1.0000
  C   C88       1.0  0.20266153458132413  0.6425252069306921  0.10972658686521441  1.0000
  C   C89       1.0  0.20784963114363106  0.5733525141866805  0.0674386961350493  1.0000
  C   C90       1.0  0.15913553529022553  0.5633909417266808  0.0020277948119727103  1.0000
  C   C91       1.0  0.34136264360290614  0.3517003156048375  0.00814747278548111  1.0000
  C   C92       1.0  0.31000010589757204  0.42376341453333327  0.014660705439133904  1.0000
  C   C93       1.0  0.346752014535106  0.4801548496028546  0.9728595123841117  1.0000
  C   C94       1.0  0.40881910185155584  0.4664362393069226  0.928955713964946  1.0000
  C   C95       1.0  0.4405226075426398  0.3945640528440962  0.922944176026853  1.0000
  C   C96       1.0  0.40321151992672105  0.3379586290328263  0.9640860784670482  1.0000
  C   C97       1.0  0.8622801490139408  0.6879784385207159  0.2636795616578524  1.0000
  C   C98       1.0  0.8125938643454161  0.6935663487077122  0.200397917740915  1.0000
  C   C99       1.0  0.7546912480896778  0.6354322722928032  0.1882797720938285  1.0000
  C   C100      1.0  0.7419694710532666  0.5790337439418709  0.2390839255258896  1.0000
  C   C101      1.0  0.7856469877982946  0.5793487038029073  0.3073922382428478  1.0000
  C   C102      1.0  0.8493834127447926  0.6323784052617967  0.3149522649951138  1.0000
  C   C103      1.0  0.7163044496600292  0.6696952368497266  0.5958133276090791  1.0000
  C   C104      1.0  0.7682954057873772  0.6180252063044877  0.566177886218  1.0000
  C   C105      1.0  0.844473008260607  0.6307589194195415  0.5944459368713167  1.0000
  C   C106      1.0  0.8671884812110021  0.6885276009957408  0.6473102554870424  1.0000
  C   C107      1.0  0.8156103070197885  0.7411804996553003  0.6733835698425352  1.0000
  C   C108      1.0  0.7399648159422442  0.7299253343704848  0.6451627659528825  1.0000
  C   C109      1.0  0.0445359103346163  0.17316100581629712  0.3271522413371954  1.0000
  C   C110      1.0  0.9912975802673574  0.21308918301100024  0.3694922685458621  1.0000
  C   C111      1.0  0.9137488127737967  0.1921439853968252  0.3508976044556178  1.0000
  C   C112      1.0  0.8904212385810198  0.135687323746474  0.296768392794533  1.0000
  C   C113      1.0  0.9440099894473374  0.09282100064012871  0.2595445198489301  1.0000
  C   C114      1.0  0.021006077317046803  0.1135135583326274  0.2771022813055026  1.0000
  C   C115      1.0  0.0085998949629911  0.1756197353730471  0.7441427666803975  1.0000
  C   C116      1.0  0.9463881480576858  0.1227671836808497  0.7275104897050255  1.0000
  C   C117      1.0  0.8987601377057145  0.13594806572319135  0.6643157106614694  1.0000
  C   C118      1.0  0.9160347833432566  0.1931839135957958  0.615578284988608  1.0000
  C   C119      1.0  0.981732243833072  0.2424335102977366  0.6287800335929746  1.0000
  C   C120      1.0  0.0237215724508246  0.23449080801621142  0.697059712698497  1.0000
  C   C121      1.0  0.9309922991288744  0.3868947042224278  0.41718854349986156  1.0000
  C   C122      1.0  0.9248438890402113  0.34586601646027765  0.4828912217174235  1.0000
  C   C123      1.0  0.8738184381335614  0.3748858348538705  0.534535493284281  1.0000
  C   C124      1.0  0.8324153234493892  0.4388576688657508  0.5218951791933435  1.0000
  C   C125      1.0  0.8390953917084119  0.48037995100717973  0.45649028568543326  1.0000
  C   C126      1.0  0.8894488982468189  0.4508022466620148  0.40443496662717854  1.0000
  N   N1        1.0  0.972203857219348  0.2828019771505978  0.49515700751092595  1.0000
  N   N2        1.0  0.7914248983955687  0.5430659618991597  0.4441051940321615  1.0000
  N   N3        1.0  0.2508530448197632  0.43700379292086927  0.06584536966116161  1.0000
  N   N4        1.0  0.5016052616212718  0.3817727998243328  0.8739004530998999  1.0000
  N   N5        1.0  0.3999993700946689  0.0012778967631560999  0.3356479232420639  1.0000
  N   N6        1.0  0.3543096567364756  0.8277261413095333  0.600585677538902  1.0000
  O   O1        1.0  0.9916884501339068  0.0415397789828376  0.8198983264390379  1.0000
  O   O2        1.0  0.6484435711838897  0.8469141692631724  0.916001100393821  1.0000
  O   O3        1.0  0.8132954823228005  0.8631943439412242  0.7418552192289243  1.0000
  O   O4        1.0  0.7458935140272372  0.06042314075385493  0.8605710276986258  1.0000
  O   O5        1.0  0.7681266580673733  0.11199904919048718  0.9791708550867639  1.0000
  O   O6        1.0  0.8872842599271209  0.7698036719522676  0.7838692723775083  1.0000
  O   O7        1.0  0.6927178707628767  0.9227611619992827  0.8255301177389214  1.0000
  O   O8        1.0  0.8712752171695611  0.018127794389236805  0.7698353092446839  1.0000
  O   O9        1.0  0.7841288386724942  0.9501957583054621  0.9627129445302813  1.0000
  O   O10       1.0  0.9156584335238875  0.9079848943615404  0.8767402451960535  1.0000
  O   O11       1.0  0.7936236970519701  0.8288309139194469  0.8841584283793367  1.0000
  O   O12       1.0  0.8858643477678854  0.041358361127073806  0.9205738693662441  1.0000
  O   O13       1.0  0.7652492206611256  0.7776001438604184  0.11068061505135772  1.0000
  O   O14       1.0  0.1019893495050184  0.9844709093079445  0.0233614693975497  1.0000
  O   O15       1.0  0.8256385423101732  0.682630365819975  0.9020200044093798  1.0000
  O   O16       1.0  0.7234281499470185  0.024155572352853507  0.092873258951478  1.0000
  O   O17       1.0  0.9348056750193978  0.13770778823457158  0.04343279911139322  1.0000
  O   O18       1.0  0.025218236468930403  0.8048204331247675  0.8357502288534705  1.0000
  O   O19       1.0  8.131688009880535e-05  0.7609479798046765  0.07942734066382678  1.0000
  O   O20       1.0  0.9468928333278155  0.9700957535704336  0.1928659426575265  1.0000
  O   O21       1.0  0.9838473852673814  0.710829987533977  0.9597045977137031  1.0000
  O   O22       1.0  0.8662224147541407  0.0594946084546066  0.15367797371141734  1.0000
  O   O23       1.0  0.7312719242921373  0.7261821367366894  0.9738455573201037  1.0000
  O   O24       1.0  0.0773104428949765  0.924725993281463  0.8619620520694866  1.0000
  O   O25       1.0  0.0245998671719505  0.09977429876149563  0.9628755736092102  1.0000
  O   O26       1.0  0.6731434890619566  0.9032921515652461  0.069538576958827  1.0000
  O   O27       1.0  0.88395020163027  0.8027104844720655  0.16515075981394742  1.0000
  O   O28       1.0  0.059328864013203  0.9072249070067288  0.1135479970489683  1.0000
  O   O29       1.0  0.9399799714828488  0.9765562231393123  0.03198524965442571  1.0000
  O   O30       1.0  0.870497082366164  0.8191239428082397  0.004246290481965808  1.0000
  O   O31       1.0  0.0043592204604224055  0.863379699300353  0.9761285918636845  1.0000
  O   O32       1.0  0.8257280311253011  0.9196303583977326  0.09406301336455411  1.0000
  F   F1        1.0  0.1253823516836547  0.7244622479299139  0.5899665029871387  1.0000
  F   F2        1.0  0.2078877486830351  0.9566428675869503  0.7968432126435658  1.0000
  F   F3        1.0  0.5521110435564154  0.7291665321089552  0.8490036226538821  1.0000
  F   F4        1.0  0.5042648100229741  0.9197628854355102  0.6180773060198419  1.0000
  F   F5        1.0  0.24283623116024697  0.913985631224108  0.3237662624670321  1.0000
  F   F6        1.0  0.20920396179288758  0.09537828978349693  0.0830002422646814  1.0000
  F   F7        1.0  0.6280828325175632  0.10709345597063452  0.3395063389644762  1.0000
  F   F8        1.0  0.5419719817671194  0.8721286023287292  0.136811038721028  1.0000
  F   F9        1.0  0.2831490641939425  0.971860289606873  0.5729214518765176  1.0000
  F   F10       1.0  0.4720343672504369  0.8575662667302313  0.36365242457574  1.0000
  F   F11       1.0  0.508408448205799  0.1609401732367317  0.7607079501952044  1.0000
  F   F12       1.0  0.6853070932524046  0.23036531533747953  0.017418227771834396  1.0000
  F   F13       1.0  0.695878972598763  0.6595959078686066  0.7800745160999014  1.0000
  F   F14       1.0  0.5809141012166208  0.46874252038720954  0.9872177922201858  1.0000
  F   F15       1.0  0.1752827271514832  0.25991544665004085  0.2093597297117924  1.0000
  F   F16       1.0  0.06860750668572987  0.25029366613454584  0.915972868641262  1.0000
  F   F17       1.0  0.16392566116834217  0.5001088995102663  0.9554019178589853  1.0000
  F   F18       1.0  0.14251963151089334  0.755026178852553  0.1394427267098095  1.0000
  F   F19       1.0  0.42680545904493516  0.2651335150218586  0.9625972286304146  1.0000
  F   F20       1.0  0.3230475821826104  0.5530124570363455  0.974440170289789  1.0000
  F   F21       1.0  0.8959008101335613  0.6351390062051935  0.3782970796036978  1.0000
  F   F22       1.0  0.7070607008731712  0.633515606472571  0.1259155535496319  1.0000
  F   F23       1.0  0.6859906851188525  0.7777396754856697  0.6682719492911319  1.0000
  F   F24       1.0  0.8999446432412483  0.5857372020061363  0.5687327329577274  1.0000
  F   F25       1.0  0.0762079802106683  0.07557178157351532  0.24148952379792382  1.0000
  F   F26       1.0  0.8576863185374676  0.22631002659089464  0.3890571223874275  1.0000
  F   F27       1.0  0.08611577744791528  0.2830939400906446  0.7138720124739778  1.0000
  F   F28       1.0  0.8364770121808647  0.08906913010855531  0.6450651122961091  1.0000
  F   F29       1.0  0.8995900901081979  0.48361708456775426  0.337278768049572  1.0000
  F   F30       1.0  0.8626583445667818  0.34045843354654454  0.6007341606085747  1.0000
