data_image0
_chemical_formula_structural       H32Pb2C32O14
_chemical_formula_sum              "H32 Pb2 C32 O14"
_cell_length_a       7.268937681049482
_cell_length_b       10.549924070111253
_cell_length_c       11.266333570935794
_cell_angle_alpha    109.68794453169414
_cell_angle_beta     91.41917197428954
_cell_angle_gamma    102.88984354826795

_space_group_name_H-M_alt    "P 1"
_space_group_IT_number       1

loop_
  _space_group_symop_operation_xyz
  'x, y, z'

loop_
  _atom_site_type_symbol
  _atom_site_label
  _atom_site_symmetry_multiplicity
  _atom_site_fract_x
  _atom_site_fract_y
  _atom_site_fract_z
  _atom_site_occupancy
  H   H1        1.0  0.7697870100817069  0.6615776144708294  0.10647278377853554  1.0000
  H   H2        1.0  0.23021300210552909  0.33842848187880054  0.8935290485682189  1.0000
  H   H3        1.0  0.3729345656874302  0.5772311207108559  0.9804441870159624  1.0000
  H   H4        1.0  0.6270666553228493  0.4227781598248156  0.01956752698878006  1.0000
  H   H5        1.0  0.821907346466851  0.5450387497105994  0.7284429796921973  1.0000
  H   H6        1.0  0.17809094634823455  0.45494553798775433  0.27154936269992197  1.0000
  H   H7        1.0  0.9125096647853398  0.5297193415471997  0.8685874475994384  1.0000
  H   H8        1.0  0.08749281673305383  0.4702649830888674  0.13140760474965427  1.0000
  H   H9        1.0  0.02063559398553152  0.5999176254951097  0.579249383629069  1.0000
  H   H10       1.0  0.9793768815792204  0.4000719316278137  0.4207482752893696  1.0000
  H   H11       1.0  0.34174936092024677  0.6655322023135782  0.5125498852843862  1.0000
  H   H12       1.0  0.6582651757168492  0.3344802020305338  0.4874575908939819  1.0000
  H   H13       1.0  0.6253926664166087  0.6658707031493664  0.637326590840715  1.0000
  H   H14       1.0  0.3746133237747387  0.33414480604040625  0.36268533373691986  1.0000
  H   H15       1.0  0.588551094651095  0.606204007860285  0.8355499643541863  1.0000
  H   H16       1.0  0.41145595738533564  0.39381463073448236  0.1644647220877431  1.0000
  H   H17       1.0  0.638295028431628  0.9743897189380988  0.1571958956969155  1.0000
  H   H18       1.0  0.361694166831981  0.025592404049732  0.8427885922222487  1.0000
  H   H19       1.0  0.7875782358701214  0.144231352511234  0.2124477319791538  1.0000
  H   H20       1.0  0.21241856140982662  0.8557644334632002  0.7875606170310194  1.0000
  H   H21       1.0  0.07010811637187697  0.6770554950864636  0.03677678629047414  1.0000
  H   H22       1.0  0.9298832796311771  0.3229453742412574  0.9632224528317155  1.0000
  H   H23       1.0  0.3742117312881206  0.8373917755441198  0.0346110437398934  1.0000
  H   H24       1.0  0.6257906325573117  0.16260405283298243  0.9654000285720274  1.0000
  H   H25       1.0  0.4028585313058173  0.09436605523990949  0.110854551103003  1.0000
  H   H26       1.0  0.5971462355024002  0.9056328943118714  0.8891575164695739  1.0000
  H   H27       1.0  0.1219109105095413  0.1840200381521058  0.1861703781440838  1.0000
  H   H28       1.0  0.8780938746093129  0.8159839823745827  0.8138281830485783  1.0000
  H   H29       1.0  0.7899951912768657  0.7378581486537712  0.39199870435012235  1.0000
  H   H30       1.0  0.21000553749495046  0.2621375783915596  0.6079998949780574  1.0000
  H   H31       1.0  0.5704901939966973  0.7356183949960597  0.3769394522261252  1.0000
  H   H32       1.0  0.4295141318776388  0.2643803902125939  0.6230512559653718  1.0000
  Pb  Pb1       1.0  0.7607441168251297  0.022394286642295903  0.6070141335890328  1.0000
  Pb  Pb2       1.0  0.2392619871654206  0.9776281515380421  0.3929564600444878  1.0000
  C   C1        1.0  0.8546379377726936  0.34269259621063963  0.7088311237404313  1.0000
  C   C2        1.0  0.14536867714200957  0.6573125094366861  0.2911731179475652  1.0000
  C   C3        1.0  0.923816344240201  0.501795062107732  0.7662398377712523  1.0000
  C   C4        1.0  0.07619021930831599  0.49820171851965983  0.23375825226712987  1.0000
  C   C5        1.0  0.12040381079670236  0.5570126732515633  0.7390080017061963  1.0000
  C   C6        1.0  0.8796021612126522  0.44298206447415817  0.26099388359265424  1.0000
  C   C7        1.0  0.14611757603996273  0.5978565284242309  0.6330779968047794  1.0000
  C   C8        1.0  0.8538866139794196  0.4021329890613999  0.36691869207076894  1.0000
  C   C9        1.0  0.3253430563556989  0.6354348106873644  0.5957261633761348  1.0000
  C   C10       1.0  0.6746632206093608  0.3645609519129991  0.40427426927958265  1.0000
  C   C11       1.0  0.485634953075632  0.6373883367597772  0.667611025640497  1.0000
  C   C12       1.0  0.5143703868995074  0.36261264884604577  0.33239635669739453  1.0000
  C   C13       1.0  0.4650551707573882  0.6035557874783349  0.7768770210853121  1.0000
  C   C14       1.0  0.5349525243746456  0.3964524544216134  0.2231308724411961  1.0000
  C   C15       1.0  0.2840882910752144  0.5627993088369507  0.8109782021748162  1.0000
  C   C16       1.0  0.7159124890627879  0.4372047432283139  0.18902654880297834  1.0000
  C   C17       1.0  0.7652670187880232  0.0431584467161201  0.34741997324451296  1.0000
  C   C18       1.0  0.23471042968264302  0.9568298461941183  0.6525654550843926  1.0000
  C   C19       1.0  0.7746775052844226  0.037815325465246  0.2109598656727627  1.0000
  C   C20       1.0  0.2253083389650855  0.9621730481680616  0.7890318725442997  1.0000
  C   C21       1.0  0.9380361935093476  0.9834913707853021  0.1539947834983267  1.0000
  C   C22       1.0  0.0619642008731205  0.0165074733524619  0.8460056743751635  1.0000
  C   C23       1.0  0.9238324918090157  0.8394284061345085  0.10999396179608566  1.0000
  C   C24       1.0  0.07616475003214161  0.1605693679605622  0.8900034721599186  1.0000
  C   C25       1.0  0.08107943135109255  0.7882303304791876  0.06724762556110873  1.0000
  C   C26       1.0  0.9189119279074731  0.21177052515326983  0.9327498336126538  1.0000
  C   C27       1.0  0.25273537814508273  0.8792213119817875  0.06693308278678971  1.0000
  C   C28       1.0  0.7472608826508136  0.12077751576114085  0.9330673350523571  1.0000
  C   C29       1.0  0.268965175075948  0.022197133678375308  0.10912273939619152  1.0000
  C   C30       1.0  0.7310294212743003  0.9778006705725913  0.8908800077155165  1.0000
  C   C31       1.0  0.11122966640471792  0.0725475236182263  0.15219676045535382  1.0000
  C   C32       1.0  0.8887683506980579  0.9274523618548185  0.8478057779822877  1.0000
  O   O1        1.0  0.6792818006314647  0.2883611988692892  0.7047207200038557  1.0000
  O   O2        1.0  0.3207226500980341  0.7116459387498254  0.2952796997341026  1.0000
  O   O3        1.0  0.9782684371870969  0.2730644115525749  0.6711752478796953  1.0000
  O   O4        1.0  0.02173789114414157  0.7269396760677297  0.328831336425644  1.0000
  O   O5        1.0  0.7531627681910323  0.7539256171435014  0.11237205626511583  1.0000
  O   O6        1.0  0.24683187590349587  0.24607311611529079  0.8876167785644997  1.0000
  O   O7        1.0  0.26225642144337513  0.5241974133705298  0.9185485267284434  1.0000
  O   O8        1.0  0.737750322077048  0.4758077402102075  0.08146194477903636  1.0000
  O   O9        1.0  0.9135140196550466  0.042601147524735  0.41017224523076845  1.0000
  O   O10       1.0  0.08647400690006905  0.9574110297281211  0.5898189578609775  1.0000
  O   O11       1.0  0.6128944066413027  0.0513242521550623  0.39876223557351415  1.0000
  O   O12       1.0  0.3870778831422115  0.9486609086506093  0.6012221708051726  1.0000
  O   O13       1.0  0.6820479192757959  0.7608592581800196  0.4391282040359671  1.0000
  O   O14       1.0  0.3179519569948752  0.23914263457385945  0.5608652126407068  1.0000
