data_image0
_chemical_formula_structural       Zn2H44C64N8O4
_chemical_formula_sum              "Zn2 H44 C64 N8 O4"
_cell_length_a       9.762708054745222
_cell_length_b       11.761511347
_cell_length_c       14.667
_cell_angle_alpha    90.0
_cell_angle_beta     106.8602536152272
_cell_angle_gamma    90.0

_space_group_name_H-M_alt    "P 1"
_space_group_IT_number       1

loop_
  _space_group_symop_operation_xyz
  'x, y, z'

loop_
  _atom_site_type_symbol
  _atom_site_label
  _atom_site_symmetry_multiplicity
  _atom_site_fract_x
  _atom_site_fract_y
  _atom_site_fract_z
  _atom_site_occupancy
  Zn  Zn1       1.0  0.5000043775816394  0.5000003678523868  1.6331799909482894e-07  1.0000
  Zn  Zn2       1.0  0.5000000963282005  0.999999035243036  0.5000013822021572  1.0000
  H   H1        1.0  0.0249479340715197  0.4313042644212501  0.1219916528396752  1.0000
  H   H2        1.0  0.975053328898241  0.9312978304266936  0.3780106363929292  1.0000
  H   H3        1.0  0.9750597507783922  0.5686990219761228  0.8780064217572843  1.0000
  H   H4        1.0  0.0249447231314477  0.0686986541237431  0.6219930783548193  1.0000
  H   H5        1.0  0.4921001134296716  0.929246223342524  0.2926318263573293  1.0000
  H   H6        1.0  0.5079043604801683  0.4292424545666691  0.20736767375477433  1.0000
  H   H7        1.0  0.5079011495400962  0.0707579132857177  0.7073690992699113  1.0000
  H   H8        1.0  0.492099043116312  0.5707548802146292  0.7926295743182977  1.0000
  H   H9        1.0  0.9511703566183486  0.2630758844431327  0.017700684188056887  1.0000
  H   H10       1.0  0.0488255547846208  0.7630694504485761  0.4823032991004225  1.0000
  H   H11       1.0  0.0488330469781317  0.736928252185109  0.9822992910957496  1.0000
  H   H12       1.0  0.9511714269317083  0.2369278843327223  0.5177008908190359  1.0000
  H   H13       1.0  0.3641623467570838  0.6000215271483853  0.1302759619951956  1.0000
  H   H14       1.0  0.6358357052726049  0.1000160579107927  0.3697243437391222  1.0000
  H   H15       1.0  0.6358453380928282  0.3999834597107252  0.8697234762071417  1.0000
  H   H16       1.0  0.3641591358170047  0.8999804266396367  0.6302767057076436  1.0000
  H   H17       1.0  0.2617076708352286  0.8221613459962782  0.472615461405212  1.0000
  H   H18       1.0  0.7382914515078127  0.322154176296948  0.02738505096007765  1.0000
  H   H19       1.0  0.7382914515078127  0.1778376892467577  0.5273857327627667  1.0000
  H   H20       1.0  0.261709811461948  0.6778346561756692  0.9726131474564141  1.0000
  H   H21       1.0  0.1006544088529822  0.5750681014073251  0.20540117255960408  1.0000
  H   H22       1.0  0.8993436431767067  0.0750609317079949  0.2945991331747067  1.0000
  H   H23       1.0  0.8993500650568579  0.4249326342974484  0.7945969639471215  1.0000
  H   H24       1.0  0.100651197912903  0.9249321519189594  0.705402598074741  1.0000
  H   H25       1.0  0.9926128898565595  0.1342565554215724  0.8914572137725685  1.0000
  H   H26       1.0  0.0073798106063379  0.6342467205035476  0.6085454678203135  1.0000
  H   H27       1.0  0.0073883731132085  0.8657526825918751  0.1085382574331817  1.0000
  H   H28       1.0  0.9926150304832717  0.36574806358515133  0.3914583088372012  1.0000
  H   H29       1.0  0.3585924360398423  0.19632255854507724  0.7890554304351909  1.0000
  H   H30       1.0  0.6414034753631341  0.6963203757048575  0.7109437802344871  1.0000
  H   H31       1.0  0.6414098972432782  0.8036824283140334  0.21094297461227282  1.0000
  H   H32       1.0  0.35859136572648254  0.3036778093073096  0.2890565874095898  1.0000
  H   H33       1.0  0.3925823773633326  0.7746385418676596  0.1759187670584907  1.0000
  H   H34       1.0  0.6074188856064282  0.2746356233226663  0.32408147676605387  1.0000
  H   H35       1.0  0.6074188856064282  0.225366444991451  0.8240801131606831  1.0000
  H   H36       1.0  0.3925823773633326  0.7253659626129689  0.6759208124665506  1.0000
  H   H37       1.0  0.142357028237285  0.667288392490633  0.3603390241273345  1.0000
  H   H38       1.0  0.8576367425389719  0.167280372560441  0.13965840967502882  1.0000
  H   H39       1.0  0.8576420941057635  0.3327123432141335  0.6396580792245244  1.0000
  H   H40       1.0  0.1423559579239253  0.8327084599121832  0.8603408629044154  1.0000
  H   H41       1.0  0.1437816153173515  0.0849737733964702  0.7860827893003304  1.0000
  H   H42       1.0  0.856206803892114  0.5849664891710447  0.7139177021632718  1.0000
  H   H43       1.0  0.856217507025697  0.9150354646169774  0.2139122686434618  1.0000
  H   H44       1.0  0.1437848262574235  0.4150299953793848  0.2860847727986311  1.0000
  C   C1        1.0  0.34199080553731426  0.3111572902519413  0.8994550682025775  1.0000
  C   C2        1.0  0.6580061761790148  0.8111568078734592  0.6005498035195629  1.0000
  C   C3        1.0  0.6580158089992452  0.6888476966071693  0.1005441633687809  1.0000
  C   C4        1.0  0.34199080553731426  0.188840526907839  0.3994550682025775  1.0000
  C   C5        1.0  0.2958945498166727  0.21871848983558811  0.836944376592278  1.0000
  C   C6        1.0  0.7041002912729368  0.7187154567645067  0.6630573546571767  1.0000
  C   C7        1.0  0.7041131350332392  0.781283946330916  0.16305847062348997  1.0000
  C   C8        1.0  0.2958913388766007  0.2812793273241923  0.33694102948860655  1.0000
  C   C9        1.0  0.172940162140911  0.1565411064683957  0.8351190049438698  1.0000
  C   C10       1.0  0.8270514680086194  0.6565338222429702  0.6648807428072914  1.0000
  C   C11       1.0  0.8270621711422095  0.8434664310833142  0.1648787183009119  1.0000
  C   C12       1.0  0.1729444433943499  0.3434626623074593  0.3351211950731354  1.0000
  C   C13       1.0  0.0885823444833065  0.182989238075173  0.8938764725809776  1.0000
  C   C14       1.0  0.9114082153528714  0.6829811036188788  0.6061230685392118  1.0000
  C   C15       1.0  0.9114178481730946  0.8170182994765441  0.1061187919937936  1.0000
  C   C16       1.0  0.0885855554233856  0.3170145307006891  0.3938777742765822  1.0000
  C   C17       1.0  0.1273822740395616  0.2758063912277251  0.9566564772536594  1.0000
  C   C18       1.0  0.8726114967366883  0.7757991070022996  0.5433436837594456  1.0000
  C   C19       1.0  0.8726200592435589  0.7242011463239919  0.04333851878036653  1.0000
  C   C20       1.0  0.1273833443529213  0.22419652731726103  0.4566587292926982  1.0000
  C   C21       1.0  0.2528251402736643  0.3412937233635276  0.9600586046358046  1.0000
  C   C22       1.0  0.7471739820693841  0.8412915405233079  0.539943271334856  1.0000
  C   C23       1.0  0.7471793336361757  0.6587146644190511  0.039937486462868335  1.0000
  C   C24       1.0  0.2528240699603046  0.1587091951814585  0.4600618070182562  1.0000
  C   C25       1.0  0.047058467429863506  0.3107933914404981  0.018217009206772203  1.0000
  C   C26       1.0  0.9529288814662423  0.8107844067533351  0.48177986661243477  1.0000
  C   C27       1.0  0.952943865853257  0.6892115954186125  0.9817786686299499  1.0000
  C   C28       1.0  0.0470595377432232  0.1892095271044951  0.5182185794431149  1.0000
  C   C29       1.0  0.08824947702883891  0.40358333720527645  0.0760246600651655  1.0000
  C   C30       1.0  0.9117453640607707  0.9035786036724575  0.42397707118428934  1.0000
  C   C31       1.0  0.9117571375077135  0.5964190989612277  0.9239745715061929  1.0000
  C   C32       1.0  0.08824947702883891  0.0964178808779721  0.5760246600651655  1.0000
  C   C33       1.0  0.2138250621193833  0.46492239293674953  0.0753813658481448  1.0000
  C   C34       1.0  0.7861729899103055  0.9649185096347992  0.4246209852942258  1.0000
  C   C35       1.0  0.7861794117904566  0.5350817436914923  0.9246181342639518  1.0000
  C   C36       1.0  0.2138229214926639  0.0350779749156303  0.5753816343888829  1.0000
  C   C37       1.0  0.2634822503834968  0.5635168648364726  0.1351861867386575  1.0000
  C   C38       1.0  0.7365179422729042  0.0635096951371423  0.3648145322576042  1.0000
  C   C39       1.0  0.7365232938396957  0.4364898224843756  0.8648121563990402  1.0000
  C   C40       1.0  0.263477969130065  0.9364859391824183  0.6351867238201337  1.0000
  C   C41       1.0  0.1996476913736842  0.6104172999698108  0.1968271914492448  1.0000
  C   C42       1.0  0.8003492903426448  0.1104084298087429  0.3031715440487233  1.0000
  C   C43       1.0  0.8003567825361486  0.3895859864275621  0.8031723086628516  1.0000
  C   C44       1.0  0.1996466210603316  0.8895846538182114  0.6968276666209547  1.0000
  C   C45       1.0  0.2592191922768947  0.7057800443407558  0.2587321671837159  1.0000
  C   C46       1.0  0.7407767191260746  0.205771174179695  0.24126499807790214  1.0000
  C   C47       1.0  0.7407820706928733  0.2942232420566171  0.7412667130354578  1.0000
  C   C48       1.0  0.2592191922768947  0.7942219094472662  0.7587342125917758  1.0000
  C   C49       1.0  0.3589905926091745  0.78247171885333  0.2403295426746084  1.0000
  C   C50       1.0  0.641011740673946  0.2824662496157373  0.2596702259782333  1.0000
  C   C51       1.0  0.6410096000472336  0.2175332680057807  0.7596704945189713  1.0000
  C   C52       1.0  0.3589873816690954  0.7175302349346994  0.7403289227816856  1.0000
  C   C53       1.0  0.4156947240251583  0.8680261999325509  0.3054567773069223  1.0000
  C   C54       1.0  0.5843097498846817  0.3680207306949583  0.1945461318186048  1.0000
  C   C55       1.0  0.5843054686312428  0.1319779366956908  0.6945432598866503  1.0000
  C   C56       1.0  0.4156947240251583  0.6319757538554711  0.8054547318988696  1.0000
  C   C57       1.0  0.2853787210701526  0.8093543184335772  0.4050853597486466  1.0000
  C   C58       1.0  0.7146182606461764  0.3093496994268534  0.09491405755201042  1.0000
  C   C59       1.0  0.7146214715862557  0.1906464172711893  0.5949139956422443  1.0000
  C   C60       1.0  0.2853797913835123  0.690642533969239  0.9050835209715586  1.0000
  C   C61       1.0  0.22025550477679454  0.7232633416767271  0.3428490268702404  1.0000
  C   C62       1.0  0.7797436175662469  0.22325702220827282  0.15714875828430053  1.0000
  C   C63       1.0  0.7797457581929663  0.2767382442589081  0.6571505351516223  1.0000
  C   C64       1.0  0.22025550477679454  0.7767369116495574  0.8428497086729223  1.0000
  N   N1        1.0  0.2929404849474224  0.4324189170890236  0.018471981970257907  1.0000
  N   N2        1.0  0.707058637395626  0.9324158840179351  0.4815305758030918  1.0000
  N   N3        1.0  0.7070661295891298  0.5675877702318246  0.9815265677984186  1.0000
  N   N4        1.0  0.2929372740073504  0.0675840014559626  0.518472725682706  1.0000
  N   N5        1.0  0.3819263375668598  0.8809837183588629  0.3875678284857713  1.0000
  N   N6        1.0  0.6180749254029081  0.3809799495830077  0.112435142549522  1.0000
  N   N7        1.0  0.6180738550895484  0.1190170173459109  0.6124335723131793  1.0000
  N   N8        1.0  0.3819284781935721  0.6190139842748223  0.8875655145369734  1.0000
  O   O1        1.0  0.4580513048714607  0.3682052307932864  0.9038167145852469  1.0000
  O   O2        1.0  0.5419488877849474  0.8682055986456731  0.5961867316217564  1.0000
  O   O3        1.0  0.541957450291811  0.6317980556040865  0.09618224844537342  1.0000
  O   O4        1.0  0.45805023455810107  0.1317934365973628  0.4038185533623349  1.0000
