data_image0
_chemical_formula_structural       AlH9C24N6O12
_chemical_formula_sum              "Al1 H9 C24 N6 O12"
_cell_length_a       4.026234747543755
_cell_length_b       15.841340753838612
_cell_length_c       15.662251508059061
_cell_angle_alpha    60.16797620701536
_cell_angle_beta     83.73852274159377
_cell_angle_gamma    85.4174125565831

_space_group_name_H-M_alt    "P 1"
_space_group_IT_number       1

loop_
  _space_group_symop_operation_xyz
  'x, y, z'

loop_
  _atom_site_type_symbol
  _atom_site_label
  _atom_site_symmetry_multiplicity
  _atom_site_fract_x
  _atom_site_fract_y
  _atom_site_fract_z
  _atom_site_occupancy
  Al  Al1       1.0  0.012564716217099241  0.5016201899812742  0.4978523844545748  1.0000
  H   H1        1.0  0.3774087622057322  0.9628516362379359  0.13414578971858762  1.0000
  H   H2        1.0  0.5074463040754438  0.4122986687757688  0.9595811815654613  1.0000
  H   H3        1.0  0.567852407145594  0.12573421099819632  0.4157038985658659  1.0000
  H   H4        1.0  0.6758190919414775  0.4851307488977525  0.2456395930590745  1.0000
  H   H5        1.0  0.7065626154095527  0.3999111248769934  0.1470489697243167  1.0000
  H   H6        1.0  0.5310922715379365  0.24818460231644215  0.7579837761546956  1.0000
  H   H7        1.0  0.5834330414682897  0.14938517102314822  0.9400101784112778  1.0000
  H   H8        1.0  0.6918351950728766  0.7571930702056234  0.4792719006553981  1.0000
  H   H9        1.0  0.7194958426163325  0.9378025608892672  0.3974227370898191  1.0000
  C   C1        1.0  0.504481163220042  0.6488544754311222  0.4083544624299406  1.0000
  C   C2        1.0  0.5637806834512774  0.41149542115933707  0.4387845226538403  1.0000
  C   C3        1.0  0.47440699969680383  0.4408761217864594  0.6473334126793233  1.0000
  C   C4        1.0  0.5189317673635261  0.7581743164820196  0.35335116285531837  1.0000
  C   C5        1.0  0.48543828534946015  0.38475601449864877  0.7572204218251883  1.0000
  C   C6        1.0  0.6011437714256759  0.3541121743288825  0.38548523476599433  1.0000
  C   C7        1.0  0.42856703211466407  0.8181627223989169  0.25665737070373495  1.0000
  C   C8        1.0  0.44799154403902014  0.9188092308118954  0.2094870704356851  1.0000
  C   C9        1.0  0.48116083769981793  0.4290455230690497  0.8156266330319469  1.0000
  C   C10       1.0  0.5158134235444579  0.37557170487072966  0.9163010102938288  1.0000
  C   C11       1.0  0.5787677561705281  0.25281800915809777  0.4314244455779744  1.0000
  C   C12       1.0  0.5968519061231564  0.20415243868112037  0.3777175194352722  1.0000
  C   C13       1.0  0.654484488764169  0.4063347207118754  0.2822574199689781  1.0000
  C   C14       1.0  0.6721635613370794  0.35888937691498773  0.2273409441292742  1.0000
  C   C15       1.0  0.5240357550719139  0.2832398618360372  0.8029974610968651  1.0000
  C   C16       1.0  0.555245799515845  0.22837891777682268  0.9041396622335469  1.0000
  C   C17       1.0  0.6231234046119669  0.8026926226177835  0.40371447014056366  1.0000
  C   C18       1.0  0.639977818050305  0.9034418117708328  0.35795454274616384  1.0000
  C   C19       1.0  0.5562207885867353  0.9622389094215577  0.2600104153470114  1.0000
  C   C20       1.0  0.5767823027620338  0.0692170961499343  0.21000718017353392  1.0000
  C   C21       1.0  0.5506859244594793  0.2740062018825284  0.9615697475749982  1.0000
  C   C22       1.0  0.5740156957048371  0.21593298256545523  0.0693061772861512  1.0000
  C   C23       1.0  0.6372241570762825  0.2575655040125611  0.27454402902775843  1.0000
  C   C24       1.0  0.6238478233496495  0.20790053505454867  0.2163851826656682  1.0000
  N   N1        1.0  0.5510563071402218  0.11892388393156493  0.11192719505235257  1.0000
  N   N2        1.0  0.6111375696018515  0.2639229716546936  0.11822825712643949  1.0000
  N   N3        1.0  0.6148832873316794  0.11008343937583479  0.26559052612138606  1.0000
  N   N4        1.0  0.3005117113625673  0.7752726105995933  0.20237288734254122  1.0000
  N   N5        1.0  0.5139357081381917  0.19443721531013128  0.5397017439006505  1.0000
  N   N6        1.0  0.4189610223988111  0.5351746043988612  0.771506693393306  1.0000
  O   O1        1.0  0.25072186080186043  0.4183803253834241  0.6117788326025035  1.0000
  O   O2        1.0  0.24877832540716588  0.6140385472535568  0.46843984047671233  1.0000
  O   O3        1.0  0.31968668147948154  0.4727477634467405  0.4146150212000066  1.0000
  O   O4        1.0  0.703817009287782  0.5014512646783231  0.5983513683956475  1.0000
  O   O5        1.0  0.7818678799461553  0.4004704937937973  0.49631154996921373  1.0000
  O   O6        1.0  0.7576135809452823  0.60107638579246  0.39761645214904473  1.0000
  O   O7        1.0  0.3220534577161587  0.6854852532577169  0.2399600495851074  1.0000
  O   O8        1.0  0.1753325773469996  0.8313331472223169  0.1237330251461799  1.0000
  O   O9        1.0  0.3620463228862719  0.235928481434371  0.582468565741685  1.0000
  O   O10       1.0  0.611933979991477  0.10823703800132022  0.5798315064616588  1.0000
  O   O11       1.0  0.25239788482922887  0.575026081603461  0.6984233842305515  1.0000
  O   O12       1.0  0.5309133966900887  0.57620039532015  0.8114001029547993  1.0000
