data_image0
_chemical_formula_structural       CuH38C26N4O8
_chemical_formula_sum              "Cu1 H38 C26 N4 O8"
_cell_length_a       6.67747656545024
_cell_length_b       10.131430441338848
_cell_length_c       10.54068723307629
_cell_angle_alpha    86.81893399720776
_cell_angle_beta     82.74148665209107
_cell_angle_gamma    85.89684329569656

_space_group_name_H-M_alt    "P 1"
_space_group_IT_number       1

loop_
  _space_group_symop_operation_xyz
  'x, y, z'

loop_
  _atom_site_type_symbol
  _atom_site_label
  _atom_site_symmetry_multiplicity
  _atom_site_fract_x
  _atom_site_fract_y
  _atom_site_fract_z
  _atom_site_occupancy
  Cu  Cu1       1.0  0.008259890178798898  0.33278456442563714  0.5002387232588887  1.0000
  H   H1        1.0  0.7073516326911646  0.29880234807115613  0.027496611505618808  1.0000
  H   H2        1.0  0.31551114911967204  0.37839789247645683  0.05178416698912969  1.0000
  H   H3        1.0  0.2829152311558403  0.2977431394135976  0.8063649527587061  1.0000
  H   H4        1.0  0.08360055583004568  0.38360163326838403  0.2519390470519767  1.0000
  H   H5        1.0  0.802941058123949  0.5208615828277843  0.33729564416744034  1.0000
  H   H6        1.0  0.945342646761887  0.6163328945412232  0.06082824976180494  1.0000
  H   H7        1.0  0.07657724788261791  0.6272533052289546  0.1972773104645  1.0000
  H   H8        1.0  0.8421248941137308  0.7190250118604313  0.1866646369916012  1.0000
  H   H9        1.0  0.5091563791161348  0.5991533980513211  0.2308407715545897  1.0000
  H   H10       1.0  0.5180806444714606  0.42426769873542725  0.24401349935664027  1.0000
  H   H11       1.0  0.5967914009935457  0.5088096901426626  0.0934542975536203  1.0000
  H   H12       1.0  7.39357303416009e-05  0.21912663918747916  0.7033919427217938  1.0000
  H   H13       1.0  0.6207299619777232  0.15990974638222613  0.8857728125653423  1.0000
  H   H14       1.0  0.7773747849264225  0.9247574293037533  0.8804093579503629  1.0000
  H   H15       1.0  0.9262370786699209  0.030933373052633297  0.9517188859695125  1.0000
  H   H16       1.0  0.9990479492698159  0.9847144118935559  0.7907784998693687  1.0000
  H   H17       1.0  0.7677975434402314  0.0684947565426413  0.6146927314065777  1.0000
  H   H18       1.0  0.5560894380001004  0.18003927246622456  0.6554913775177411  1.0000
  H   H19       1.0  0.5524559703275216  0.013001728505535902  0.7156400694784253  1.0000
  H   H20       1.0  0.17080815115243558  0.8405684837508146  0.5127455144187749  1.0000
  H   H21       1.0  0.7839489956844333  0.9005812062213749  0.38113919290671555  1.0000
  H   H22       1.0  0.7615009414067799  0.6601662176550606  0.5260193711809862  1.0000
  H   H23       1.0  0.49809566660058385  0.5410444439876231  0.6360368419200525  1.0000
  H   H24       1.0  0.25256764097164824  0.5450062078070985  0.8057126338987358  1.0000
  H   H25       1.0  0.3713799879976278  0.8330119454674116  0.7715470698827005  1.0000
  H   H26       1.0  0.5238187459320046  0.6933964128450044  0.8246377211745466  1.0000
  H   H27       1.0  0.29441197848582595  0.7462139196714974  0.9182812950403374  1.0000
  H   H28       1.0  0.9555639300304222  0.70469418956111  0.8462295844666414  1.0000
  H   H29       1.0  0.9451173953943268  0.6190114420698479  0.7054640849755245  1.0000
  H   H30       1.0  0.013513450498365406  0.7864870934009717  0.6955648809518209  1.0000
  H   H31       1.0  0.30673170047739967  0.110110471809115  0.189180307352224  1.0000
  H   H32       1.0  0.07286086947012649  0.9386971414154885  0.1526836005307359  1.0000
  H   H33       1.0  0.013365458390183002  0.001870379338257101  0.30686717678717906  1.0000
  H   H34       1.0  0.14351292646376382  0.8416284972447131  0.2868458901823772  1.0000
  H   H35       1.0  0.5157315814537283  0.8298945368400652  0.1748479982717228  1.0000
  H   H36       1.0  0.6342955906040403  0.9806035745575983  0.12875550685274814  1.0000
  H   H37       1.0  0.43908620276324944  0.9304964135372487  0.0448037559369396  1.0000
  H   H38       1.0  0.5483241416395117  0.08103294103244002  0.33717068191454297  1.0000
  C   C1        1.0  0.8661948624638783  0.3101431523659742  0.0014072553147315104  1.0000
  C   C2        1.0  0.18732071967063746  0.34779531223477994  0.010068591266652008  1.0000
  C   C3        1.0  0.17210248953107052  0.30702739445894184  0.8902184389569001  1.0000
  C   C4        1.0  0.9401719319104346  0.376621346585857  0.21285836113271014  1.0000
  C   C5        1.0  0.8129411958150569  0.5094581356353132  0.2333318310969048  1.0000
  C   C6        1.0  0.9266601196093164  0.6242563596490031  0.1654302581691738  1.0000
  C   C7        1.0  0.5975167466974797  0.5091044353401485  0.1978838255243289  1.0000
  C   C8        1.0  0.8759491473125606  0.24825411823153593  0.7773067508578605  1.0000
  C   C9        1.0  0.7480790734088457  0.3723949079083653  0.7333539657210507  1.0000
  C   C10       1.0  0.7435829394946081  0.12964005099324544  0.8108088428949217  1.0000
  C   C11       1.0  0.8692448197738044  0.010950657608788099  0.8617716773870256  1.0000
  C   C12       1.0  0.6492413613163278  0.09633141085032551  0.6924560404756619  1.0000
  C   C13       1.0  0.3326722933752677  0.8234728024334077  0.495908624785713  1.0000
  C   C14       1.0  0.6564144639793599  0.8507534356214919  0.4300860893912741  1.0000
  C   C15       1.0  0.6454937726940956  0.7341347037407785  0.5014662987573502  1.0000
  C   C16       1.0  0.3641554365319521  0.6055217528274  0.6189995242699878  1.0000
  C   C17       1.0  0.25060900866234453  0.640849362777054  0.7516786788278152  1.0000
  C   C18       1.0  0.3677342185176329  0.7338933529047368  0.8198178527999714  1.0000
  C   C19       1.0  0.0295311731947479  0.6904992874244372  0.7483046537054392  1.0000
  C   C20       1.0  0.23130907321305472  0.5284669588695862  0.5442457242843375  1.0000
  C   C21       1.0  0.3300871054098664  0.008598757201355103  0.2300453048268878  1.0000
  C   C22       1.0  0.12860847161290684  0.9436623191881783  0.24590846823791415  1.0000
  C   C23       1.0  0.4899903848282889  0.9332857272812731  0.139773005939503  1.0000
  C   C24       1.0  0.40718001560792066  0.02991769366907701  0.35967883080641627  1.0000
  C   C25       1.0  0.2573769506450319  0.11980974268956858  0.4443842949547516  1.0000
  C   C26       1.0  0.8310674098820598  0.2586402216916994  0.2835926462829477  1.0000
  N   N1        1.0  0.9949547424652752  0.3491416127294116  0.0777037131143814  1.0000
  N   N2        1.0  0.9705972642733302  0.28409526863631385  0.8875629174740067  1.0000
  N   N3        1.0  0.4421854470122496  0.719486711857755  0.5418621597121955  1.0000
  N   N4        1.0  0.4605393938058739  0.905067611045709  0.4279572733715398  1.0000
  O   O1        1.0  0.7826222380332697  0.4147478132354864  0.6154425054607342  1.0000
  O   O2        1.0  0.6171380170633398  0.4233598794126935  0.814424774668744  1.0000
  O   O3        1.0  0.20281586734743942  0.4112989008635565  0.594639027609766  1.0000
  O   O4        1.0  0.15589142685707463  0.579569433495287  0.4489852025389353  1.0000
  O   O5        1.0  0.23177333279792123  0.2372200165515821  0.3924807735350342  1.0000
  O   O6        1.0  0.17100165857305433  0.07888067679206051  0.5498829700030753  1.0000
  O   O7        1.0  0.8155644547030007  0.25473289841640684  0.406379367855159  1.0000
  O   O8        1.0  0.7585965084307419  0.17720024064868772  0.2203730919507052  1.0000
