data_image0
_chemical_formula_structural       Zn2H13C22Br3N2O8
_chemical_formula_sum              "Zn2 H13 C22 Br3 N2 O8"
_cell_length_a       9.706905669418374
_cell_length_b       11.262270118648326
_cell_length_c       11.122474454125738
_cell_angle_alpha    87.76570487113302
_cell_angle_beta     90.94652592056126
_cell_angle_gamma    107.93260527904327

_space_group_name_H-M_alt    "P 1"
_space_group_IT_number       1

loop_
  _space_group_symop_operation_xyz
  'x, y, z'

loop_
  _atom_site_type_symbol
  _atom_site_label
  _atom_site_symmetry_multiplicity
  _atom_site_fract_x
  _atom_site_fract_y
  _atom_site_fract_z
  _atom_site_occupancy
  Zn  Zn1       1.0  0.35702338198967  0.48034613823721645  0.5055135242654316  1.0000
  Zn  Zn2       1.0  0.6556470968597878  0.5270030455862837  0.5071563161046839  1.0000
  H   H1        1.0  0.6240891583942981  0.12228316558928756  0.5094868944782859  1.0000
  H   H2        1.0  0.6984774712816062  0.6515701857080317  0.11781912652182307  1.0000
  H   H3        1.0  0.7047294990603418  0.6514421680707657  0.8949861202938435  1.0000
  H   H4        1.0  0.16535556699049178  0.3243240913289185  0.8940751201624194  1.0000
  H   H5        1.0  0.27713203866109376  0.22413436718422736  0.8936514240076577  1.0000
  H   H6        1.0  0.2792605495253823  0.22017056775463578  0.12099374608551729  1.0000
  H   H7        1.0  0.8517362055930204  0.43781975363619813  0.6793418616541018  1.0000
  H   H8        1.0  0.10493894940677254  0.4191114064979688  0.6770087491221233  1.0000
  H   H9        1.0  0.14861234733369602  0.5484158538923085  0.22374448302760896  1.0000
  H   H10       1.0  0.9586404839885816  0.7143403767171537  0.2841742568773498  1.0000
  H   H11       1.0  0.8919046655747136  0.5608107108282498  0.22556260987297347  1.0000
  H   H12       1.0  0.30422907548415884  0.07252093100605352  0.5770423558089703  1.0000
  H   H13       1.0  0.6921726004672307  0.9450284917225746  0.4781568934815538  1.0000
  C   C1        1.0  0.4994046996645167  0.5029758357444224  0.27117201326349516  1.0000
  C   C2        1.0  0.9223841709448591  0.47072768295938533  0.6018640703011897  1.0000
  C   C3        1.0  0.06214069791256803  0.46032750119172766  0.6004825917332539  1.0000
  C   C4        1.0  0.5790456067092079  0.7468303356733514  0.5081153315556151  1.0000
  C   C5        1.0  0.09736237119199127  0.553761276770004  0.4158783685212839  1.0000
  C   C6        1.0  0.12620368696318707  0.6099699554798832  0.28944307736468033  1.0000
  C   C7        1.0  0.9663630164216812  0.6191766347423312  0.2906734973775471  1.0000
  C   C8        1.0  0.5065746130723028  0.501213724758884  0.7428018466328865  1.0000
  C   C9        1.0  0.4430794593586354  0.2604368360424658  0.5275701112388873  1.0000
  C   C10       1.0  0.5906351425997655  0.880788517204671  0.5127254303643696  1.0000
  C   C11       1.0  0.4920705116992678  0.9332148138330538  0.5521333820295665  1.0000
  C   C12       1.0  0.4989629598183853  0.5015282329123992  0.1368403150233917  1.0000
  C   C13       1.0  0.4149875212621906  0.12485953107746182  0.5520902900834272  1.0000
  C   C14       1.0  0.5155661293628312  0.06654843721582893  0.5388355352016774  1.0000
  C   C15       1.0  0.39041968530441545  0.4192683464021416  0.06976485130246599  1.0000
  C   C16       1.0  0.6119054519671961  0.5847877919055904  0.06935497038707439  1.0000
  C   C17       1.0  0.6155639208140399  0.5846905808793254  0.943657035388199  1.0000
  C   C18       1.0  0.5058965465204038  0.5009542441808181  0.8770638977070888  1.0000
  C   C19       1.0  0.394173456876274  0.41928098575890993  0.9442415440599489  1.0000
  C   C20       1.0  0.2611093339815582  0.3062264530584287  0.9344886133383241  1.0000
  C   C21       1.0  0.2615261837518901  0.30254310089264896  0.0760351986450445  1.0000
  C   C22       1.0  0.95705497215215  0.562215776197256  0.41638555531282856  1.0000
  Br  Br1       1.0  0.27722593501943044  0.7702284589299072  0.2703261901470809  1.0000
  Br  Br2       1.0  0.31561055202585914  0.8378281768744101  0.628086920652521  1.0000
  Br  Br3       1.0  0.07848153347325848  0.3101054602086109  0.14651164612104847  1.0000
  N   N1        1.0  0.866197625007608  0.5209626620250561  0.5075248466317318  1.0000
  N   N2        1.0  0.1524185628317198  0.5005667523741693  0.5052541567454938  1.0000
  O   O1        1.0  0.3770254993803021  0.48052512938068065  0.3215375063305004  1.0000
  O   O2        1.0  0.6220436557109679  0.5264375731209797  0.32377638520474505  1.0000
  O   O3        1.0  0.45274785957982294  0.6683205816495461  0.5094156719666714  1.0000
  O   O4        1.0  0.6970606630488589  0.7199503150139963  0.5003512829359522  1.0000
  O   O5        1.0  0.3828514103592937  0.47289915540022787  0.6919556287272286  1.0000
  O   O6        1.0  0.6290253239828728  0.5293947332584069  0.6906903290971087  1.0000
  O   O7        1.0  0.3295158431090782  0.29479498337473586  0.5163914958588407  1.0000
  O   O8        1.0  0.5736385678369657  0.3316206756975363  0.5198732163337638  1.0000
