data_image0
_chemical_formula_structural       Zn8H24C50I8O26
_chemical_formula_sum              "Zn8 H24 C50 I8 O26"
_cell_length_a       18.345813061651466
_cell_length_b       18.34571291569211
_cell_length_c       18.316084773007184
_cell_angle_alpha    119.59692235377153
_cell_angle_beta     119.73317924622876
_cell_angle_gamma    90.67332533430006

_space_group_name_H-M_alt    "P 1"
_space_group_IT_number       1

loop_
  _space_group_symop_operation_xyz
  'x, y, z'

loop_
  _atom_site_type_symbol
  _atom_site_label
  _atom_site_symmetry_multiplicity
  _atom_site_fract_x
  _atom_site_fract_y
  _atom_site_fract_z
  _atom_site_occupancy
  Zn  Zn1       1.0  0.2062915584131918  0.2934398940002153  0.910838311833743  1.0000
  Zn  Zn2       1.0  0.792981069906937  0.7042368552101763  0.9125680208314436  1.0000
  Zn  Zn3       1.0  0.2083291972766477  0.11957857810561733  0.9125646700872708  1.0000
  Zn  Zn4       1.0  0.20746416205860652  0.2948130527144528  0.08593776789026465  1.0000
  Zn  Zn5       1.0  0.7911269225820164  0.878477890504726  0.08594083619715331  1.0000
  Zn  Zn6       1.0  0.3825566459250781  0.29262695733864763  0.08634109648298251  1.0000
  Zn  Zn7       1.0  0.7937163137704888  0.7037845240304321  0.08634106109333595  1.0000
  Zn  Zn8       1.0  0.6173991243138633  0.7045448876101547  0.9108343189969407  1.0000
  H   H1        1.0  0.5722498135343983  0.4704868309802137  0.12938764122012  1.0000
  H   H2        1.0  0.40628879992129235  0.36173438721532847  0.8584988035938538  1.0000
  H   H3        1.0  0.49676833926079694  0.4522096990060333  0.8585013266512221  1.0000
  H   H4        1.0  0.5929239228027686  0.4521265136352852  0.9545896249516874  1.0000
  H   H5        1.0  0.5024571132203951  0.36166200313626706  0.9545844642824904  1.0000
  H   H6        1.0  0.04787503595765232  0.44811774317239633  0.1133035085228045  1.0000
  H   H7        1.0  0.33500960205734764  0.4427297205150538  0.4016367959377477  1.0000
  H   H8        1.0  0.9588614137760488  0.06663464061856672  0.40163959818689693  1.0000
  H   H9        1.0  0.34139717455099866  0.47106388973553953  0.8990978573927749  1.0000
  H   H10       1.0  0.6651852334541817  0.06542936903405659  0.11329947307282849  1.0000
  H   H11       1.0  0.9495353430317197  0.5421830037967793  0.11290973084906845  1.0000
  H   H12       1.0  0.4313420733876046  0.5410174287957616  0.5948439246589105  1.0000
  H   H13       1.0  0.05377921527912844  0.1635077531005749  0.5948489354052526  1.0000
  H   H14       1.0  0.5707260210790326  0.163374805007706  0.1129106443825378  1.0000
  H   H15       1.0  0.4280308601885568  0.5576918896679146  0.8990928078398567  1.0000
  H   H16       1.0  0.9556072654029679  0.5529120293266204  0.8868487268314527  1.0000
  H   H17       1.0  0.6655942800303694  0.5583350538350444  0.595817576796911  1.0000
  H   H18       1.0  0.0375361147173835  0.930221676227305  0.5958197475371066  1.0000
  H   H19       1.0  0.3339374638912676  0.93123719978189  0.8868529193403348  1.0000
  H   H20       1.0  0.6589023721627145  0.5571441131934519  0.12939406187851435  1.0000
  H   H21       1.0  0.05445705119393574  0.4593010596028718  0.8877119400164589  1.0000
  H   H22       1.0  0.5692243445064948  0.4605499963927572  0.402591453451386  1.0000
  H   H23       1.0  0.9420960355490992  0.8333650769796819  0.4025926553210867  1.0000
  H   H24       1.0  0.4284141693121416  0.8332516889624912  0.8877146633172047  1.0000
  C   C1        1.0  0.3906224011216399  0.11089186135738072  0.998384869946513  1.0000
  C   C2        1.0  0.5538836604734886  0.5549144099585702  0.6061898886796371  1.0000
  C   C3        1.0  0.5403224803683601  0.09106510544224022  0.06381162731253918  1.0000
  C   C4        1.0  0.051276299472441327  0.05230640274864133  0.6061906965342062  1.0000
  C   C5        1.0  0.4469634381481671  0.052793369667028876  0.9994456777844433  1.0000
  C   C6        1.0  0.9466471459808408  0.5524794194659962  0.9994422017845467  1.0000
  C   C7        1.0  0.9761369405853064  0.5294499897612256  0.93593897186112  1.0000
  C   C8        1.0  0.593190731182823  0.5326142561114295  0.5524915621452778  1.0000
  C   C9        1.0  0.019909464810609817  0.9592994283336436  0.5524918854696068  1.0000
  C   C10       1.0  0.10873478232615276  0.11014778368975442  0.7211110246682113  1.0000
  C   C11       1.0  0.40648883635735467  0.9598016719780276  0.9359433488087846  1.0000
  C   C12       1.0  0.03080187275592319  0.47754534754034955  0.9363435988653421  1.0000
  C   C13       1.0  0.5398702788605835  0.4783047693861846  0.44554263434042  1.0000
  C   C14       1.0  0.9672754389767282  0.9056705845979283  0.44554460217129604  1.0000
  C   C15       1.0  0.4588005925250944  0.9055394054967391  0.9363453319970176  1.0000
  C   C16       1.0  0.6109632972904039  0.6123775866678046  0.7211084454973433  1.0000
  C   C17       1.0  0.056391985490996915  0.44811925529455715  0.0002488052459597201  1.0000
  C   C18       1.0  0.4467721718455382  0.4456391021018433  0.39134073576109785  1.0000
  C   C19       1.0  0.9457093273747578  0.9445747830126052  0.3913435201907663  1.0000
  C   C20       1.0  0.5521261266978287  0.9438552357617738  0.00024568019981073146  1.0000
  C   C21       1.0  0.8874853028730035  0.607755601420948  0.9983799578291228  1.0000
  C   C22       1.0  0.08906260256475924  0.0508923596031181  0.08551207452003243  1.0000
  C   C23       1.0  0.034620201949685715  0.9964513616609163  0.08551343178040581  1.0000
  C   C24       1.0  0.9457096818583897  0.9457872985808604  0.9998795788674216  1.0000
  C   C25       1.0  0.05409080929626978  0.0541673091157193  0.9998761658501679  1.0000
  C   C26       1.0  0.9107756961813896  0.9489916195773132  0.914215847132944  1.0000
  C   C27       1.0  0.9652232713257625  0.003437698741699342  0.9142136488156187  1.0000
  C   C28       1.0  0.11424791992439515  0.3914801678215055  0.0002556159430043274  1.0000
  C   C29       1.0  0.38946438370576436  0.38674085526627516  0.2764376328725575  1.0000
  C   C30       1.0  0.8897018577560375  0.8869749130375411  0.27644103895294575  1.0000
  C   C31       1.0  0.6087799934044825  0.8860108969390977  0.00025652841057426215  1.0000
  C   C32       1.0  0.11268886408514361  0.11261171407917905  0.9997803215592854  1.0000
  C   C33       1.0  0.8871697001906756  0.8870935791389908  0.9997833240701793  1.0000
  C   C34       1.0  0.39013099752380503  0.3936400226712919  0.0036349134021449346  1.0000
  C   C35       1.0  0.6099977666575711  0.6135060709186958  0.003640813251323064  1.0000
  C   C36       1.0  0.5409108690772728  0.5182382002497121  0.11954075887671696  1.0000
  C   C37       1.0  0.39937122045556395  0.5185822985264038  0.9783421562616257  1.0000
  C   C38       1.0  0.45975839723116985  0.5789687777528129  0.9783393398452205  1.0000
  C   C39       1.0  0.6013011588277453  0.5786321351233709  0.11954304044090253  1.0000
  C   C40       1.0  0.46992964086525335  0.4050648539880725  0.9345749190842555  1.0000
  C   C41       1.0  0.5295112439629156  0.4646457128129455  0.9345768298543649  1.0000
  C   C42       1.0  0.4492179645042  0.46361546922297237  0.014677229143778428  1.0000
  C   C43       1.0  0.551061270025855  0.5654596735119171  0.01467646635150307  1.0000
  C   C44       1.0  0.027261869105323928  0.47150202422056964  0.06412921323411071  1.0000
  C   C45       1.0  0.4074129762099761  0.46832394987049497  0.4450110782159058  1.0000
  C   C46       1.0  0.9766656927605555  0.0376037215332943  0.44501704013719484  1.0000
  C   C47       1.0  0.5926291097941673  0.036867152000560656  0.06412884425063953  1.0000
  C   C48       1.0  0.9727455085857885  0.523487838593624  0.06381105169226235  1.0000
  C   C49       1.0  0.46070848227795863  0.5227230587319125  0.5518826853539167  1.0000
  C   C50       1.0  0.02913496704474045  0.09117851939323167  0.5518856053130109  1.0000
  I   I1        1.0  0.5346524217385848  0.5783549755054623  0.2526624327328407  1.0000
  I   I2        1.0  0.08263903873497476  0.9869882583055156  0.2103042239384578  1.0000
  I   I3        1.0  0.22331859592125625  0.1276618625511077  0.21029908240531373  1.0000
  I   I4        1.0  0.776748984233834  0.8717462569850483  0.7889916526668516  1.0000
  I   I5        1.0  0.9172434316490558  0.012232470600906827  0.7889845994937519  1.0000
  I   I6        1.0  0.32739092517696383  0.5788456232867886  0.04584288970941937  1.0000
  I   I7        1.0  0.46698841040147  0.71844775721069  0.04582808052575161  1.0000
  I   I8        1.0  0.6742960833369482  0.7180123515715308  0.2526670006489766  1.0000
  O   O1        1.0  0.2515132237639438  0.2505709082045584  0.9990268613159757  1.0000
  O   O2        1.0  0.13547615701098453  0.19411824730330812  0.7647686258625727  1.0000
  O   O3        1.0  0.5706496013279011  0.6292846137728033  0.7647659835589454  1.0000
  O   O4        1.0  0.8680074468945949  0.6318434986219472  0.06306777228875411  1.0000
  O   O5        1.0  0.13189672092286767  0.3651715177081059  0.9338521594328456  1.0000
  O   O6        1.0  0.4294333999119788  0.367607791371256  0.23231605560163626  1.0000
  O   O7        1.0  0.8647235368926194  0.8028837822671945  0.232319135695626  1.0000
  O   O8        1.0  0.5686825725919822  0.8019527432261951  0.9338506596580843  1.0000
  O   O9        1.0  0.7484556304672415  0.747516151441353  0.9990298990641481  1.0000
  O   O10       1.0  0.12665458673186  0.07097992828828843  0.7663200433038284  1.0000
  O   O11       1.0  0.30634121138972875  0.07174270050170856  0.932602917629616  1.0000
  O   O12       1.0  0.860855531568284  0.6262614203422457  0.932603888200184  1.0000
  O   O13       1.0  0.6953398951797712  0.6396784043034528  0.7663216157425056  1.0000
  O   O14       1.0  0.3051637021804155  0.36019463546098507  0.23193308702941112  1.0000
  O   O15       1.0  0.14112705481121426  0.3737949760102878  0.0667329071354885  1.0000
  O   O16       1.0  0.6929383613468832  0.9256077184000445  0.06672856436588175  1.0000
  O   O17       1.0  0.8717345969873027  0.9267729792843723  0.23193495210865947  1.0000
  O   O18       1.0  0.14761969152233725  0.07353569047242567  0.9528789893434749  1.0000
  O   O19       1.0  0.87934120381393  0.8052605809289943  0.9528831140005212  1.0000
  O   O20       1.0  0.4303927936943454  0.3648910283942755  0.058005476822991446  1.0000
  O   O21       1.0  0.3069005147201837  0.3655821432212959  0.935205643743558  1.0000
  O   O22       1.0  0.5696254079729218  0.6282994780957409  0.9352009410448476  1.0000
  O   O23       1.0  0.693115118151937  0.6276259009926906  0.05802084620770394  1.0000
  O   O24       1.0  0.12081027155123544  0.19452000989534923  0.04657063464168943  1.0000
  O   O25       1.0  0.4312194690645087  0.1950574399797489  0.0630771706181932  1.0000
  O   O26       1.0  0.8520550688180608  0.9257672791939983  0.046578743403152864  1.0000
