data_image0
_chemical_formula_structural       NiH46C44N4O10
_chemical_formula_sum              "Ni1 H46 C44 N4 O10"
_cell_length_a       7.65336200256851
_cell_length_b       10.087467262418063
_cell_length_c       12.86
_cell_angle_alpha    92.71156706044927
_cell_angle_beta     100.02840655859838
_cell_angle_gamma    93.81998100325922

_space_group_name_H-M_alt    "P 1"
_space_group_IT_number       1

loop_
  _space_group_symop_operation_xyz
  'x, y, z'

loop_
  _atom_site_type_symbol
  _atom_site_label
  _atom_site_symmetry_multiplicity
  _atom_site_fract_x
  _atom_site_fract_y
  _atom_site_fract_z
  _atom_site_occupancy
  Ni  Ni1       1.0  0.9999962491691435  0.9999981393355739  2.497139540524677e-06  1.0000
  H   H1        1.0  0.2820242238644326  0.7502715729504672  0.4141575203435792  1.0000
  H   H2        1.0  0.7179786597453204  0.24972656638511387  0.5858417763225106  1.0000
  H   H3        1.0  0.10578121525678341  0.1136613746900039  0.8058661789110529  1.0000
  H   H4        1.0  0.8942202401861223  0.8863357693184997  0.19413526562841812  1.0000
  H   H5        1.0  0.11315404815110951  0.9617716079082399  0.82388253237891  1.0000
  H   H6        1.0  0.8868406715724577  0.0382245407731929  0.17611973238781786  1.0000
  H   H7        1.0  0.177680904159061  0.4093163133654585  0.2983447912493772  1.0000
  H   H8        1.0  0.8223190115735833  0.5906917792408138  0.7016569000134538  1.0000
  H   H9        1.0  0.4436893184321137  0.5530236262994066  0.38285777632843576  1.0000
  H   H10       1.0  0.5563142741287237  0.44698148032565405  0.6171387419366141  1.0000
  H   H11       1.0  0.7812458530097999  0.2851811119241674  0.2560289929616816  1.0000
  H   H12       1.0  0.21874345788255317  0.7148140414302021  0.7439695639127207  1.0000
  H   H13       1.0  0.5137652772532634  0.14575768669691064  0.16683189904170348  1.0000
  H   H14       1.0  0.4862203568108968  0.8542404526386635  0.8331702756205317  1.0000
  H   H15       1.0  0.767630588765151  0.580030831000478  0.44121425194973796  1.0000
  H   H16       1.0  0.23236933723217856  0.4199643223538914  0.5587830721920284  1.0000
  H   H17       1.0  0.9054145886704178  0.4614824003997243  0.4016361157838659  1.0000
  H   H18       1.0  0.0945839091600646  0.5385117576275747  0.5983618010213262  1.0000
  H   H19       1.0  0.8640456451059251  0.5527578739718777  0.2191963645735129  1.0000
  H   H20       1.0  0.13595591161570306  0.44724026536369627  0.7808035721872669  1.0000
  H   H21       1.0  0.7377703255247143  0.676880136161266  0.26229610963180516  1.0000
  H   H22       1.0  0.26223398625188576  0.3231189985013785  0.7377057047907697  1.0000
  H   H23       1.0  0.3738579799874984  0.9856833454234818  0.029023965181217203  1.0000
  H   H24       1.0  0.6261362230777507  0.0143207658745084  0.9709777639203805  1.0000
  H   H25       1.0  0.5907478469415537  0.8113438466017089  0.048355014497509806  1.0000
  H   H26       1.0  0.4092520687910906  0.18866424600455642  0.9516451215553585  1.0000
  H   H27       1.0  0.14743959485619476  0.5251106739651874  0.0555723028407513  1.0000
  H   H28       1.0  0.8525714526397509  0.4748894560245276  0.9444263585396299  1.0000
  H   H29       1.0  0.9499736511467916  0.7132563545665889  0.03583568572232562  1.0000
  H   H30       1.0  0.050027601738655406  0.2867387987877805  0.9641656639546098  1.0000
  H   H31       1.0  0.6483159000296155  0.5836209757397981  0.07553300307559138  1.0000
  H   H32       1.0  0.3516905488649159  0.41638612153940363  0.9244615522576252  1.0000
  H   H33       1.0  0.4863265570013767  0.47307796075822495  0.1149994787978983  1.0000
  H   H34       1.0  0.5136832648851667  0.5269231645585606  0.8849967596885405  1.0000
  H   H35       1.0  0.36251651174531224  0.8638961205389039  0.26878024190740746  1.0000
  H   H36       1.0  0.637480547653638  0.1361099814132274  0.7312210794723126  1.0000
  H   H37       1.0  0.6686077306645828  0.9819160324658043  0.27955146962505484  1.0000
  H   H38       1.0  0.33138963257054144  0.018093055467531403  0.7204499940484651  1.0000
  H   H39       1.0  0.7886802424884252  0.8704204894788106  0.6040589600668724  1.0000
  H   H40       1.0  0.21132264112132762  0.1295776498567633  0.3959403365992245  1.0000
  H   H41       1.0  0.48263313731388996  0.7570069512290871  0.5772377355146004  1.0000
  H   H42       1.0  0.5173694424596889  0.24298820212528235  0.42276141885768936  1.0000
  H   H43       1.0  0.9762478315562717  0.0015437522846398  0.37814389612936583  1.0000
  H   H44       1.0  0.023754029001537412  0.998457373032146  0.6218577381351622  1.0000
  H   H45       1.0  0.9085050055861005  0.1242655892873827  0.4610888699723076  1.0000
  H   H46       1.0  0.0914969562504311  0.8757365313564733  0.5389128117234917  1.0000
  C   C1        1.0  0.1647357033665315  0.183356166743458  0.17437162486385194  1.0000
  C   C2        1.0  0.8352525844738707  0.816641972592123  0.8256331576338807  1.0000
  C   C3        1.0  0.32758609883300954  0.2694479769381815  0.2249556133762098  1.0000
  C   C4        1.0  0.6724053491772681  0.7305551390327452  0.7750465708785157  1.0000
  C   C5        1.0  0.30968273452954526  0.38404794505463263  0.2870877245254917  1.0000
  C   C6        1.0  0.6903185080912169  0.6159601475516396  0.7129141042476164  1.0000
  C   C7        1.0  0.4601666661121231  0.4641817274119333  0.3351293779575996  1.0000
  C   C8        1.0  0.5398326419481665  0.5358203932319228  0.6648720287176246  1.0000
  C   C9        1.0  0.6317649689863317  0.4308233406810302  0.3247323934034725  1.0000
  C   C10       1.0  0.3682354634046304  0.5691767893086848  0.6752628350796925  1.0000
  C   C11       1.0  0.6490113313687829  0.31427850347097325  0.2641583122699628  1.0000
  C   C12       1.0  0.3509756295835019  0.6857196358646007  0.7358370014577672  1.0000
  C   C13       1.0  0.4986306500270673  0.23548542667614922  0.21390650446445386  1.0000
  C   C14       1.0  0.5013592685376338  0.7645156986406292  0.7860931146025221  1.0000
  C   C15       1.0  0.7935654948631169  0.520511267577497  0.37242423133790936  1.0000
  C   C16       1.0  0.20643749002536543  0.4794878670851475  0.6275743351544705  1.0000
  C   C17       1.0  0.8455600730119244  0.6130746943774527  0.2898408493873461  1.0000
  C   C18       1.0  0.15444566693152245  0.38692543561226245  0.7101580395568732  1.0000
  C   C19       1.0  0.016957210740365304  0.7012288222599707  0.3242495399566748  1.0000
  C   C20       1.0  0.9830481240881783  0.2987673264214621  0.6757514920774028  1.0000
  C   C21       1.0  0.3308322512567301  0.8817921012466955  0.034069804055207015  1.0000
  C   C22       1.0  0.669164504306039  0.11821101472423122  0.9659298198207579  1.0000
  C   C23       1.0  0.44952857553719383  0.7830347540938689  0.04418342389276831  1.0000
  C   C24       1.0  0.5504708338018247  0.21696836187705773  0.9558156973987905  1.0000
  C   C25       1.0  0.3867306814850052  0.6504532071416591  0.0490300018245549  1.0000
  C   C26       1.0  0.6132738328490532  0.3495479181751264  0.9509695746456188  1.0000
  C   C27       1.0  0.2038041206483783  0.6255292219968425  0.0476500848911101  1.0000
  C   C28       1.0  0.7962052961232617  0.374467922011668  0.9523506295001167  1.0000
  C   C29       1.0  0.09248453338962292  0.7292343400116508  0.03745111214664121  1.0000
  C   C30       1.0  0.9075182489414079  0.2707628039968597  0.962550469903114  1.0000
  C   C31       1.0  0.5104852811667656  0.5405352575596609  0.053546829965903  1.0000
  C   C32       1.0  0.4895234163891048  0.4594678584112586  0.9464501434777616  1.0000
  C   C33       1.0  0.4645519453606895  0.8700940222000498  0.3398139384734762  1.0000
  C   C34       1.0  0.5354470588634186  0.12990511246259473  0.6601873259079553  1.0000
  C   C35       1.0  0.6304523385185663  0.9370247909817806  0.3485643972308736  1.0000
  C   C36       1.0  0.3695454400961539  0.0629753390079344  0.6514344442566014  1.0000
  C   C37       1.0  0.7003321395988708  0.8735249146082682  0.5281909516562919  1.0000
  C   C38       1.0  0.2996745221177975  0.12647123407317204  0.47180710746817306  1.0000
  C   C39       1.0  0.5315643138458273  0.8092019027483631  0.5148038646388073  1.0000
  C   C40       1.0  0.46844132481889744  0.19079723191428147  0.48519653208409597  1.0000
  C   C41       1.0  0.7524822714999077  0.9406109544128257  0.4443399972214408  1.0000
  C   C42       1.0  0.2475182621697769  0.0593901709039599  0.5556576115079253  1.0000
  C   C43       1.0  0.9300678685100011  0.0172022377404204  0.45374087519624595  1.0000
  C   C44       1.0  0.06993123699283643  0.9827978922492947  0.5462596590114757  1.0000
  N   N1        1.0  0.15416788245484983  0.8559743123935564  0.028566190762234107  1.0000
  N   N2        1.0  0.8458283667142866  0.14402382694201782  0.9714355287723322  1.0000
  N   N3        1.0  0.41817606037520255  0.808363837355934  0.4225755789165574  1.0000
  N   N4        1.0  0.5818258001826069  0.1916372879608517  0.5774268329529519  1.0000
  O   O1        1.0  0.18092059857055184  0.11963731841467513  0.0869192324936918  1.0000
  O   O2        1.0  0.8190729968223424  0.880360820920899  0.9130829896252805  1.0000
  O   O3        1.0  0.029200592210877105  0.17875178372041492  0.21737948861056816  1.0000
  O   O4        1.0  0.9707945326275933  0.8212483462693001  0.7826198554613126  1.0000
  O   O5        1.0  0.04765667502516639  0.7984095713348722  0.26983512053440956  1.0000
  O   O6        1.0  0.9523452868113724  0.2015925493089838  0.7301657835564157  1.0000
  O   O7        1.0  0.12479466678927052  0.6691494308132492  0.4058295718272689  1.0000
  O   O8        1.0  0.8752066873749059  0.3308467178681909  0.5941694924660013  1.0000
  O   O9        1.0  0.1830470969806726  0.048863591817998  0.843783111114753  1.0000
  O   O10       1.0  0.8169527277379345  0.9511305662093009  0.1562172760156528  1.0000
