data_image0
_chemical_formula_structural       Nd2H30C44S4N4O16
_chemical_formula_sum              "Nd2 H30 C44 S4 N4 O16"
_cell_length_a       8.88763610794196
_cell_length_b       11.876220535287441
_cell_length_c       12.709825337857682
_cell_angle_alpha    105.83969772973539
_cell_angle_beta     108.76027722222676
_cell_angle_gamma    100.15133388554612

_space_group_name_H-M_alt    "P 1"
_space_group_IT_number       1

loop_
  _space_group_symop_operation_xyz
  'x, y, z'

loop_
  _atom_site_type_symbol
  _atom_site_label
  _atom_site_symmetry_multiplicity
  _atom_site_fract_x
  _atom_site_fract_y
  _atom_site_fract_z
  _atom_site_occupancy
  Nd  Nd1       1.0  0.542940949613957  0.42469217619592575  0.3563115020876565  1.0000
  Nd  Nd2       1.0  0.4570610784209563  0.5753102502847298  0.6436903643636426  1.0000
  H   H1        1.0  0.8798870005342893  0.300339314135023  0.7764779767143111  1.0000
  H   H2        1.0  0.12011358317349162  0.6996594423696366  0.2235233734414734  1.0000
  H   H3        1.0  0.8069153251944955  0.12067630818393842  0.844756431521098  1.0000
  H   H4        1.0  0.19308136278956312  0.8793215338943695  0.15524296703872403  1.0000
  H   H5        1.0  0.3248057478525581  0.8578954855875054  0.650169130526386  1.0000
  H   H6        1.0  0.6751877253148848  0.14210325860456413  0.34982974046978643  1.0000
  H   H7        1.0  0.2444843598933915  0.9774002079302946  0.517473204721476  1.0000
  H   H8        1.0  0.7555161242617032  0.0226013000291445  0.4825280546913077  1.0000
  H   H9        1.0  0.29898209487534183  0.1631332357217872  0.4727207445685905  1.0000
  H   H10       1.0  0.7010187159811565  0.8368691743584191  0.5272816154885476  1.0000
  H   H11       1.0  0.9256580497858027  0.6275527115209983  0.5050658856333285  1.0000
  H   H12       1.0  0.07434192560229043  0.3724506088766901  0.49493651416123896  1.0000
  H   H13       1.0  0.1016068269472542  0.8252367146222996  0.525145263287392  1.0000
  H   H14       1.0  0.8983940389178571  0.17476572005507762  0.47485554225699633  1.0000
  H   H15       1.0  0.005969628225734795  0.9164243604133728  0.36614150886200036  1.0000
  H   H16       1.0  0.99403225517338  0.08357444938749842  0.6338570159188349  1.0000
  H   H17       1.0  0.7850579046780481  0.9028158786855301  0.17712260578630185  1.0000
  H   H18       1.0  0.2149453779650727  0.0971802329567808  0.822873184362571  1.0000
  H   H19       1.0  0.5059855424199642  0.7992452060095876  0.020703992930727236  1.0000
  H   H20       1.0  0.49401803942025413  0.20075179545489877  0.9792936751188674  1.0000
  H   H21       1.0  0.24367363994485203  0.6229722692227638  0.9273699797734805  1.0000
  H   H22       1.0  0.7563277071829547  0.3770283407177716  0.07263046264550618  1.0000
  H   H23       1.0  0.0894681273350741  0.42531127161559107  0.9240625763479925  1.0000
  H   H24       1.0  0.9105311396416128  0.5746902199433989  0.07593917667063005  1.0000
  H   H25       1.0  0.22167656989678622  0.34204977461246244  0.08169534259312168  1.0000
  H   H26       1.0  0.7783227245842068  0.6579517292451129  0.918305633169126  1.0000
  H   H27       1.0  0.8301123342475165  0.3881692600695176  0.267841837969378  1.0000
  H   H28       1.0  0.16988671604499217  0.6118313785630604  0.732155705379405  1.0000
  H   H29       1.0  0.6785735457629729  0.2588636729650132  0.2085728482168321  1.0000
  H   H30       1.0  0.3214258312309326  0.7411378677883249  0.7914257957762983  1.0000
  C   C1        1.0  0.6966869111018495  0.3403320229487008  0.6460910967969864  1.0000
  C   C2        1.0  0.303310939052011  0.6596658109328786  0.35390936266974643  1.0000
  C   C3        1.0  0.7516208489410091  0.2705262053115121  0.7126899767633006  1.0000
  C   C4        1.0  0.2483782458955659  0.7294716572691086  0.2873092118412258  1.0000
  C   C5        1.0  0.6412242367967238  0.16006184691110548  0.6984637383658876  1.0000
  C   C6        1.0  0.35876959057642216  0.8399378117003167  0.30153545601826437  1.0000
  C   C7        1.0  0.6847603932381644  0.09010415105399262  0.7723436682548197  1.0000
  C   C8        1.0  0.3152398467284457  0.9098964916804422  0.22765415874450676  1.0000
  C   C9        1.0  0.5698652554571595  0.9850786078467589  0.7549654306514737  1.0000
  C   C10       1.0  0.4301273547375716  0.014921034364213905  0.24503425733850998  1.0000
  C   C11       1.0  0.4106856523870803  0.9422990210903279  0.6616121366514774  1.0000
  C   C12       1.0  0.5893113177543015  0.05770249916069759  0.33838671729694875  1.0000
  C   C13       1.0  0.3664395531736914  0.0080158846569276  0.5892821133664012  1.0000
  C   C14       1.0  0.633555463873563  0.9919837780563584  0.4107173646682867  1.0000
  C   C15       1.0  0.477135620366525  0.11955061770650134  0.6069815980115152  1.0000
  C   C16       1.0  0.5228614768318495  0.8804481633883302  0.39301656942352997  1.0000
  C   C17       1.0  0.42485294171104476  0.19242775510814175  0.5399170121130793  1.0000
  C   C18       1.0  0.5751459435556326  0.8075728097329032  0.4600851947739456  1.0000
  C   C19       1.0  0.5279294885867997  0.30582809962464813  0.5627309475918665  1.0000
  C   C20       1.0  0.4720694516884905  0.6941724898135747  0.4372697047824089  1.0000
  C   C21       1.0  0.8858701618777188  0.6692556650925638  0.4383805622070653  1.0000
  C   C22       1.0  0.11412877839756422  0.3307449243456659  0.5616200901672102  1.0000
  C   C23       1.0  0.9850888763271187  0.7806393278462949  0.4485498202199096  1.0000
  C   C24       1.0  0.014914495943195015  0.21936037587861532  0.5514508661121837  1.0000
  C   C25       1.0  0.9322784108249708  0.8298963342282094  0.36141654798591105  1.0000
  C   C26       1.0  0.06772299131144172  0.17010430030951082  0.638582339920326  1.0000
  C   C27       1.0  0.7784753480769809  0.7684742855048156  0.2645672402566674  1.0000
  C   C28       1.0  0.2215273707905396  0.23152361397856672  0.7354312447867243  1.0000
  C   C29       1.0  0.7118669042182972  0.8172422647154176  0.17440641459913309  1.0000
  C   C30       1.0  0.2881358146492233  0.1827556347679717  0.8255920704442657  1.0000
  C   C31       1.0  0.55699298122056  0.7595417501899248  0.08726803740614736  1.0000
  C   C32       1.0  0.44300973764695334  0.24045614929345768  0.9127304476372513  1.0000
  C   C33       1.0  0.4599454684010667  0.6467578045202559  0.08193474186956004  1.0000
  C   C34       1.0  0.540058766841959  0.3532410011857579  0.9180651274687218  1.0000
  C   C35       1.0  0.2990267732999641  0.5844468382791134  0.9937673432798774  1.0000
  C   C36       1.0  0.7009754092962478  0.415552861343933  0.006233059401672775  1.0000
  C   C37       1.0  0.2130610946624714  0.4746256029341538  0.9921074533362242  1.0000
  C   C38       1.0  0.7869398982596324  0.5253740925870289  0.007892665694790127  1.0000
  C   C39       1.0  0.2867740365616456  0.4279335618406109  0.07978977691747251  1.0000
  C   C40       1.0  0.7132253574720339  0.5720651905621851  0.920211289587776  1.0000
  C   C41       1.0  0.5240050420668324  0.5934546558662461  0.16786695841877736  1.0000
  C   C42       1.0  0.47599833020348115  0.4065450478586641  0.8321337279133159  1.0000
  C   C43       1.0  0.6851374976095884  0.6567330269828844  0.26234361126800115  1.0000
  C   C44       1.0  0.3148643307809139  0.34326575822080946  0.7376564680255767  1.0000
  S   S1        1.0  0.8245647160764307  0.47806527585947123  0.6545334114605055  1.0000
  S   S2        1.0  0.17543695775277968  0.5219362362018315  0.34546813160282847  1.0000
  S   S3        1.0  0.6098749829918688  0.8976159443611634  0.848959707972348  1.0000
  S   S4        1.0  0.3901372878870859  0.10238555542255058  0.15104749697132286  1.0000
  N   N1        1.0  0.7402645986752389  0.6089564227469921  0.3483903027965097  1.0000
  N   N2        1.0  0.2597375839209733  0.3910432768760544  0.6516100998850404  1.0000
  N   N3        1.0  0.43689660700884764  0.48616363995107303  0.1663009584396278  1.0000
  N   N4        1.0  0.5631059572973669  0.5138369863899116  0.83369899037352  1.0000
  O   O1        1.0  0.9954959427417902  0.49700049942029517  0.732790704315988  1.0000
  O   O2        1.0  0.004507429528523161  0.502999204304615  0.26720998201609797  1.0000
  O   O3        1.0  0.7556072318227864  0.5767714668247664  0.6986182493262517  1.0000
  O   O4        1.0  0.2443908454797922  0.4232300206323601  0.3013832200418349  1.0000
  O   O5        1.0  0.8048212061436929  0.457332310218206  0.5291776446343944  1.0000
  O   O6        1.0  0.19517859710430227  0.5426673812011131  0.4708221907460767  1.0000
  O   O7        1.0  0.46224205076417507  0.8763538101473076  0.8788080939266081  1.0000
  O   O8        1.0  0.5377497410019245  0.1236439540306051  0.1211940563129161  1.0000
  O   O9        1.0  0.6111154241016339  0.7789001616697676  0.7677652021247141  1.0000
  O   O10       1.0  0.38888536917605177  0.22109589257446058  0.2322331297485718  1.0000
  O   O11       1.0  0.7667318716080729  0.9615068855233345  0.9479437514106761  1.0000
  O   O12       1.0  0.23325834219867403  0.03849553683445351  0.052052946766117686  1.0000
  O   O13       1.0  0.4733351688479601  0.3840384290147228  0.5123630295279326  1.0000
  O   O14       1.0  0.5266660237185548  0.6159649077834146  0.487638876660803  1.0000
  O   O15       1.0  0.7310527277356442  0.34150365397615456  0.2729311435437296  1.0000
  O   O16       1.0  0.26894422536597773  0.6585006546254206  0.7270652878925858  1.0000
