data_image0
_chemical_formula_structural       Na4Zn4H12C36O24
_chemical_formula_sum              "Na4 Zn4 H12 C36 O24"
_cell_length_a       6.898983341337153
_cell_length_b       9.802276495343657
_cell_length_c       12.394757094001037
_cell_angle_alpha    89.99997100551992
_cell_angle_beta     89.9999639269852
_cell_angle_gamma    91.63620510775334

_space_group_name_H-M_alt    "P 1"
_space_group_IT_number       1

loop_
  _space_group_symop_operation_xyz
  'x, y, z'

loop_
  _atom_site_type_symbol
  _atom_site_label
  _atom_site_symmetry_multiplicity
  _atom_site_fract_x
  _atom_site_fract_y
  _atom_site_fract_z
  _atom_site_occupancy
  Na  Na1       1.0  0.9702557448161216  0.35005965134017447  0.7409331986498697  1.0000
  Na  Na2       1.0  0.47025599339081486  0.3500600622958743  0.7590667599446871  1.0000
  Na  Na3       1.0  0.02974524394294781  0.6499405037823108  0.2590666599191564  1.0000
  Na  Na4       1.0  0.5297449953682545  0.6499400928266111  0.2409330986243389  1.0000
  Zn  Zn1       1.0  0.17726900409721943  0.5920321354397372  0.9312492416184238  1.0000
  Zn  Zn2       1.0  0.6772689546190803  0.5920318384942646  0.5687515296080645  1.0000
  Zn  Zn3       1.0  0.8227319846613811  0.40796801968247104  0.06875142374334327  1.0000
  Zn  Zn4       1.0  0.3227305846510049  0.4079683166380334  0.43124913575395124  1.0000
  H   H1        1.0  0.3169769444072301  0.9601276713238035  0.44696696220854887  1.0000
  H   H2        1.0  0.8169769131039503  0.9601273847859491  0.05303337799471558  1.0000
  H   H3        1.0  0.6830225534444452  0.03987146322145921  0.5530328963609461  1.0000
  H   H4        1.0  0.1830240342362401  0.03987174974923139  0.9469664805745236  1.0000
  H   H5        1.0  0.11438113200581058  0.09177835469495219  0.7566747336891024  1.0000
  H   H6        1.0  0.6143809220843934  0.09177896274287889  0.7433246465315971  1.0000
  H   H7        1.0  0.8856184072647366  0.9082218004376087  0.2433251248801794  1.0000
  H   H8        1.0  0.38561861718615387  0.9082211923896891  0.25667521203768456  1.0000
  H   H9        1.0  0.03347170604806142  0.8515267582059637  0.8054984648984839  1.0000
  H   H10       1.0  0.5334715525814319  0.8515273985820353  0.6945022527849571  1.0000
  H   H11       1.0  0.966527791803145  0.14847237633902918  0.19450220046375213  1.0000
  H   H12       1.0  0.4665279866886464  0.14847275655026235  0.3054984125770658  1.0000
  C   C1        1.0  0.1333023910789279  0.7689850712969741  0.655125206434192  1.0000
  C   C2        1.0  0.6333020223156537  0.768984591516748  0.8448738957118915  1.0000
  C   C3        1.0  0.8666956987030974  0.2310150838456764  0.3448746521353455  1.0000
  C   C4        1.0  0.3666974341176115  0.23101352244147924  0.1551251560650754  1.0000
  C   C5        1.0  0.2186684438511719  0.7998031943889214  0.5539638643671976  1.0000
  C   C6        1.0  0.7186694490215046  0.7998036682022943  0.9460343886737302  1.0000
  C   C7        1.0  0.7813296459308532  0.20019696075372903  0.44603599420234  1.0000
  C   C8        1.0  0.2813315811573744  0.2001975075080225  0.05396385630961478  1.0000
  C   C9        1.0  0.25479024695737  0.9361452901152773  0.5256010320363556  1.0000
  C   C10       1.0  0.7547911779115992  0.9361447245604069  0.9743987672652418  1.0000
  C   C11       1.0  0.7452078428246554  0.06385486502737338  0.47439882653318205  1.0000
  C   C12       1.0  0.24520981084747007  0.06385543056207149  0.025601091303791193  1.0000
  C   C13       1.0  0.2149363111206526  0.04216082152549211  0.5970967701632969  1.0000
  C   C14       1.0  0.714934467187554  0.04216132391854901  0.9029042082402934  1.0000
  C   C15       1.0  0.7850646362190759  0.9578383130094181  0.40290389519867614  1.0000
  C   C16       1.0  0.28506503066365246  0.9578378106264437  0.09709645712194256  1.0000
  C   C17       1.0  0.1389150220558051  0.010197533876798599  0.6990503812877048  1.0000
  C   C18       1.0  0.6389132960130725  0.010198103778343202  0.8009506366072467  1.0000
  C   C19       1.0  0.8610859667028025  0.9898026212454171  0.3009502840740622  1.0000
  C   C20       1.0  0.36108624325701316  0.9898020513539548  0.19905002875477604  1.0000
  C   C21       1.0  0.09640745606703399  0.8751794843548023  0.727033014687329  1.0000
  C   C22       1.0  0.5964057623816715  0.8751800727854043  0.7729668646356909  1.0000
  C   C23       1.0  0.9035935326915735  0.12482067076741288  0.2729676506744382  1.0000
  C   C24       1.0  0.4035937768888759  0.1248200823471635  0.22703299393359078  1.0000
  C   C25       1.0  0.05915783204533651  0.6281485724656192  0.6831532273520364  1.0000
  C   C26       1.0  0.5591575371091507  0.6281491318308668  0.8168475708500151  1.0000
  C   C27       1.0  0.9408402577357508  0.37185158267649854  0.3168482448029763  1.0000
  C   C28       1.0  0.44084196074251747  0.371850002714396  0.1831522877194799  1.0000
  C   C29       1.0  0.28229679143429115  0.6926563890312777  0.4762560186277083  1.0000
  C   C30       1.0  0.7822982849070926  0.69265714246513  0.02374202057443849  1.0000
  C   C31       1.0  0.7177027478362562  0.3073437661012832  0.5237438399415735  1.0000
  C   C32       1.0  0.21770270385337648  0.30734301265815134  0.9762554176163786  1.0000
  C   C33       1.0  0.2528665447347365  0.18827605233449415  0.5660779738663846  1.0000
  C   C34       1.0  0.752866114422261  0.1882765341781578  0.9339237394527724  1.0000
  C   C35       1.0  0.7471358520935142  0.8117230821903261  0.4339226914953327  1.0000
  C   C36       1.0  0.24713483291699845  0.8117226003564894  0.06607773270194167  1.0000
  O   O1        1.0  0.0880829030474004  0.576909740288869  0.7763418276291956  1.0000
  O   O2        1.0  0.5880798168899091  0.5769103613793048  0.7236581741664804  1.0000
  O   O3        1.0  0.9119166362222162  0.4230904148431661  0.2236596445255613  1.0000
  O   O4        1.0  0.41192117186962923  0.4230897937434435  0.2763408776098116  1.0000
  O   O5        1.0  0.9603871103330165  0.5626644873586172  0.6127233035632285  1.0000
  O   O6        1.0  0.4603857197499224  0.5626637928433097  0.8872757664874196  1.0000
  O   O7        1.0  0.03961106228629772  0.4373377089583742  0.3872773617986238  1.0000
  O   O8        1.0  0.539613778101753  0.4373353417019528  0.11272409208207525  1.0000
  O   O9        1.0  0.34439579182704694  0.5800790080972646  0.5182697620700052  1.0000
  O   O10       1.0  0.8443938153273793  0.5800784377084014  0.9817293417084368  1.0000
  O   O11       1.0  0.6556066878394234  0.41992216760243667  0.48173009649855886  1.0000
  O   O12       1.0  0.15560427445557687  0.4199217174347893  0.01826890327562579  1.0000
  O   O13       1.0  0.2814631779452625  0.7167953654456339  0.3769511231131445  1.0000
  O   O14       1.0  0.7814615333553548  0.7167929913822845  0.12304932708569534  1.0000
  O   O15       1.0  0.7185348704174217  0.28320376910944833  0.6230495422493403  1.0000
  O   O16       1.0  0.2185364321700476  0.2832041019984501  0.8769505314844747  1.0000
  O   O17       1.0  0.31016238504863486  0.2114654772309947  0.46865854296802195  1.0000
  O   O18       1.0  0.8101609707573448  0.21146622565321843  0.03134290649438039  1.0000
  O   O19       1.0  0.689842952175546  0.7885346778609658  0.5313421223929848  1.0000
  O   O20       1.0  0.18983860993114382  0.788534950066115  0.9686585656601632  1.0000
  O   O21       1.0  0.2286894456700637  0.2817558978712639  0.6343931343781788  1.0000
  O   O22       1.0  0.7286891357707221  0.28175744553733034  0.8656077431649931  1.0000
  O   O23       1.0  0.771312951158663  0.7182432366538335  0.36560672419081175  1.0000
  O   O24       1.0  0.2713103620800155  0.7182416890073994  0.13439372898997695  1.0000
