data_image0
_chemical_formula_structural       Ni2H24C16S2N4O8
_chemical_formula_sum              "Ni2 H24 C16 S2 N4 O8"
_cell_length_a       4.797632373014907
_cell_length_b       9.899670732027676
_cell_length_c       10.645541871029069
_cell_angle_alpha    89.9998119316908
_cell_angle_beta     90.00019790976671
_cell_angle_gamma    90.00019686678904

_space_group_name_H-M_alt    "P 1"
_space_group_IT_number       1

loop_
  _space_group_symop_operation_xyz
  'x, y, z'

loop_
  _atom_site_type_symbol
  _atom_site_label
  _atom_site_symmetry_multiplicity
  _atom_site_fract_x
  _atom_site_fract_y
  _atom_site_fract_z
  _atom_site_occupancy
  Ni  Ni1       1.0  0.16146529020079473  0.13568860882161715  0.5000026553027084  1.0000
  Ni  Ni2       1.0  0.8385364407983358  0.6356896428128634  0.49999774908648226  1.0000
  H   H1        1.0  0.4473360292534494  0.8154618390652502  6.491345060000027e-08  1.0000
  H   H2        1.0  0.5526607183310118  0.31546473456668167  0.9999969758304204  1.0000
  H   H3        1.0  0.6475817467192612  0.8916742364766959  0.7976307164253739  1.0000
  H   H4        1.0  0.35241970784665705  0.3916745783447836  0.2023679717653266  1.0000
  H   H5        1.0  0.3524135552267893  0.3916775622255669  0.7976284175638853  1.0000
  H   H6        1.0  0.6475795619181496  0.8916773133949145  0.20237120997121144  1.0000
  H   H7        1.0  0.13862604771085069  0.18247449851558875  0.7793035197450847  1.0000
  H   H8        1.0  0.8613760137131904  0.6824745419964912  0.2206958033044941  1.0000
  H   H9        1.0  0.8613738952562641  0.6824765808222963  0.7792958325005799  1.0000
  H   H10       1.0  0.13861357565554036  0.1824785204868959  0.2207025511676051  1.0000
  H   H11       1.0  0.30008839290649547  0.0253765158864354  0.7586257495878784  1.0000
  H   H12       1.0  0.6999104746459819  0.5253782363216857  0.2413768682825008  1.0000
  H   H13       1.0  0.6999144574608847  0.5253803485745221  0.758614982295292  1.0000
  H   H14       1.0  0.30008441010324555  0.025385515127609885  0.2413801206753733  1.0000
  H   H15       1.0  0.22901971451586428  0.14144732009791025  9.105234682e-07  1.0000
  H   H16       1.0  0.7709700493606279  0.6414472310127407  1.5308568067000004e-06  1.0000
  H   H17       1.0  0.7553628326661864  0.1021149946617399  0.6501975153285217  1.0000
  H   H18       1.0  0.24463866120265013  0.6021155691405082  0.3498001728658764  1.0000
  H   H19       1.0  0.24464184811491654  0.602114025774128  0.6501954029822415  1.0000
  H   H20       1.0  0.7553575614026897  0.10211552788510397  0.3498060426534195  1.0000
  H   H21       1.0  0.917391517619613  0.9560900381175511  0.6272684434280933  1.0000
  H   H22       1.0  0.08261039190229269  0.4560923545590044  0.3727309886378549  1.0000
  H   H23       1.0  0.08260924176425989  0.45609089259809094  0.6272647674580014  1.0000
  H   H24       1.0  0.917392667750512  0.9560894798092436  0.3727346646110163  1.0000
  C   C1        1.0  0.6224122184072484  0.8858643269238511  3.8575570827e-06  1.0000
  C   C2        1.0  0.37758294204530063  0.38586490951134766  0.9999957876198168  1.0000
  C   C3        1.0  0.9537904566068034  0.022691899799624993  0.8851853653464588  1.0000
  C   C4        1.0  0.0462063076174246  0.5226879261585181  0.1148210181192724  1.0000
  C   C5        1.0  0.046198713277668384  0.5226905992338188  0.8851716587223066  1.0000
  C   C6        1.0  0.9538001352875725  0.022691247008616192  0.1148272098592003  1.0000
  C   C7        1.0  0.733099387638667  0.930191594385654  0.885652550138893  1.0000
  C   C8        1.0  0.2669023389547931  0.4301890753966973  0.11434696052819501  1.0000
  C   C9        1.0  0.26689057938150995  0.43019376705358764  0.8856463550841768  1.0000
  C   C10       1.0  0.7331069785244678  0.9301949837987917  0.1143550342879749  1.0000
  C   C11       1.0  0.095208373873767  0.0743092692246989  0.7676602770370949  1.0000
  C   C12       1.0  0.9047908392742983  0.5743103540702208  0.23234313169876944  1.0000
  C   C13       1.0  0.9047907196943965  0.5743104139683408  0.7676545389576219  1.0000
  C   C14       1.0  0.0952022403385087  0.07431122960890948  0.23233853680619632  1.0000
  C   C15       1.0  0.058543702402253886  0.06857505695766969  4.640242004e-06  1.0000
  C   C16       1.0  0.941455470237848  0.5685744878812996  0.9999978465375889  1.0000
  S   S1        1.0  0.39327581648988286  0.825416793010319  0.499999918075801  1.0000
  S   S2        1.0  0.6067355919251013  0.32541549318757024  0.4999989711967672  1.0000
  N   N1        1.0  0.9471885322404886  0.05606918247238469  0.6482870818473785  1.0000
  N   N2        1.0  0.052814720780247584  0.5560694295213651  0.3517098067236972  1.0000
  N   N3        1.0  0.052815809319525876  0.5560699132023641  0.6482855976284583  1.0000
  N   N4        1.0  0.9471874437220077  0.05606970891765428  0.3517159877428639  1.0000
  O   O1        1.0  0.4560343760629094  0.9728045757677175  0.5000025634299234  1.0000
  O   O2        1.0  0.5439676515120837  0.47280519130449494  0.49999963599620406  1.0000
  O   O3        1.0  0.0820576704211646  0.8104988650193831  0.500005324403638  1.0000
  O   O4        1.0  0.9179578014003552  0.3105011158311085  0.5000020643814409  1.0000
  O   O5        1.0  0.518458574931266  0.7585276038870673  0.6128783582811651  1.0000
  O   O6        1.0  0.48155444541760756  0.25852447529078393  0.38711885526323186  1.0000
  O   O7        1.0  0.4815531896918727  0.25852710494108055  0.6128809657382065  1.0000
  O   O8        1.0  0.5184494088812243  0.7585290147581528  0.3871209445933843  1.0000
