data_image0
_chemical_formula_structural       Y4H12C36O24
_chemical_formula_sum              "Y4 H12 C36 O24"
_cell_length_a       10.328023487458134
_cell_length_b       10.32805688644788
_cell_length_c       14.175798795014732
_cell_angle_alpha    90.00001520025981
_cell_angle_beta     90.00016317261587
_cell_angle_gamma    89.9989328979862

_space_group_name_H-M_alt    "P 1"
_space_group_IT_number       1

loop_
  _space_group_symop_operation_xyz
  'x, y, z'

loop_
  _atom_site_type_symbol
  _atom_site_label
  _atom_site_symmetry_multiplicity
  _atom_site_fract_x
  _atom_site_fract_y
  _atom_site_fract_z
  _atom_site_occupancy
  Y   Y1        1.0  0.629805619648387  0.6298068618424963  0.8750011351895493  1.0000
  Y   Y2        1.0  0.3701949392086661  0.3701921041972724  0.3750008008041234  1.0000
  Y   Y3        1.0  0.3701871878972369  0.6298120455947187  0.12499939339590327  1.0000
  Y   Y4        1.0  0.6298114176875488  0.3701858598083446  0.6250003838107857  1.0000
  H   H1        1.0  0.9648938934783259  0.5761361957968631  0.10833074567807438  1.0000
  H   H2        1.0  0.03510367816263481  0.42386363992569187  0.6083269950869549  1.0000
  H   H3        1.0  0.4238675965104477  0.9648959167144824  0.358333068838462  1.0000
  H   H4        1.0  0.5761338649171178  0.035102074918512506  0.8583310632809854  1.0000
  H   H5        1.0  0.0351028184071609  0.5761343485722605  0.8916641292749289  1.0000
  H   H6        1.0  0.9648987742958965  0.4238714012735232  0.39167137802979096  1.0000
  H   H7        1.0  0.5761402716490025  0.964893582824793  0.6416689343926192  1.0000
  H   H8        1.0  0.42386324079447496  0.035106265167421206  0.14166935212197976  1.0000
  H   H9        1.0  0.6043399308160531  0.49999650558093833  0.2500006907872105  1.0000
  H   H10       1.0  0.3956601355242527  0.5000014460173503  0.7499976968167485  1.0000
  H   H11       1.0  0.4999980933161368  0.6043385444209334  0.4999992037291675  1.0000
  H   H12       1.0  0.4999990515117433  0.3956593147867764  1.2576526273999997e-06  1.0000
  C   C1        1.0  0.7765175384443451  0.5415331946178128  0.16990591457831525  1.0000
  C   C2        1.0  0.9120003712244655  0.5428642262155136  0.17025241909814065  1.0000
  C   C3        1.0  0.7012615617965707  0.5806767702410554  0.08489475841476948  1.0000
  C   C4        1.0  0.22348027581558938  0.45846666386547225  0.6699039691629094  1.0000
  C   C5        1.0  0.0879974443689875  0.45713853710442715  0.6702480782829595  1.0000
  C   C6        1.0  0.29873591754577694  0.4193191838739807  0.5848943713030365  1.0000
  C   C7        1.0  0.4584637000344856  0.7765213530041919  0.4199063362943462  1.0000
  C   C8        1.0  0.45714176046760713  0.9120028035081517  0.4202520073601902  1.0000
  C   C9        1.0  0.4193154067634026  0.7012694052639148  0.33489450097721357  1.0000
  C   C10       1.0  0.5415370357642432  0.22347666139776112  0.919905706234587  1.0000
  C   C11       1.0  0.5428580084536068  0.0879952110305808  0.9202513542349562  1.0000
  C   C12       1.0  0.5806849940546215  0.2987314824241665  0.8348967875289401  1.0000
  C   C13       1.0  0.22347788135974156  0.5415374985344598  0.8300917754986299  1.0000
  C   C14       1.0  0.0879950238646714  0.5428604027451697  0.8297445658037146  1.0000
  C   C15       1.0  0.2987302242254443  0.5806864816446621  0.9151029391089265  1.0000
  C   C16       1.0  0.7765244369901793  0.4584662920696729  0.3300958213964264  1.0000
  C   C17       1.0  0.9120063248616289  0.4571453242125044  0.3297495957404592  1.0000
  C   C18       1.0  0.7012724290975642  0.4193154039098133  0.4151061172366183  1.0000
  C   C19       1.0  0.5415302481397929  0.7765167361186869  0.5800956310699305  1.0000
  C   C20       1.0  0.5428641880690108  0.9119991299983354  0.5797485749467055  1.0000
  C   C21       1.0  0.5806760699991358  0.7012592495167168  0.6651053357788539  1.0000
  C   C22       1.0  0.4584681805137266  0.22348115268599136  0.08009474502902947  1.0000
  C   C23       1.0  0.457137143936805  0.0879987586511319  0.07974836580516609  1.0000
  C   C24       1.0  0.4193217253761929  0.29873770248338627  0.16510508891445136  1.0000
  C   C25       1.0  0.7096214496973161  0.499999398102929  0.2500022099930276  1.0000
  C   C26       1.0  0.979400077002744  0.5000085046522287  0.2500010767808902  1.0000
  C   C27       1.0  0.12442235436258642  0.5000116253654242  0.2500016077375093  1.0000
  C   C28       1.0  0.29037764836260743  0.500003394686466  0.7499982938932559  1.0000
  C   C29       1.0  0.020599989264034894  0.49999719283664507  0.7499966053961911  1.0000
  C   C30       1.0  0.8755777119111413  0.49999407212409613  0.7499996015776702  1.0000
  C   C31       1.0  0.4999932399677718  0.7096206911471159  0.4999999191706691  1.0000
  C   C32       1.0  0.5000071878761716  0.9793965095236318  0.5000006502851022  1.0000
  C   C33       1.0  0.50000740355096  0.12441864703813368  0.5000005689237595  1.0000
  C   C34       1.0  0.5000029366206321  0.29037716806961816  5.422101239e-07  1.0000
  C   C35       1.0  0.4999948317530496  0.020600566238549296  0.9999991906780391  1.0000
  C   C36       1.0  0.4999897748732777  0.8755793970056016  0.99999997746211  1.0000
  O   O1        1.0  0.7584736163307113  0.5904989804829627  0.005650606580488199  1.0000
  O   O2        1.0  0.5797841400165709  0.5999293463310025  0.0940524965863503  1.0000
  O   O3        1.0  0.1806033933692603  0.4164600615043668  0.30184282794255773  1.0000
  O   O4        1.0  0.2415254872294241  0.4094998490315477  0.5056500998419151  1.0000
  O   O5        1.0  0.42021240719947883  0.40006370646936057  0.5940537667009662  1.0000
  O   O6        1.0  0.819396877217116  0.5835408139663373  0.8018435437576059  1.0000
  O   O7        1.0  0.40948999204264425  0.7584738533265067  0.2556509900880499  1.0000
  O   O8        1.0  0.4000737647740705  0.5797917502016432  0.3440600906761944  1.0000
  O   O9        1.0  0.5835583030452939  0.18059204630643683  0.5518418305929911  1.0000
  O   O10       1.0  0.5905100965322632  0.24152797330640405  0.7556518751205273  1.0000
  O   O11       1.0  0.5999276403987396  0.4202091408654951  0.8440631453817459  1.0000
  O   O12       1.0  0.4164419507553703  0.8194068002730576  0.05184167689446889  1.0000
  O   O13       1.0  0.2415267009246875  0.5905078501919476  0.9943470928213143  1.0000
  O   O14       1.0  0.4202092239708648  0.5999319506584015  0.9059360340434777  1.0000
  O   O15       1.0  0.8194040383852014  0.4164454718634972  0.6981583654785835  1.0000
  O   O16       1.0  0.7584782011474261  0.4094901916906437  0.49435038682352667  1.0000
  O   O17       1.0  0.5797943614839269  0.40006896326251257  0.4059403693245613  1.0000
  O   O18       1.0  0.18059582362029403  0.5835611747002715  0.19816191401695699  1.0000
  O   O19       1.0  0.5904994510409693  0.7584703215506607  0.7443502684091924  1.0000
  O   O20       1.0  0.599928688538647  0.5797841373020206  0.6559439555369622  1.0000
  O   O21       1.0  0.4164573942903332  0.1805993926708638  0.44816002337493177  1.0000
  O   O22       1.0  0.40950059304740444  0.24152665972292206  0.24434857958377162  1.0000
  O   O23       1.0  0.40006519777670485  0.4202137795845076  0.15594580844356187  1.0000
  O   O24       1.0  0.5835405481189966  0.8193976639650202  0.9481574769092588  1.0000
