data_image0
_chemical_formula_structural       Zn16H36C112S8Cl4O52F16
_chemical_formula_sum              "Zn16 H36 C112 S8 Cl4 O52 F16"
_cell_length_a       18.568783502540782
_cell_length_b       19.736846774510575
_cell_length_c       32.851789878074406
_cell_angle_alpha    86.05951877262405
_cell_angle_beta     73.58855934034432
_cell_angle_gamma    61.944775906331664

_space_group_name_H-M_alt    "P 1"
_space_group_IT_number       1

loop_
  _space_group_symop_operation_xyz
  'x, y, z'

loop_
  _atom_site_type_symbol
  _atom_site_label
  _atom_site_symmetry_multiplicity
  _atom_site_fract_x
  _atom_site_fract_y
  _atom_site_fract_z
  _atom_site_occupancy
  Zn  Zn1       1.0  0.8742958586785434  0.5557463007649089  0.5187083706507208  1.0000
  Zn  Zn2       1.0  0.03824202444105395  0.4853324838297013  0.4383808318472262  1.0000
  Zn  Zn3       1.0  0.04176085520138174  0.39809385675711434  0.5235408442053142  1.0000
  Zn  Zn4       1.0  0.04683585136446312  0.560038779660715  0.5184615573337227  1.0000
  Zn  Zn5       1.0  0.6250847552588185  0.1904810617736031  0.7319868401398608  1.0000
  Zn  Zn6       1.0  0.46495101343464273  0.3496682862516636  0.7256131217180339  1.0000
  Zn  Zn7       1.0  0.4583028407778045  0.26560193749294564  0.8126491247325021  1.0000
  Zn  Zn8       1.0  0.45221059521077206  0.1929897721850864  0.7294713072967413  1.0000
  Zn  Zn9       1.0  0.46196221157605777  0.7635922178532721  0.3130752908189933  1.0000
  Zn  Zn10      1.0  0.4532284524888226  0.6929258890694285  0.23089344956227356  1.0000
  Zn  Zn11      1.0  0.6253074088404773  0.6926467594702357  0.22922522974300114  1.0000
  Zn  Zn12      1.0  0.458845727561247  0.851451175964385  0.22615550708467677  1.0000
  Zn  Zn13      1.0  0.03618042478011328  0.8989313396354103  0.023858928480791488  1.0000
  Zn  Zn14      1.0  0.0497936421731069  0.057276657358883695  0.019039932425585007  1.0000
  Zn  Zn15      1.0  0.8763332027695796  0.05873765994588351  0.01963654709550155  1.0000
  Zn  Zn16      1.0  0.036236437054007795  0.9851495518722189  0.9375113869856619  1.0000
  H   H1        1.0  0.8029782825139832  0.9663276844619658  0.6554982937136202  1.0000
  H   H2        1.0  0.3113610677850859  0.9758233367667228  0.40161115019952126  1.0000
  H   H3        1.0  0.5430144137660946  0.48227009035165475  0.6217591548558089  1.0000
  H   H4        1.0  0.5481642273373808  0.5225107135648485  0.6670820907979406  1.0000
  H   H5        1.0  0.6442310889608933  0.5706752023009399  0.6189813543878131  1.0000
  H   H6        1.0  0.6390163566514675  0.5304482647930584  0.5736374406620611  1.0000
  H   H7        1.0  0.35299947112334723  0.6738986897575214  0.4310025532004786  1.0000
  H   H8        1.0  0.2622894391281392  0.7621332292998771  0.42843481844147396  1.0000
  H   H9        1.0  0.1660264375433728  0.7140719734840956  0.47637794451308213  1.0000
  H   H10       1.0  0.2566055810422512  0.6258408606074112  0.4789423586334465  1.0000
  H   H11       1.0  0.5472643936481421  0.7622924829474156  0.42816411691433126  1.0000
  H   H12       1.0  0.5422869926578855  0.6740431474029903  0.43059108779998917  1.0000
  H   H13       1.0  0.6384059782907842  0.6258809688315095  0.4786421539871668  1.0000
  H   H14       1.0  0.643532560911723  0.7140409832475  0.4761982641887954  1.0000
  H   H15       1.0  0.33371889482528877  0.17930106731784426  0.6311072621074629  1.0000
  H   H16       1.0  0.24313551624623392  0.21943540206973464  0.6764869451479001  1.0000
  H   H17       1.0  0.14684641954146824  0.2675328975199919  0.6284027694535297  1.0000
  H   H18       1.0  0.2375746803337151  0.22735627867151456  0.5830739357882708  1.0000
  H   H19       1.0  0.18890565678177765  0.6597805619547185  0.9626362996196037  1.0000
  H   H20       1.0  0.9571087004012141  0.07645841677931028  0.8194232746433913  1.0000
  H   H21       1.0  0.9519522741705088  0.9883616102821688  0.8219865512205758  1.0000
  H   H22       1.0  0.8559310129391022  0.036241344023537195  0.7739257746338666  1.0000
  H   H23       1.0  0.8608363436578372  0.12448916341721625  0.7713435516534872  1.0000
  H   H24       1.0  0.1662658253817355  0.21370067746624946  0.9759973309173303  1.0000
  H   H25       1.0  0.25701339543560653  0.12556234467044183  0.9785765682474975  1.0000
  H   H26       1.0  0.3530637061381938  0.17366155493230906  0.9304380444225446  1.0000
  H   H27       1.0  0.26233121612064286  0.261750263475328  0.9279346287439836  1.0000
  H   H28       1.0  0.9263464269964672  0.2834872283282123  0.09451548726064368  1.0000
  H   H29       1.0  0.2568205730968316  0.031107143429110803  0.07344132248753252  1.0000
  H   H30       1.0  0.16597133058521504  0.0714225096245542  0.11877345830319541  1.0000
  H   H31       1.0  0.26194240762089294  0.023251026502705892  0.1669057383444894  1.0000
  H   H32       1.0  0.35272384127699047  0.9830180074337705  0.12162151507658336  1.0000
  H   H33       1.0  0.9519649192534415  0.7268962080995106  0.08315755664813909  1.0000
  H   H34       1.0  0.9571665247710683  0.7671322280124995  0.12848034461545405  1.0000
  H   H35       1.0  0.8608286628221437  0.7192687185827608  0.1765684796080862  1.0000
  H   H36       1.0  0.8558187174510649  0.6788864882271852  0.13124513569833596  1.0000
  C   C1        1.0  0.8622890694601538  0.5681608456567769  0.4310912380202865  1.0000
  C   C2        1.0  0.12334815892609195  0.3158535876905687  0.43857119094980856  1.0000
  C   C3        1.0  0.8633870374900635  0.4302606844493226  0.5684807385459792  1.0000
  C   C4        1.0  0.13807259856228882  0.4320656291507276  0.5684215203347023  1.0000
  C   C5        1.0  0.8760575704800999  0.6838343091654123  0.560799308078046  1.0000
  C   C6        1.0  0.1374091059718766  0.5692144311297013  0.43100771782157926  1.0000
  C   C7        1.0  0.6390842765084274  0.3174137102706354  0.6812976275355567  1.0000
  C   C8        1.0  0.37750532993233316  0.43419077366201014  0.8108774106084838  1.0000
  C   C9        1.0  0.6363900560891479  0.18122661662824407  0.8192784429101964  1.0000
  C   C10       1.0  0.36172559206868027  0.181294354385777  0.8182436635681682  1.0000
  C   C11       1.0  0.6233542837356367  0.06551224394257098  0.6885076785159896  1.0000
  C   C12       1.0  0.363466551561423  0.31911015682504024  0.680680819536505  1.0000
  C   C13       1.0  0.3629179908927114  0.6811559869314577  0.3189590045769393  1.0000
  C   C14       1.0  0.622564026571695  0.5662345488496853  0.18829690090649356  1.0000
  C   C15       1.0  0.6375780670351715  0.681196021094088  0.31848735130966344  1.0000
  C   C16       1.0  0.6364336913962633  0.8193812320777097  0.1808282077800456  1.0000
  C   C17       1.0  0.37664114907127555  0.9335658212665122  0.3118727895803914  1.0000
  C   C18       1.0  0.3618683695984189  0.8187111343665308  0.18115529245719839  1.0000
  C   C19       1.0  0.13719278547760194  0.9309828271826175  0.06862048620825327  1.0000
  C   C20       1.0  0.879143286703787  0.1843121606105811  0.06140258253565627  1.0000
  C   C21       1.0  0.8617970612763273  0.9315950871565164  0.06878281173531775  1.0000
  C   C22       1.0  0.8617563497923869  0.0692561606386235  0.9314527548510939  1.0000
  C   C23       1.0  0.12148616214585664  0.815481465620948  0.9387837046391851  1.0000
  C   C24       1.0  0.13724537241655807  0.0684820386768124  0.9310818885909242  1.0000
  C   C25       1.0  0.7369020760492474  0.8026904251974399  0.6008424277227249  1.0000
  C   C26       1.0  0.7604108494343146  0.9475441978310715  0.6492611948358373  1.0000
  C   C27       1.0  0.8250025042612918  0.7583246323092395  0.5859655381922054  1.0000
  C   C28       1.0  0.6726871115349699  0.9906130715178915  0.6635692392588767  1.0000
  C   C29       1.0  0.7841319748183152  0.8788295329841913  0.6262648098266936  1.0000
  C   C30       1.0  0.7135845516553875  0.8714300302776861  0.6237706390411119  1.0000
  C   C31       1.0  0.20195139535188392  0.2272226883663605  0.3688611090268097  1.0000
  C   C32       1.0  0.2988328697440608  0.022153438861288097  0.38036988410057404  1.0000
  C   C33       1.0  0.17270838675007388  0.24197086663856027  0.4129898798791346  1.0000
  C   C34       1.0  0.327259873536768  0.008730264984350799  0.33650744858304904  1.0000
  C   C35       1.0  0.25305809832094184  0.1018994258244064  0.3922986004712641  1.0000
  C   C36       1.0  0.24784067716158378  0.1472227492493232  0.3571079586830734  1.0000
  C   C37       1.0  0.6970813781204369  0.34451468272672503  0.6529030035898273  1.0000
  C   C38       1.0  0.8082163752539202  0.4004646154583327  0.597064292772771  1.0000
  C   C39       1.0  0.6664801213711797  0.41690759900308894  0.6365124946267855  1.0000
  C   C40       1.0  0.8399410936272106  0.3273619894767349  0.613457642991321  1.0000
  C   C41       1.0  0.7194218773432156  0.4434993913769317  0.6099285062501495  1.0000
  C   C42       1.0  0.7866002616030981  0.3005053479426607  0.6402286448386577  1.0000
  C   C43       1.0  0.5857891815725793  0.4898147640593038  0.6360737161485304  1.0000
  C   C44       1.0  0.645914933206612  0.5200058524842387  0.6059369257319175  1.0000
  C   C45       1.0  0.30599797259350237  0.6521856270126207  0.3464486234600699  1.0000
  C   C46       1.0  0.19430790729075642  0.5966192586489567  0.4019396497988339  1.0000
  C   C47       1.0  0.2803161198869974  0.6636558298762905  0.39080350494660365  1.0000
  C   C48       1.0  0.21976865788833078  0.5844402196137253  0.35717219800908845  1.0000
  C   C49       1.0  0.22713693534765855  0.6372380480346038  0.4172255197750943  1.0000
  C   C50       1.0  0.2733604512660364  0.6112243184067054  0.3304927389794372  1.0000
  C   C51       1.0  0.2883845999134992  0.6992800471054819  0.42757522292232863  1.0000
  C   C52       1.0  0.22803738047066702  0.6691814725800497  0.457590863513694  1.0000
  C   C53       1.0  0.6958730233042872  0.652273827146807  0.3461258467374364  1.0000
  C   C54       1.0  0.8072175474491131  0.5962611373208374  0.4019194655020826  1.0000
  C   C55       1.0  0.6655029617651562  0.6638182075810944  0.39051017872603927  1.0000
  C   C56       1.0  0.8389109837808276  0.5843086709839581  0.3571507171101019  1.0000
  C   C57       1.0  0.7184940925211052  0.6371749623813726  0.4170372678708246  1.0000
  C   C58       1.0  0.7853969390191509  0.6112497433010873  0.3303770726686536  1.0000
  C   C59       1.0  0.5849172963125754  0.6994389771583015  0.4272399411136263  1.0000
  C   C60       1.0  0.6451660882289543  0.6692267406639019  0.45734376494048234  1.0000
  C   C61       1.0  0.306014113134907  0.3493403942325201  0.6526765668742627  1.0000
  C   C62       1.0  0.19438710856216798  0.40523542164765997  0.5970386666244138  1.0000
  C   C63       1.0  0.27274569328331927  0.30641035962216984  0.6400720315830668  1.0000
  C   C64       1.0  0.22718298784772611  0.4493462862437809  0.6096725186423699  1.0000
  C   C65       1.0  0.2196332816847502  0.33298346560539466  0.6135612020701162  1.0000
  C   C66       1.0  0.28073804769270083  0.42254990094973255  0.6363828907895623  1.0000
  C   C67       1.0  0.2717095896953978  0.22993151042911106  0.6441737644221635  1.0000
  C   C68       1.0  0.21144756998237574  0.2600482551975246  0.6140813175556374  1.0000
  C   C69       1.0  0.29837243966948523  0.5831052652603858  0.8205422678803914  1.0000
  C   C70       1.0  0.20131585977735272  0.6684218001313766  0.9288341678229769  1.0000
  C   C71       1.0  0.32779466533551005  0.5095040286594499  0.8351288576592354  1.0000
  C   C72       1.0  0.17233202154376687  0.7408958678465108  0.9135712118809707  1.0000
  C   C73       1.0  0.2473657297457593  0.6105996057307336  0.8949147726761668  1.0000
  C   C74       1.0  0.25240050835607514  0.6407179137816641  0.8546508989909114  1.0000
  C   C75       1.0  0.8034616990429413  0.09832447823188059  0.9038940929555893  1.0000
  C   C76       1.0  0.6918250538785743  0.15381046333619955  0.8482980910771403  1.0000
  C   C77       1.0  0.8337421582707735  0.08684229753324497  0.8595152967265064  1.0000
  C   C78       1.0  0.6603828506900556  0.16586706784518404  0.8930551853581008  1.0000
  C   C79       1.0  0.7806368829679826  0.11326238439998798  0.8330220632851565  1.0000
  C   C80       1.0  0.7139382668992126  0.1392578336276884  0.9197757435746895  1.0000
  C   C81       1.0  0.9143339561145609  0.05120967712956309  0.8228249405397037  1.0000
  C   C82       1.0  0.8540962922581271  0.08123425189111799  0.792721601383171  1.0000
  C   C83       1.0  0.19406963953865383  0.09601097350346069  0.9018800600769695  1.0000
  C   C84       1.0  0.3053482810083494  0.15186501718802248  0.8459854142451209  1.0000
  C   C85       1.0  0.22718438626943532  0.1366192843195577  0.9169530896639344  1.0000
  C   C86       1.0  0.27253543919932355  0.11080001738787357  0.8303054526562903  1.0000
  C   C87       1.0  0.2801198625048897  0.16323069934080078  0.8903774805357758  1.0000
  C   C88       1.0  0.2191032978211069  0.08403687687793847  0.8571177532454045  1.0000
  C   C89       1.0  0.2282727714981689  0.16877792216570237  0.9572073993138163  1.0000
  C   C90       1.0  0.2884328997711663  0.19890506644726708  0.927062692378982  1.0000
  C   C91       1.0  0.641971185044639  0.44695097971440834  0.1490176360963886  1.0000
  C   C92       1.0  0.8588166827370286  0.3021499821092916  0.10074189407961852  1.0000
  C   C93       1.0  0.6711102553500651  0.4913778138715443  0.1636779776824682  1.0000
  C   C94       1.0  0.8285730461630579  0.2590643758124358  0.08636794639873804  1.0000
  C   C95       1.0  0.7907967890915586  0.37080368450957474  0.12367834178148475  1.0000
  C   C96       1.0  0.7104014614000177  0.37813082944337145  0.1261592461435583  1.0000
  C   C97       1.0  0.1939235750438543  0.9011801970744884  0.09699515351287856  1.0000
  C   C98       1.0  0.3053152962808099  0.8454503665153793  0.15272772419035618  1.0000
  C   C99       1.0  0.22685820718442784  0.9442769386759903  0.10975475037275122  1.0000
  C   C100      1.0  0.27266684682535935  0.8011898307623964  0.1400926039090535  1.0000
  C   C101      1.0  0.27981374376384616  0.9177496036462498  0.13631572772001727  1.0000
  C   C102      1.0  0.2191325560570618  0.828015406977613  0.11335422976052457  1.0000
  C   C103      1.0  0.2279556483680238  0.0207461620442615  0.10573178104304762  1.0000
  C   C104      1.0  0.2880835353357937  0.9905823490900474  0.1358906993665485  1.0000
  C   C105      1.0  0.8035534838652224  0.9048127492652112  0.0971330749680135  1.0000
  C   C106      1.0  0.6918937776021965  0.8492785572287002  0.15270920039326089  1.0000
  C   C107      1.0  0.8338399903254584  0.8325198212366514  0.11359262842130845  1.0000
  C   C108      1.0  0.660442036008874  0.9224789921341167  0.13639992938220755  1.0000
  C   C109      1.0  0.7806886266881958  0.8060678763239366  0.14007681201385944  1.0000
  C   C110      1.0  0.7140341954608118  0.9491760470017637  0.10970070383278599  1.0000
  C   C111      1.0  0.9143764644454534  0.7596364150550129  0.11415425646709555  1.0000
  C   C112      1.0  0.8540720773135321  0.7296010905203686  0.14425289276277198  1.0000
  S   S1        1.0  0.8787967471116502  0.8009959035850825  0.6002414597638859  1.0000
  S   S2        1.0  0.618433683345579  0.9484749665801782  0.6494103599268755  1.0000
  S   S3        1.0  0.20144403728048835  0.15802580584217193  0.43973875802149825  1.0000
  S   S4        1.0  0.29898243916849043  0.09224359359264869  0.3094702203882918  1.0000
  S   S5        1.0  0.299135170014914  0.5113504185860974  0.8904987277802334  1.0000
  S   S6        1.0  0.2007697695703713  0.7396463989813568  0.8582923967333045  1.0000
  S   S7        1.0  0.781802965344518  0.4487041435965151  0.1494946487473001  1.0000
  S   S8        1.0  0.7180261874828344  0.30109385683810064  0.10045030237572657  1.0000
  Cl  Cl1       1.0  0.6624088531111743  0.7808215672351648  0.5935909538270536  1.0000
  Cl  Cl2       1.0  0.1871540135856122  0.2937262546880177  0.33184526026748534  1.0000
  Cl  Cl3       1.0  0.31287789558027873  0.6055281307079097  0.7687367194035986  1.0000
  Cl  Cl4       1.0  0.538519730047234  0.4688620694873293  0.15631897965725725  1.0000
  O   O1        1.0  0.9993534436294167  0.5002079204161448  0.5007908074738198  1.0000
  O   O2        1.0  0.8234391002140382  0.5834045198977976  0.47089401407599507  1.0000
  O   O3        1.0  0.1021616077883252  0.3765751373478635  0.4184919302159075  1.0000
  O   O4        1.0  0.9434552628689872  0.3872820974908108  0.5588087144827865  1.0000
  O   O5        1.0  0.9422615807314114  0.5317656957488097  0.4142932986507051  1.0000
  O   O6        1.0  0.8240568821531228  0.49744397761836706  0.55619585618701  1.0000
  O   O7        1.0  0.10604395816555015  0.31235706400464364  0.47910499843762017  1.0000
  O   O8        1.0  0.11550322580519891  0.38413955403611055  0.5595550368104513  1.0000
  O   O9        1.0  0.95696976371363  0.6570978862580004  0.551104143984233  1.0000
  O   O10       1.0  0.11756532208368499  0.49902249608192045  0.5553590230772301  1.0000
  O   O11       1.0  0.8360581452022231  0.6528427928483681  0.5509119961112886  1.0000
  O   O12       1.0  0.11210129667396264  0.5314117211038082  0.4142126591275216  1.0000
  O   O13       1.0  0.11899413005468772  0.5864633835856592  0.47075983875163274  1.0000
  O   O14       1.0  0.5002014745719096  0.2492692547737433  0.7501284759409472  1.0000
  O   O15       1.0  0.672339552773572  0.25054869222366694  0.694486535334363  1.0000
  O   O16       1.0  0.399882546518164  0.4338704616522974  0.7704533704918006  1.0000
  O   O17       1.0  0.556341401815935  0.21849724008283997  0.8358686687708072  1.0000
  O   O18       1.0  0.5596847156302617  0.3650478783708591  0.6898540860606062  1.0000
  O   O19       1.0  0.6755366144727689  0.164241018635046  0.7795724270491603  1.0000
  O   O20       1.0  0.3939029362719994  0.3752641644991995  0.8329146408254786  1.0000
  O   O21       1.0  0.3843896841441534  0.21861027018815088  0.8376753064027869  1.0000
  O   O22       1.0  0.5423100931951339  0.09550191676142107  0.6972817632220228  1.0000
  O   O23       1.0  0.38227641945952934  0.1672382907136125  0.7782314208667247  1.0000
  O   O24       1.0  0.665654594329162  0.09349521440613978  0.6990178339970186  1.0000
  O   O25       1.0  0.3905146661218453  0.36229901878225956  0.6905385892843725  1.0000
  O   O26       1.0  0.38060527344195794  0.25129476835785164  0.6923076776969808  1.0000
  O   O27       1.0  0.500370306110156  0.7509195448446987  0.2505803344513495  1.0000
  O   O28       1.0  0.3866903222780991  0.7175863967729723  0.33835718201999754  1.0000
  O   O29       1.0  0.5417353792130227  0.596312542661991  0.19873198121964464  1.0000
  O   O30       1.0  0.6709862036777708  0.667934006690885  0.2784876324473516  1.0000
  O   O31       1.0  0.3829727942013221  0.6674179450137031  0.2789939725412581  1.0000
  O   O32       1.0  0.5580841621681216  0.7171729756561263  0.33809980477822427  1.0000
  O   O33       1.0  0.6664267103271582  0.5946980273358375  0.19704696196201613  1.0000
  O   O34       1.0  0.6753438668138398  0.7514133825746256  0.19226944673866345  1.0000
  O   O35       1.0  0.3946697571391555  0.9355157808589776  0.2713713181141841  1.0000
  O   O36       1.0  0.556387531262267  0.8629807107195403  0.19093644162719398  1.0000
  O   O37       1.0  0.3966537682622756  0.8738147234016791  0.3329941286079858  1.0000
  O   O38       1.0  0.3830856496014548  0.7514419923925856  0.19378523585262286  1.0000
  O   O39       1.0  0.3841862420814906  0.8666335106168074  0.1903652244891134  1.0000
  O   O40       1.0  0.0012004411077200972  0.9999036019665153  0.9999403725569351  1.0000
  O   O41       1.0  0.11036390305871882  0.8875709067905787  0.05881006524760577  1.0000
  O   O42       1.0  0.9600875337923466  0.1550980781834923  0.051608809925077985  1.0000
  O   O43       1.0  0.8285496874734122  0.9990882966833607  0.05638150954526105  1.0000
  O   O44       1.0  0.12061328758537823  0.9985145618443879  0.05663107527555409  1.0000
  O   O45       1.0  0.9411782212430636  0.8834425551658285  0.05941836406373105  1.0000
  O   O46       1.0  0.8365539605953601  0.15548562612163855  0.05181268288595209  1.0000
  O   O47       1.0  0.8285227199946519  0.08435479554854197  0.9713991986245604  1.0000
  O   O48       1.0  0.10158469705361026  0.8753762029704573  0.9176156529408389  1.0000
  O   O49       1.0  0.9411354136895654  0.03122401238456259  0.9120179280526202  1.0000
  O   O50       1.0  0.10179886079196625  0.8136448421005937  0.9791935661661455  1.0000
  O   O51       1.0  0.12068475283336966  0.0843972399737183  0.9708258745606174  1.0000
  O   O52       1.0  0.11034067798572522  0.03207492001718749  0.9143331369878211  1.0000
  F   F1        1.0  0.9242082593611373  0.2785667026176667  0.6042818243921532  1.0000
  F   F2        1.0  0.8264664655152957  0.22938255835533988  0.6533256122083557  1.0000
  F   F3        1.0  0.19376575901181076  0.5462525403124726  0.33725868313631213  1.0000
  F   F4        1.0  0.2917495914810288  0.5953843818282252  0.2884171860871021  1.0000
  F   F5        1.0  0.9230317787672249  0.5460373011683045  0.33733248375176567  1.0000
  F   F6        1.0  0.8251704394092625  0.5953613757313007  0.28828306262914793  1.0000
  F   F7        1.0  0.20902673828285867  0.5204487223977166  0.5965325793860147  1.0000
  F   F8        1.0  0.3070793030082229  0.4713831720512116  0.6454935469661577  1.0000
  F   F9        1.0  0.5761580486224176  0.20385039887370474  0.9129352255225954  1.0000
  F   F10       1.0  0.6743312800250081  0.15501489974571575  0.961859784252006  1.0000
  F   F11       1.0  0.2906206064246035  0.09490345684044138  0.7881980068552253  1.0000
  F   F12       1.0  0.19277007640862823  0.045926219858777984  0.837283447350309  1.0000
  F   F13       1.0  0.29087832226579025  0.730156154461305  0.15317908627734056  1.0000
  F   F14       1.0  0.19288292163801657  0.7791549450614709  0.10422038672409428  1.0000
  F   F15       1.0  0.5762365796693771  0.9713900046375629  0.14548271635099036  1.0000
  F   F16       1.0  0.6744879683926397  0.0201806599936774  0.09653053800310124  1.0000
