data_image0
_chemical_formula_structural       Zn2H32C50N6O12
_chemical_formula_sum              "Zn2 H32 C50 N6 O12"
_cell_length_a       8.123791207910319
_cell_length_b       10.68455808616132
_cell_length_c       13.5293
_cell_angle_alpha    93.83693116595295
_cell_angle_beta     97.91813043462037
_cell_angle_gamma    96.15495634418696

_space_group_name_H-M_alt    "P 1"
_space_group_IT_number       1

loop_
  _space_group_symop_operation_xyz
  'x, y, z'

loop_
  _atom_site_type_symbol
  _atom_site_label
  _atom_site_symmetry_multiplicity
  _atom_site_fract_x
  _atom_site_fract_y
  _atom_site_fract_z
  _atom_site_occupancy
  Zn  Zn1       1.0  0.5546240312971022  0.8568831142198761  0.448570333583774  1.0000
  Zn  Zn2       1.0  0.4453739036342625  0.1431153410560029  0.5514298574461591  1.0000
  H   H1        1.0  0.9430952699473778  0.6120755606496999  0.025488023881166565  1.0000
  H   H2        1.0  0.0569031073494273  0.38792572846239176  0.9745123534992856  1.0000
  H   H3        1.0  0.11223863935288851  0.6167381658326434  0.1915415436442061  1.0000
  H   H4        1.0  0.887762076091434  0.38326217866737977  0.808458238087013  1.0000
  H   H5        1.0  0.3612991432162218  0.9817135994156132  0.1514180793430029  1.0000
  H   H6        1.0  0.6387026675742788  0.0182858004723343  0.848581003936907  1.0000
  H   H7        1.0  0.18438405286691767  0.980838888637777  0.9848917930603633  1.0000
  H   H8        1.0  0.8156155672312195  0.019162400474314698  0.015107947985619275  1.0000
  H   H9        1.0  0.8330714675802966  0.6285807673680139  0.7392863259781421  1.0000
  H   H10       1.0  0.16692596182547698  0.371422410968222  0.2607140728339132  1.0000
  H   H11       1.0  0.5638292753141698  0.4879695929124921  0.7192071236998743  1.0000
  H   H12       1.0  0.436169249437782  0.5120326408116682  0.2807933157974105  1.0000
  H   H13       1.0  0.4482394500169278  0.66292780688525  0.9937293022568525  1.0000
  H   H14       1.0  0.5517587798247376  0.3370725376147731  0.006272491279844395  1.0000
  H   H15       1.0  0.7229124424434232  0.7964676153765211  0.018751245299036223  1.0000
  H   H16       1.0  0.27708578739824224  0.2035327291235021  0.981249809101115  1.0000
  H   H17       1.0  0.8384274339523613  0.9067605207980449  0.7346339518675861  1.0000
  H   H18       1.0  0.1615732814919539  0.0932398237019783  0.265365829863633  1.0000
  H   H19       1.0  0.9918171596190107  0.951062826932592  0.5921325858070077  1.0000
  H   H20       1.0  0.008188527030633  0.0489375175674311  0.40786834626904783  1.0000
  H   H21       1.0  0.4113452226510432  0.7816948271966025  0.733991323822501  1.0000
  H   H22       1.0  0.5886547555175384  0.21830079424306348  0.2660118430072203  1.0000
  H   H23       1.0  0.2598623748515223  0.7420447355122234  0.879087817130859  1.0000
  H   H24       1.0  0.7401327795668848  0.2579518305395183  0.12091426147087249  1.0000
  H   H25       1.0  0.8871544432017089  0.8232634259973891  0.3856981277722226  1.0000
  H   H26       1.0  0.1128462722426065  0.176736918502634  0.6143001756859121  1.0000
  H   H27       1.0  0.09205792439502862  0.6692038094856301  0.4062021138327481  1.0000
  H   H28       1.0  0.9079426435941471  0.3307955904023245  0.593796127508547  1.0000
  H   H29       1.0  0.7506393845243623  0.455946299090165  0.5722458164921989  1.0000
  H   H30       1.0  0.24936133091996032  0.5440540454098581  0.4277524869659358  1.0000
  H   H31       1.0  0.5630893906438246  0.6232408753300901  0.5454123308221241  1.0000
  H   H32       1.0  0.4369125676018299  0.37675946916993297  0.4545860754380868  1.0000
  C   C1        1.0  0.051096237347906005  0.796976761282842  0.9946940577603698  1.0000
  C   C2        1.0  0.948900897147567  0.2030245278292497  0.00530547768146756  1.0000
  C   C3        1.0  0.032486184723254  0.6941755741972031  0.05287833069359489  1.0000
  C   C4        1.0  0.9675123400287049  0.3058266595269572  0.9471213696671512  1.0000
  C   C5        1.0  0.1282609304790938  0.6963538496331623  0.1462231872152913  1.0000
  C   C6        1.0  0.8717385421638966  0.30364649486686085  0.8537764917138517  1.0000
  C   C7        1.0  0.24794262338305373  0.7992797255121857  0.1824776613512569  1.0000
  C   C8        1.0  0.752057944606122  0.20071967437576888  0.8175213191265839  1.0000
  C   C9        1.0  0.268123953895369  0.9015897143208491  0.12328500271758  1.0000
  C   C10       1.0  0.7318755187476214  0.09841063017917409  0.87671467621157  1.0000
  C   C11       1.0  0.1696345802726071  0.9013119983719448  0.030533737433195502  1.0000
  C   C12       1.0  0.8303648923703832  0.09868834612807119  0.9694659414959472  1.0000
  C   C13       1.0  0.796416043242047  0.7223259585280246  0.8802355350659212  1.0000
  C   C14       1.0  0.2035824815099048  0.2776762751961357  0.1197649044313707  1.0000
  C   C15       1.0  0.748012243848997  0.6370794421716965  0.7942895523629474  1.0000
  C   C16       1.0  0.2519864283581086  0.3629237361645394  0.2057109492511842  1.0000
  C   C17       1.0  0.5973634655916554  0.5595494618241688  0.7820534487510925  1.0000
  C   C18       1.0  0.4026338163589712  0.4404527718999987  0.21794688794413014  1.0000
  C   C19       1.0  0.49086327253398565  0.5698145612008005  0.8543656270554436  1.0000
  C   C20       1.0  0.5091352522179733  0.4301876725233668  0.14563555157838687  1.0000
  C   C21       1.0  0.5340509145319032  0.6564694941551465  0.9389219959480357  1.0000
  C   C22       1.0  0.4659487055662339  0.3435317949569523  0.06107922337103127  1.0000
  C   C23       1.0  0.6861801956002651  0.731581267600653  0.9518534709916578  1.0000
  C   C24       1.0  0.3138183291516938  0.2684209661235073  0.0481477076421726  1.0000
  C   C25       1.0  0.04039685468218581  0.8208367175867366  0.8157376820918145  1.0000
  C   C26       1.0  0.9596037133069828  0.179162682301218  0.18426351579564226  1.0000
  C   C27       1.0  0.9639841627901761  0.8795575823745381  0.7345920531733228  1.0000
  C   C28       1.0  0.0360179429106182  0.12044370673755368  0.2654086326133509  1.0000
  C   C29       1.0  0.05039471406864491  0.9041269423438223  0.6546199255197536  1.0000
  C   C30       1.0  0.9496069492667161  0.09587151293205658  0.3453820521894854  1.0000
  C   C31       1.0  0.2112712902265841  0.8678283342877009  0.6537726509963733  1.0000
  C   C32       1.0  0.7887328587114341  0.132170120988178  0.346229532317011  1.0000
  C   C33       1.0  0.2863354544298744  0.8092727766123389  0.735099074993144  1.0000
  C   C34       1.0  0.7136637233028154  0.1907256786635401  0.2649026971119497  1.0000
  C   C35       1.0  0.20262457994421373  0.787596763416829  0.8158874264259381  1.0000
  C   C36       1.0  0.7973730600768504  0.2123998026349057  0.18411411864340008  1.0000
  C   C37       1.0  0.30887175478237333  0.894369099649367  0.5710937562250038  1.0000
  C   C38       1.0  0.6911322467004979  0.1056284110144361  0.4289076258349951  1.0000
  C   C39       1.0  0.8630357723543725  0.740561694560597  0.42678513036632637  1.0000
  C   C40       1.0  0.1369649430899429  0.2594386499394261  0.5732124339552698  1.0000
  C   C41       1.0  0.9770621160639266  0.6531161213027445  0.43906271096332006  1.0000
  C   C42       1.0  0.02293735657906381  0.3468842231972786  0.5609354896927456  1.0000
  C   C43       1.0  0.9409041179044022  0.5475708361505625  0.4922681471012496  1.0000
  C   C44       1.0  0.0590950598282873  0.4524276191253236  0.5077299293211368  1.0000
  C   C45       1.0  0.7880277475380879  0.5355449798733999  0.5306201106418271  1.0000
  C   C46       1.0  0.21197172510490253  0.4644553646266232  0.4693773508776927  1.0000
  C   C47       1.0  0.6814672266180537  0.6276182076675667  0.5156346150023339  1.0000
  C   C48       1.0  0.3185322460249367  0.3723821368324565  0.4843643247902705  1.0000
  C   C49       1.0  0.3491633942007155  0.7981225757250883  0.2830187497725021  1.0000
  C   C50       1.0  0.6508373212436069  0.20187776877493485  0.716981031958717  1.0000
  N   N1        1.0  0.3320144847420893  0.49083554593620693  0.8411410909595531  1.0000
  N   N2        1.0  0.6679849879009012  0.5091647985638161  0.15886006624267418  1.0000
  N   N3        1.0  0.955008606020499  0.7923151007119671  0.8978162229040549  1.0000
  N   N4        1.0  0.04498977127630611  0.2076861884001246  0.10218415447639731  1.0000
  N   N5        1.0  0.7180329696486751  0.7285226137144392  0.4646264975072824  1.0000
  N   N6        1.0  0.28196759834049345  0.2714767861735154  0.5353717438340198  1.0000
  O   O1        1.0  0.325048415829734  0.7072282237956529  0.336469775686794  1.0000
  O   O2        1.0  0.6749509093581095  0.2927711760923017  0.6635291019889706  1.0000
  O   O3        1.0  0.4607283009058848  0.8942888076233259  0.3127565056071333  1.0000
  O   O4        1.0  0.5392711717371057  0.1057115368766972  0.6872431733220097  1.0000
  O   O5        1.0  0.304472860726797  0.4023121703052297  0.7739081480705323  1.0000
  O   O6        1.0  0.695525516570015  0.597689118806862  0.22609222930991993  1.0000
  O   O7        1.0  0.2290761643496424  0.5164345330629913  0.8980134135419675  1.0000
  O   O8        1.0  0.77092455109468  0.4835658114370318  0.1019885855988747  1.0000
  O   O9        1.0  0.2756097099858792  0.9845190972667766  0.5165840059319393  1.0000
  O   O10       1.0  0.7243915109840344  0.0154765241728896  0.48341630715369627  1.0000
  O   O11       1.0  0.4266845988596231  0.8262918522973308  0.5603616824584918  1.0000
  O   O12       1.0  0.573315084398665  0.1737018799181911  0.4396384035913882  1.0000
