data_image0
_chemical_formula_structural       Zn2H8C26N2Cl4O8
_chemical_formula_sum              "Zn2 H8 C26 N2 Cl4 O8"
_cell_length_a       11.11870504053628
_cell_length_b       14.836605983062007
_cell_length_c       16.04909127719906
_cell_angle_alpha    90.25173065585604
_cell_angle_beta     88.23575070068016
_cell_angle_gamma    89.96035326499486

_space_group_name_H-M_alt    "P 1"
_space_group_IT_number       1

loop_
  _space_group_symop_operation_xyz
  'x, y, z'

loop_
  _atom_site_type_symbol
  _atom_site_label
  _atom_site_symmetry_multiplicity
  _atom_site_fract_x
  _atom_site_fract_y
  _atom_site_fract_z
  _atom_site_occupancy
  Zn  Zn1       1.0  0.500051467804937  0.40974219784061466  0.4997176107005075  1.0000
  Zn  Zn2       1.0  0.500002111176812  0.5970535750948472  0.5002236356868082  1.0000
  H   H1        1.0  0.1134443681710238  0.621209501424687  0.4833506642846571  1.0000
  H   H2        1.0  0.886684573912909  0.6215548456431463  0.5161251798700233  1.0000
  H   H3        1.0  0.5067292537303344  0.3518466049612811  0.9213131004907138  1.0000
  H   H4        1.0  0.4759020237631049  0.35164532085652667  0.07578645247146198  1.0000
  H   H5        1.0  0.4936751331523865  0.6417916708548148  0.07858669478891758  1.0000
  H   H6        1.0  0.5231759115419833  0.6420799257845005  0.9240545162521343  1.0000
  H   H7        1.0  0.6202660823165616  0.9202025696153058  0.6039080806575612  1.0000
  H   H8        1.0  0.3796854570490353  0.918897824405768  0.39612234934374857  1.0000
  C   C1        1.0  0.5361680972570753  0.502295727942041  0.6585904165489325  1.0000
  C   C2        1.0  0.4999798794965428  0.81474887463704  0.5002483532230286  1.0000
  C   C3        1.0  0.7295644527243396  0.5031288040502132  0.4698208394567585  1.0000
  C   C4        1.0  0.2705004674434975  0.5032881450736042  0.5301082880354853  1.0000
  C   C5        1.0  0.0647001330873636  0.560578641268293  0.5032786455567261  1.0000
  C   C6        1.0  0.9353892930989857  0.5606275244738796  0.49630636253350247  1.0000
  C   C7        1.0  0.1354735760496766  0.4961752895168203  0.5356642073484038  1.0000
  C   C8        1.0  0.8645961007743778  0.49583658807017633  0.4642134806797173  1.0000
  C   C9        1.0  0.48649541693247755  0.41493307743248653  0.0421472585676881  1.0000
  C   C10       1.0  0.5038643319915366  0.41505229282699924  0.9561661757770991  1.0000
  C   C11       1.0  0.4827994301730811  0.4967245289125657  0.0874948686468215  1.0000
  C   C12       1.0  0.4639662914026345  0.5018443737174466  0.3413251741582073  1.0000
  C   C13       1.0  0.5169837760719461  0.49698926526036763  0.9123850891886036  1.0000
  C   C14       1.0  0.4963763102961281  0.578637803371123  0.04369189810596909  1.0000
  C   C15       1.0  0.5130419201343274  0.5787875197847541  0.957746622946935  1.0000
  C   C16       1.0  0.4690715598902954  0.49726143855623667  0.17549625899832924  1.0000
  C   C17       1.0  0.5308631149470528  0.49780444863132806  0.8244035108399429  1.0000
  C   C18       1.0  0.5388225981582339  0.5002860721589499  0.7485184183434723  1.0000
  C   C19       1.0  0.4611906678424446  0.49962060458528873  0.2514053857771613  1.0000
  C   C20       1.0  0.5679927632241544  0.050639735494932794  0.5584309124178475  1.0000
  C   C21       1.0  0.43201839567174727  0.0498693955595115  0.44115056135128566  1.0000
  C   C22       1.0  0.4999831157519168  0.09799756256614242  0.4997089166357824  1.0000
  C   C23       1.0  0.43183013353372246  0.9560904296079826  0.44111577305000776  1.0000
  C   C24       1.0  0.5681439230101192  0.9568636971089575  0.5587974664640143  1.0000
  C   C25       1.0  0.4999877191496224  0.9106526493526701  0.5000426177413501  1.0000
  C   C26       1.0  0.5000576187206603  0.1933891123330369  0.49951635515834175  1.0000
  N   N1        1.0  0.49993639643146554  0.7365653932285099  0.5004042435450414  1.0000
  N   N2        1.0  0.5001045393923675  0.2715458488510619  0.49945197674651326  1.0000
  Cl  Cl1       1.0  0.0787382544457884  0.401211174218858  0.583522407378936  1.0000
  Cl  Cl2       1.0  0.9213355485555255  0.40021762790200904  0.4166818064556067  1.0000
  Cl  Cl3       1.0  0.6500831455521379  0.10923583986365769  0.6288113704456748  1.0000
  Cl  Cl4       1.0  0.3498800195493388  0.10760911903999222  0.3706050613654383  1.0000
  O   O1        1.0  0.5562437625818931  0.4282106371346473  0.6202599029175102  1.0000
  O   O2        1.0  0.4437628036196344  0.42793680615644547  0.37927782395556153  1.0000
  O   O3        1.0  0.5114367496006338  0.5782848659916839  0.6261157196525955  1.0000
  O   O4        1.0  0.48887589369960693  0.5778791988634422  0.37420103868657145  1.0000
  O   O5        1.0  0.6711682568300007  0.43107318914676546  0.4568540873696633  1.0000
  O   O6        1.0  0.3288340394508893  0.43118759077945157  0.5427099478060596  1.0000
  O   O7        1.0  0.6852568618656747  0.5798332253923134  0.4892394023891881  1.0000
  O   O8        1.0  0.3148312326157097  0.5798551385667636  0.5110228659932473  1.0000
