data_image0
_chemical_formula_structural       Cd2H48C56N8Cl4O8
_chemical_formula_sum              "Cd2 H48 C56 N8 Cl4 O8"
_cell_length_a       10.957770756402876
_cell_length_b       12.064679503480132
_cell_length_c       13.428436228070547
_cell_angle_alpha    114.15448363905679
_cell_angle_beta     90.00068935848114
_cell_angle_gamma    117.00200565310554

_space_group_name_H-M_alt    "P 1"
_space_group_IT_number       1

loop_
  _space_group_symop_operation_xyz
  'x, y, z'

loop_
  _atom_site_type_symbol
  _atom_site_label
  _atom_site_symmetry_multiplicity
  _atom_site_fract_x
  _atom_site_fract_y
  _atom_site_fract_z
  _atom_site_occupancy
  Cd  Cd1       1.0  0.9872746158490386  0.9999764743108556  0.24998362541435887  1.0000
  Cd  Cd2       1.0  0.012724117248602297  2.4066291203399288e-05  0.7500164481926319  1.0000
  H   H1        1.0  0.2627551761062108  0.4347954398168811  0.537573240841141  1.0000
  H   H2        1.0  0.828075606750055  0.5653729194713223  0.9625319896267257  1.0000
  H   H3        1.0  0.7372443337109614  0.5652030036352828  0.462425320648464  1.0000
  H   H4        1.0  0.1719233782368264  0.43462447421951117  0.03746544302011049  1.0000
  H   H5        1.0  0.40961714764462426  0.618187220070311  0.3833765087369585  1.0000
  H   H6        1.0  0.7911298020076954  0.38153592508130174  0.11652672489190515  1.0000
  H   H7        1.0  0.590382499272792  0.3818133229726257  0.6166243104584339  1.0000
  H   H8        1.0  0.2088712772625667  0.6184656576189125  0.8834722406915105  1.0000
  H   H9        1.0  0.6886414965883745  0.0189384233784651  0.610361781284098  1.0000
  H   H10       1.0  0.6695823885971633  0.9810222652202896  0.8895951053041032  1.0000
  H   H11       1.0  0.31135580415643455  0.9810610775663164  0.38964014593486956  1.0000
  H   H12       1.0  0.3304168655524363  0.018979317616143  0.11040386031977081  1.0000
  H   H13       1.0  0.569635852114942  0.8403234980227696  0.5672134698199472  1.0000
  H   H14       1.0  0.7292906329099722  0.1597015678282929  0.9328426283779336  1.0000
  H   H15       1.0  0.4303631404286179  0.1596739107219847  0.43278843647867404  1.0000
  H   H16       1.0  0.27070953254050756  0.8403000124310436  0.06715559161708735  1.0000
  H   H17       1.0  0.8821357125367584  0.14220827829396399  0.5915270563867382  1.0000
  H   H18       1.0  0.7398481292506601  0.8576814271347928  0.9084111689364464  1.0000
  H   H19       1.0  0.11786276993110081  0.8577954117283044  0.40847640378904526  1.0000
  H   H20       1.0  0.260152425189311  0.14231910580409143  0.0915866678041937  1.0000
  H   H21       1.0  0.839528181564489  0.18567157232563147  0.4898220789810495  1.0000
  H   H22       1.0  0.653837259839598  0.8142589994743973  0.010131756720618074  1.0000
  H   H23       1.0  0.16046820158220498  0.8143279186513226  0.5101768658236239  1.0000
  H   H24       1.0  0.3461638181712133  0.18574258071682692  0.9898664632541668  1.0000
  H   H25       1.0  0.9842633996358074  0.1562125654802742  0.48978401209011224  1.0000
  H   H26       1.0  0.8280057337369015  0.8436073045570184  0.010138400769058429  1.0000
  H   H27       1.0  0.015733119351693834  0.8437890225784627  0.5102164448117107  1.0000
  H   H28       1.0  0.17199443297302247  0.15639427821130883  0.9898605648345866  1.0000
  H   H29       1.0  0.35521963156020314  0.4139877220616697  0.20061922958781514  1.0000
  H   H30       1.0  0.9411369428983318  0.5859213134768383  0.2991380497149834  1.0000
  H   H31       1.0  0.6447809279175444  0.5860128209131616  0.7993815895873482  1.0000
  H   H32       1.0  0.05886295590832447  0.4140760826548728  0.7008601285202475  1.0000
  H   H33       1.0  0.7301772186686434  0.6611138110930598  0.11499846153671461  1.0000
  H   H34       1.0  0.06939814670339221  0.33905176666995374  0.38471162892560784  1.0000
  H   H35       1.0  0.2698225653490312  0.33888883154065047  0.8850046153644585  1.0000
  H   H36       1.0  0.9306033202969033  0.6609487662008179  0.615286207794803  1.0000
  H   H37       1.0  0.5109359870890273  0.4351410979743093  0.06732694319899217  1.0000
  H   H38       1.0  0.07609894593134924  0.5650099990848575  0.4323849464777966  1.0000
  H   H39       1.0  0.4890637931503078  0.564861537132444  0.9326738968762882  1.0000
  H   H40       1.0  0.9239006984671789  0.43499053894011314  0.5676143815003344  1.0000
  H   H41       1.0  0.3940970397286986  0.842564083974167  0.4520603479732515  1.0000
  H   H42       1.0  0.5515211362460946  0.15742143837064046  0.04804556767992808  1.0000
  H   H43       1.0  0.6059014292440138  0.15743227751824662  0.5479411750912178  1.0000
  H   H44       1.0  0.44847903046383664  0.8425801443976869  0.9519533979237168  1.0000
  H   H45       1.0  0.4405198606778738  0.966588428709343  0.5944941112465898  1.0000
  H   H46       1.0  0.47391382780131147  0.0335563982815046  0.9055889406848223  1.0000
  H   H47       1.0  0.5594771709042234  0.033406883089846  0.4055062829953401  1.0000
  H   H48       1.0  0.5260854276077325  0.9664451870639112  0.09441077054768235  1.0000
  C   C1        1.0  0.3672215274276808  0.4641987595819829  0.5206788011898312  1.0000
  C   C2        1.0  0.9031048291038527  0.5358931797344652  0.9793442803923115  1.0000
  C   C3        1.0  0.6327792889770902  0.5357986465175699  0.479322359459701  1.0000
  C   C4        1.0  0.09689376689354388  0.46410526127682056  0.020653535508898768  1.0000
  C   C5        1.0  0.3842835540349867  0.3656766908233635  0.4292982054162877  1.0000
  C   C6        1.0  0.01878703693702733  0.6344125072855391  0.07063434512517829  1.0000
  C   C7        1.0  0.6157181724112205  0.6343207101901029  0.5707014639957464  1.0000
  C   C8        1.0  0.9812096018772462  0.3655838443071461  0.929364195545233  1.0000
  C   C9        1.0  0.6020175616574974  0.7537502388084365  0.35100467887722436  1.0000
  C   C10       1.0  0.8481297828581091  0.2460755571248115  0.14887186893061974  1.0000
  C   C11       1.0  0.39798117395903887  0.24625030681159643  0.6489968859470281  1.0000
  C   C12       1.0  0.15187259544307347  0.7539249731688641  0.8511252221609311  1.0000
  C   C13       1.0  0.47985791272918715  0.596442566338588  0.5902844341283284  1.0000
  C   C14       1.0  0.883282519519099  0.4035371761160391  0.9098484950577372  1.0000
  C   C15       1.0  0.5201401622162508  0.40355483243833135  0.4097144897559986  1.0000
  C   C16       1.0  0.11671516517741044  0.5964612674723426  0.09015006647233283  1.0000
  C   C17       1.0  0.2539477659369567  0.22874056559169278  0.3574488785515015  1.0000
  C   C18       1.0  0.02536985731219238  0.7713182123664241  0.14251360612100678  1.0000
  C   C19       1.0  0.7460513574096195  0.771258930198904  0.642551557409746  1.0000
  C   C20       1.0  0.9746296525049798  0.22868023108573968  0.8574849553685981  1.0000
  C   C21       1.0  0.7847071289115987  0.9715056410574763  0.42493232433835004  1.0000
  C   C22       1.0  0.813147583416473  0.028328089738764096  0.0749799086538587  1.0000
  C   C23       1.0  0.21529017057376618  0.028493857378322204  0.5750688572719866  1.0000
  C   C24       1.0  0.1868520572037228  0.9716724407592425  0.9250171824983796  1.0000
  C   C25       1.0  0.6928984719056926  0.7665403426494349  0.27643261584223916  1.0000
  C   C26       1.0  0.9264129292657086  0.23341705520692813  0.22340434238063267  1.0000
  C   C27       1.0  0.30710078476280234  0.23346124520497114  0.7235678409989036  1.0000
  C   C28       1.0  0.07358958487627376  0.7665855721685375  0.7765942608080678  1.0000
  C   C29       1.0  0.47932073547289616  0.6281575485077013  0.3258148294353447  1.0000
  C   C30       1.0  0.8509958697055708  0.3716887338885542  0.1740753009895641  1.0000
  C   C31       1.0  0.5206787781226154  0.37184090247142626  0.6741859688801597  1.0000
  C   C32       1.0  0.14900559729472457  0.6283117989822175  0.8259225357308467  1.0000
  C   C33       1.0  0.6040649761277023  0.9231484827328414  0.5413856133539312  1.0000
  C   C34       1.0  0.680831312493062  0.0768072785865499  0.9585906889711637  1.0000
  C   C35       1.0  0.3959336274263662  0.0768499733323722  0.45861667619906404  1.0000
  C   C36       1.0  0.31916937904715337  0.9231953539431006  0.04140940547526386  1.0000
  C   C37       1.0  0.8775068176774211  0.12174641399034412  0.5037757340750774  1.0000
  C   C38       1.0  0.7557251740001901  0.8781058067591517  0.996151810729799  1.0000
  C   C39       1.0  0.12249061512985548  0.8782551765092635  0.49622546841514753  1.0000
  C   C40       1.0  0.24427407763052134  0.12189577105930738  0.003845663676813194  1.0000
  C   C41       1.0  0.4494168266961366  0.5142435869540591  0.2228320449208567  1.0000
  C   C42       1.0  0.9351685790223385  0.4857113209528165  0.2769700283125403  1.0000
  C   C43       1.0  0.5505829560620867  0.4857590531706606  0.7771702863716855  1.0000
  C   C44       1.0  0.06483197541762556  0.5142892119860675  0.7230278084280998  1.0000
  C   C45       1.0  0.661180490210917  0.6516483061582435  0.1730799902715816  1.0000
  C   C46       1.0  0.009807579321275723  0.34843693475298926  0.32663950886822596  1.0000
  C   C47       1.0  0.33881837998698217  0.34835433403458893  0.8269223410411897  1.0000
  C   C48       1.0  0.9901944099904156  0.651564642861139  0.6733579654776988  1.0000
  C   C49       1.0  0.5386080876310189  0.5260361606734207  0.14770653039584405  1.0000
  C   C50       1.0  0.012692374008416472  0.4740090364238083  0.35207067910505424  1.0000
  C   C51       1.0  0.461390780047985  0.4739664745014379  0.8522943096996728  1.0000
  C   C52       1.0  0.9873067468192714  0.5259904543488146  0.6479282656389317  1.0000
  C   C53       1.0  0.4803319803767108  0.9423048615789396  0.5174784906421053  1.0000
  C   C54       1.0  0.5379878475324347  0.05770862887913349  0.9825562897096631  1.0000
  C   C55       1.0  0.5196646622158951  0.0576914975407092  0.4825222868541986  1.0000
  C   C56       1.0  0.4620123204369406  0.942292956398177  0.017443421502612487  1.0000
  N   N1        1.0  0.6633831587716017  0.8850584808095121  0.44389969545201774  1.0000
  N   N2        1.0  0.7781567128584399  0.11474199355473053  0.05603232997778921  1.0000
  N   N3        1.0  0.33661427403566785  0.1149431096900955  0.5561015070382069  1.0000
  N   N4        1.0  0.22184201646086887  0.8852585395203721  0.943965506803309  1.0000
  N   N5        1.0  0.805365659488416  0.9031263021110052  0.3252678831409455  1.0000
  N   N6        1.0  0.9023116210716395  0.09681522289094602  0.17460765786552204  1.0000
  N   N7        1.0  0.19463398994789569  0.0968742459499055  0.6747344272717086  1.0000
  N   N8        1.0  0.09768893462777575  0.9031853125569214  0.8253909244837488  1.0000
  Cl  Cl1       1.0  0.4427172711777272  0.7104278865266876  0.6968235643313536  1.0000
  Cl  Cl2       1.0  0.7321494605109676  0.2896047831425363  0.8033649990759031  1.0000
  Cl  Cl3       1.0  0.5572788428062551  0.2895674153046741  0.3031738474962822  1.0000
  Cl  Cl4       1.0  0.2678495257353645  0.7103926130572873  0.19663317917956394  1.0000
  O   O1        1.0  0.1556696602099734  0.18674148309731461  0.4074853969605883  1.0000
  O   O2        1.0  0.9691834826065104  0.8133692039366239  0.09244532567468157  1.0000
  O   O3        1.0  0.8443311561947977  0.8132559230022379  0.5925157636889368  1.0000
  O   O4        1.0  0.030816160532573585  0.18663133157935619  0.9075532566948183  1.0000
  O   O5        1.0  0.24237447251461927  0.16456170223975164  0.2535716380676192  1.0000
  O   O6        1.0  0.07778629152480199  0.8354094150384836  0.24642376623197035  1.0000
  O   O7        1.0  0.7576241357184728  0.8354440647924122  0.7464273693362672  1.0000
  O   O8        1.0  0.9222124403134018  0.16459112305459198  0.7535755617663896  1.0000
