data_image0
_chemical_formula_structural       Al6H24C65O32
_chemical_formula_sum              "Al6 H24 C65 O32"
_cell_length_a       12.507864267808515
_cell_length_b       12.71991297197416
_cell_length_c       26.958083294963412
_cell_angle_alpha    97.21893075606656
_cell_angle_beta     91.14515413871113
_cell_angle_gamma    119.66946392142522

_space_group_name_H-M_alt    "P 1"
_space_group_IT_number       1

loop_
  _space_group_symop_operation_xyz
  'x, y, z'

loop_
  _atom_site_type_symbol
  _atom_site_label
  _atom_site_symmetry_multiplicity
  _atom_site_fract_x
  _atom_site_fract_y
  _atom_site_fract_z
  _atom_site_occupancy
  Al  Al1       1.0  0.4187123066532338  0.8273273517545191  0.48903719968710374  1.0000
  Al  Al2       1.0  0.669624125690362  0.08738502866481208  0.5047095119955003  1.0000
  Al  Al3       1.0  0.4281311519864845  0.08617906643763008  0.5039198302289092  1.0000
  Al  Al4       1.0  0.9063222462738524  0.8417408720333055  0.01733802040341458  1.0000
  Al  Al5       1.0  0.9104245180537305  0.5892997102062622  0.006058030678893507  1.0000
  Al  Al6       1.0  0.6625257270840733  0.5746519014890052  0.004581526676538783  1.0000
  H   H1        1.0  0.8504731729681438  0.471502173195617  0.3189192654370671  1.0000
  H   H2        1.0  0.5759690292955355  0.5954094707386657  0.764204326302632  1.0000
  H   H3        1.0  0.49021742291712656  0.2049357687069175  0.19259742150205025  1.0000
  H   H4        1.0  0.4746050913586546  0.17458248053341657  0.2822156902187273  1.0000
  H   H5        1.0  0.32470486879191174  0.8021408393198682  0.7143354292463895  1.0000
  H   H6        1.0  0.01981477361772458  0.8909440679075824  0.797301485587283  1.0000
  H   H7        1.0  0.0626097320565008  0.9286868179770663  0.7091609540054262  1.0000
  H   H8        1.0  0.9743575531830971  0.060895655680617694  0.8311604820066802  1.0000
  H   H9        1.0  0.8872682548158224  0.9482371863369531  0.8709086119600326  1.0000
  H   H10       1.0  0.9191258672987176  0.10200109424090438  0.8872239976880463  1.0000
  H   H11       1.0  0.441096363344343  0.47843849254429915  0.6925164257582705  1.0000
  H   H12       1.0  0.5872926479442526  0.48312991169549235  0.6924093403036405  1.0000
  H   H13       1.0  0.4966207044034477  0.4503624516002064  0.6342145792307928  1.0000
  H   H14       1.0  0.9308140817226944  0.5021494663573093  0.19317541695884435  1.0000
  H   H15       1.0  0.8805401051698994  0.6058583557244502  0.2144844600634029  1.0000
  H   H16       1.0  0.9715340537799266  0.5781961492713775  0.25670162904320637  1.0000
  H   H17       1.0  0.4609436876186522  0.8218897355624505  0.780491738412941  1.0000
  H   H18       1.0  0.34562069998575845  0.6659475659567845  0.7566410487019367  1.0000
  H   H19       1.0  0.417463311692984  0.7059292026350618  0.8197648201042963  1.0000
  H   H20       1.0  0.7409282798793415  0.1322854301206959  0.7836193472995557  1.0000
  H   H21       1.0  0.6632266607117431  0.08478987929530038  0.7208972958601192  1.0000
  H   H22       1.0  0.8159746332770511  0.21535882725952157  0.7336991592143602  1.0000
  H   H23       1.0  0.34241681765715276  0.6271907088022884  0.5051213343586055  1.0000
  H   H24       1.0  0.9967592880304823  0.044970306134494806  0.057778601188829284  1.0000
  C   C1        1.0  0.6239200057245855  0.9111415387453262  0.4215670535720049  1.0000
  C   C2        1.0  0.5685228485454489  0.26290842114611485  0.22057882452592983  1.0000
  C   C3        1.0  0.5596775780939822  0.24592367208256857  0.2704334904386271  1.0000
  C   C4        1.0  0.6621409295001897  0.32111468700111345  0.3062759206268878  1.0000
  C   C5        1.0  0.6788042469798372  0.3552658098109873  0.2053004851448604  1.0000
  C   C6        1.0  0.6870113601007475  0.3725918909722593  0.15440221821000213  1.0000
  C   C7        1.0  0.6544791311204889  0.30166300299650567  0.3569573319543124  1.0000
  C   C8        1.0  0.6977717357138857  0.3913751844853692  0.11096748995915105  1.0000
  C   C9        1.0  0.10421169473071498  0.7987772366783757  0.13672887585936166  1.0000
  C   C10       1.0  0.1330296916110214  0.8181724103320747  0.18208540745916924  1.0000
  C   C11       1.0  0.16075310685157257  0.8373952018383332  0.2318186900759399  1.0000
  C   C12       1.0  0.6237753462910618  0.23223780905885144  0.4461972024630254  1.0000
  C   C13       1.0  0.18175524887475084  0.8525076111889617  0.27783153014821227  1.0000
  C   C14       1.0  0.20647071005663503  0.8689982883945002  0.32765611698071223  1.0000
  C   C15       1.0  0.23123979041757542  0.8849439418673413  0.3731947888095134  1.0000
  C   C16       1.0  0.6742425669534386  0.7749641040873528  0.13621622344863477  1.0000
  C   C17       1.0  0.6698941064238471  0.7965565263296385  0.18157131227597026  1.0000
  C   C18       1.0  0.6667635617394441  0.8202998973676968  0.2311987653848177  1.0000
  C   C19       1.0  0.6659377163503493  0.8427900433058753  0.2770264986324022  1.0000
  C   C20       1.0  0.6609207257045427  0.8665419511674414  0.3264998126301889  1.0000
  C   C21       1.0  0.6533280239537262  0.8879891449535289  0.37154750717915147  1.0000
  C   C22       1.0  0.6981050321540181  0.39024884276717126  0.8744499437037018  1.0000
  C   C23       1.0  0.2835410066740637  0.9110169177316294  0.42422065343389886  1.0000
  C   C24       1.0  0.6866133270445546  0.3697442496630642  0.8283571908589803  1.0000
  C   C25       1.0  0.6754411654971124  0.3491189695910036  0.7779925970469888  1.0000
  C   C26       1.0  0.6667012774381365  0.3312019603062096  0.7316162116194602  1.0000
  C   C27       1.0  0.6559889331533171  0.30683088151199905  0.6813094461990019  1.0000
  C   C28       1.0  0.644684136199196  0.2818800519101714  0.6353224621549742  1.0000
  C   C29       1.0  0.24890791110681929  0.898898766692504  0.6138118517818042  1.0000
  C   C30       1.0  0.2588276419359871  0.8214535693943147  0.733191558044275  1.0000
  C   C31       1.0  0.23530999674520095  0.8011300750772036  0.782474327136583  1.0000
  C   C32       1.0  0.086608781233707  0.8722210198814861  0.7788008383370407  1.0000
  C   C33       1.0  0.11010492691739403  0.8931348031561652  0.7298780784208814  1.0000
  C   C34       1.0  0.6466659595543974  0.9147723230544711  0.5618282509119792  1.0000
  C   C35       1.0  0.19623789639522476  0.8671786239371286  0.7067076725625723  1.0000
  C   C36       1.0  0.147306850629448  0.8257784778586269  0.8058315805113662  1.0000
  C   C37       1.0  0.11957615444017479  0.8028037429059225  0.8550835456067173  1.0000
  C   C38       1.0  0.22233427745799628  0.8857609462135728  0.6567130450959338  1.0000
  C   C39       1.0  0.090788321253143  0.7835818151166193  0.897332527339948  1.0000
  C   C40       1.0  0.6791417950769869  0.8873855912080726  0.607772606995155  1.0000
  C   C41       1.0  0.7466346099113752  0.9347226085357717  0.739972156871978  1.0000
  C   C42       1.0  0.7388932773412906  0.9094811932061474  0.7894705469355967  1.0000
  C   C43       1.0  0.623142016905021  0.6890400242109533  0.7564418623348244  1.0000
  C   C44       1.0  0.6313520249279705  0.714512680072083  0.7074827544810274  1.0000
  C   C45       1.0  0.6179217810437623  0.2300304759191576  0.5829398125818626  1.0000
  C   C46       1.0  0.6910450227376401  0.838410359975711  0.6987573996508016  1.0000
  C   C47       1.0  0.6750652648647417  0.7858121786251927  0.7974476893975077  1.0000
  C   C48       1.0  0.6632057646592177  0.7612991648277404  0.8472495441024817  1.0000
  C   C49       1.0  0.6884946351899258  0.8652059423732293  0.6498343620114964  1.0000
  C   C50       1.0  0.6574931528855432  0.7468633564704065  0.8911960008470597  1.0000
  C   C51       1.0  0.04889111311746315  0.7699235704425644  0.08605020354265484  1.0000
  C   C52       1.0  0.7195505604682355  0.43926721879849145  0.06466628122032599  1.0000
  C   C53       1.0  0.6999836761477526  0.7518046474994549  0.0855873484675627  1.0000
  C   C54       1.0  0.03902950825664659  0.7615867658382951  0.9443694956913757  1.0000
  C   C55       1.0  0.7214602117930655  0.4385638039676039  0.9271804512946387  1.0000
  C   C56       1.0  0.2980807399739618  0.9154407195282984  0.5660022604813688  1.0000
  C   C57       1.0  0.6834921557107806  0.735426827753443  0.9416927493834419  1.0000
  C   C58       1.0  0.6462831064978547  0.2814710382725636  0.4001905984486739  1.0000
  C   C59       1.0  0.7719598153829141  0.41367214716129314  0.2909563236855702  1.0000
  C   C60       1.0  0.7821318226272211  0.4330299570388476  0.24111697616086755  1.0000
  C   C61       1.0  0.8989500545509017  0.029298720122653797  0.8558635717209595  1.0000
  C   C62       1.0  0.5236822064854894  0.502901637015377  0.6721454434448615  1.0000
  C   C63       1.0  0.8978355428286875  0.5349258289740532  0.22574679405796863  1.0000
  C   C64       1.0  0.38403192060167873  0.7369922346107314  0.7901946158128649  1.0000
  C   C65       1.0  0.753042642020205  0.12489057600168957  0.7433161322086544  1.0000
  O   O1        1.0  0.30227286541733633  0.8318495239996294  0.4399566942275896  1.0000
  O   O2        1.0  0.6968690360568105  0.20755859690356704  0.5625966363596431  1.0000
  O   O3        1.0  0.5134125830597684  0.20531053197976235  0.5622721497819325  1.0000
  O   O4        1.0  0.3076703984104939  0.0070114014712174995  0.5462315143653382  1.0000
  O   O5        1.0  0.5067845854016966  0.0029731948173008995  0.4993318792700021  1.0000
  O   O6        1.0  0.8005286126570115  0.8327015892195037  0.07238933979200367  1.0000
  O   O7        1.0  0.020648156383444423  0.844097991602915  0.07135703754796197  1.0000
  O   O8        1.0  0.028413334507725083  0.667301007316169  0.061071813630064774  1.0000
  O   O9        1.0  0.8238340418092565  0.4688136712203886  0.0474596629286737  1.0000
  O   O10       1.0  0.6354328305557432  0.4552519929251417  0.044922437579216996  1.0000
  O   O11       1.0  0.6209166935023732  0.6489050684894834  0.05888394668953368  1.0000
  O   O12       1.0  0.5173862392297084  0.8356406895565842  0.43196039765458477  1.0000
  O   O13       1.0  0.7837588433616889  0.8210715289946292  0.9647734795112083  1.0000
  O   O14       1.0  0.00426246653925216  0.834250216723724  0.9636204240696028  1.0000
  O   O15       1.0  0.028024393889090445  0.6677299032258474  0.9626133199518773  1.0000
  O   O16       1.0  0.8259987176154484  0.4663411843567928  0.9487246281528666  1.0000
  O   O17       1.0  0.6386852608251631  0.45586337332145627  0.9469904386206093  1.0000
  O   O18       1.0  0.606222349002266  0.6369596781854339  0.958589487375107  1.0000
  O   O19       1.0  0.8251044736853717  0.6660847235727657  0.009525999088864989  1.0000
  O   O20       1.0  0.7066430584388642  0.0083035027960392  0.4504364627851059  1.0000
  O   O21       1.0  0.7039810243517337  0.20897279206079847  0.46450593729448986  1.0000
  O   O22       1.0  0.5220730926486966  0.20890482844977493  0.4645455051524434  1.0000
  O   O23       1.0  0.3118063894205036  0.017018078964788696  0.4484106177095412  1.0000
  O   O24       1.0  0.3320755765459538  0.8414290542125895  0.5478290031424533  1.0000
  O   O25       1.0  0.5450854890530435  0.8354936825942542  0.5372408170278573  1.0000
  O   O26       1.0  0.7219233358622148  0.0212439111303269  0.5500623338751962  1.0000
  O   O27       1.0  0.7859026255438479  0.004541174989512299  0.8285918431901391  1.0000
  O   O28       1.0  0.584010309519286  0.6289274339069023  0.6656477916356776  1.0000
  O   O29       1.0  0.29088222140659775  0.7583811232014949  0.8110528444873706  1.0000
  O   O30       1.0  0.8100379005080286  0.05191961491054538  0.7300772110133947  1.0000
  O   O31       1.0  0.33433110754850043  0.6674037683579072  0.4783422048391655  1.0000
  O   O32       1.0  0.9802182973273263  0.0013727886958677  0.023952287887354394  1.0000
