data_image0
_chemical_formula_structural       Al2H12C28Br2Cl2O10
_chemical_formula_sum              "Al2 H12 C28 Br2 Cl2 O10"
_cell_length_a       6.607589675528611
_cell_length_b       11.129823411942015
_cell_length_c       17.477205228771304
_cell_angle_alpha    87.2290536702411
_cell_angle_beta     80.12094058646892
_cell_angle_gamma    72.58876249036332

_space_group_name_H-M_alt    "P 1"
_space_group_IT_number       1

loop_
  _space_group_symop_operation_xyz
  'x, y, z'

loop_
  _atom_site_type_symbol
  _atom_site_label
  _atom_site_symmetry_multiplicity
  _atom_site_fract_x
  _atom_site_fract_y
  _atom_site_fract_z
  _atom_site_occupancy
  Al  Al1       1.0  0.5151445157221558  0.4654767180561662  0.5035650004577334  1.0000
  Al  Al2       1.0  0.01310425142290948  0.4699424423417609  0.5029571893282851  1.0000
  H   H1        1.0  0.3133261977413042  0.3203458224280593  0.5450397499085826  1.0000
  H   H2        1.0  0.7830594606258215  0.5176773706472276  0.4080365250428033  1.0000
  H   H3        1.0  0.5468176987815735  0.607393887339647  0.2868138922578468  1.0000
  H   H4        1.0  0.5803679971169443  0.6749722643601074  0.14917034067070745  1.0000
  H   H5        1.0  0.17689777054735595  0.45071230953362823  0.10745330217691425  1.0000
  H   H6        1.0  0.7096327664460842  0.7060229800581792  0.8702314898530618  1.0000
  H   H7        1.0  0.385333041482255  0.44576658786799317  0.7359078230411031  1.0000
  H   H8        1.0  0.2743552428422475  0.48139906143448735  0.8787985524433426  1.0000
  H   H9        1.0  0.2553522700605555  0.19890210790264712  0.4024136397082288  1.0000
  H   H10       1.0  0.5068797012456869  0.7317748103750572  0.41629318468299203  1.0000
  H   H11       1.0  0.7804737616789127  0.8476449271050794  0.5530180236267058  1.0000
  H   H12       1.0  0.6589679249065838  0.08333169470685677  0.5508990182812852  1.0000
  C   C1        1.0  0.8790544617271931  0.23835082825941356  0.49741019224374855  1.0000
  C   C2        1.0  0.6854970475070343  0.5092016933763546  0.6400245799455818  1.0000
  C   C3        1.0  0.1615224798674575  0.6938047910270908  0.5009738629366467  1.0000
  C   C4        1.0  0.3213903289244088  0.46600446791171607  0.36113597153324417  1.0000
  C   C5        1.0  0.341176099758023  0.49403713579371095  0.27632808944062504  1.0000
  C   C6        1.0  0.4653088881025481  0.5741765528144355  0.2468980739912824  1.0000
  C   C7        1.0  0.48450314077324935  0.6119945391686554  0.16996187570133972  1.0000
  C   C8        1.0  0.38168415879778905  0.56685784350514  0.11822979841112166  1.0000
  C   C9        1.0  0.25613166171749663  0.48687315481456744  0.14680484718223855  1.0000
  C   C10       1.0  0.23482090235997083  0.45162457973667347  0.22460408565772388  1.0000
  C   C11       1.0  0.41037827706810487  0.5928985864255337  0.03770946253181512  1.0000
  C   C12       1.0  0.4430902005071076  0.6012293411918392  0.9670078030820622  1.0000
  C   C13       1.0  0.48984452295727704  0.5927461042103487  0.8850115896778451  1.0000
  C   C14       1.0  0.6397364339802606  0.6471615590142362  0.8415811818232231  1.0000
  C   C15       1.0  0.7033612454364827  0.6245976716687309  0.7619539169899385  1.0000
  C   C16       1.0  0.6169811580563759  0.5477144562843462  0.7233314030156139  1.0000
  C   C17       1.0  0.45695225411922985  0.5009685038125937  0.7667919915175718  1.0000
  C   C18       1.0  0.39407072254925873  0.5215685943613407  0.8459177705779698  1.0000
  C   C19       1.0  0.9591359041036611  0.09853305594439381  0.4896701288211959  1.0000
  C   C20       1.0  0.17054427165970756  0.0335157247388196  0.45086567501739  1.0000
  C   C21       1.0  0.8210928225589667  0.0316260913165891  0.5238595591645848  1.0000
  C   C22       1.0  0.3078093105318088  0.09680722346101328  0.4061213851608302  1.0000
  C   C23       1.0  0.5053419296965059  0.031111387691908  0.3654056741680095  1.0000
  C   C24       1.0  0.09734993187943529  0.8335325431465818  0.493543451291437  1.0000
  C   C25       1.0  0.8892011685707074  0.8996721824809979  0.5254707774185905  1.0000
  C   C26       1.0  0.24182365616860585  0.8982497928603478  0.4536908703675593  1.0000
  C   C27       1.0  0.44803848777406313  0.8336459485741018  0.4127023310092215  1.0000
  C   C28       1.0  0.5763402178751776  0.8976491202862105  0.3688052383604942  1.0000
  Br  Br1       1.0  0.675480765835978  0.12298538995614186  0.30508789976925504  1.0000
  Br  Br2       1.0  0.8448090815732813  0.8021428628908892  0.3128158484895423  1.0000
  Cl  Cl1       1.0  0.08117024736096574  0.3503512029323942  0.251976245584885  1.0000
  Cl  Cl2       1.0  0.885528310827297  0.6983348439582358  0.7145126695229467  1.0000
  O   O1        1.0  0.6802974116564755  0.2903084437594358  0.4945391252743365  1.0000
  O   O2        1.0  0.8720110634729678  0.5091783041092909  0.6067497510854738  1.0000
  O   O3        1.0  0.02122849204894102  0.6399276037735859  0.4937633661322496  1.0000
  O   O4        1.0  0.4746071339501299  0.47248145173129774  0.3946904627204973  1.0000
  O   O5        1.0  0.3506422558085872  0.6383367055082018  0.5139934440983185  1.0000
  O   O6        1.0  0.14957146732670165  0.44383299816507094  0.39474883698591173  1.0000
  O   O7        1.0  0.012177335737440774  0.2953041713292209  0.509295582372225  1.0000
  O   O8        1.0  0.5526151665848004  0.47385781851789927  0.608510219124007  1.0000
  O   O9        1.0  0.276490765223258  0.4105608297308477  0.5364776819625521  1.0000
  O   O10       1.0  0.7566581195460246  0.5156824438822196  0.46443352998365134  1.0000
