data_image0
_chemical_formula_structural       Al4H36C72O20F4
_chemical_formula_sum              "Al4 H36 C72 O20 F4"
_cell_length_a       6.687122353568694
_cell_length_b       21.72278428041632
_cell_length_c       25.29977572678847
_cell_angle_alpha    95.86587684117383
_cell_angle_beta     89.9918547199925
_cell_angle_gamma    89.9901565944715

_space_group_name_H-M_alt    "P 1"
_space_group_IT_number       1

loop_
  _space_group_symop_operation_xyz
  'x, y, z'

loop_
  _atom_site_type_symbol
  _atom_site_label
  _atom_site_symmetry_multiplicity
  _atom_site_fract_x
  _atom_site_fract_y
  _atom_site_fract_z
  _atom_site_occupancy
  Al  Al1       1.0  0.19454587661891048  0.7494257191813748  0.7495441064224054  1.0000
  Al  Al2       1.0  0.8054608806764206  0.2505760368311699  0.2504570378708024  1.0000
  Al  Al3       1.0  0.6945452579781699  0.750615644387139  0.7504647132021915  1.0000
  Al  Al4       1.0  0.30546000383198907  0.24938574841836217  0.24953722683509477  1.0000
  H   H1        1.0  0.1555845182155693  0.618323044396462  0.4179253654603912  1.0000
  H   H2        1.0  0.8444356982703809  0.38167965547991406  0.582072199339585  1.0000
  H   H3        1.0  0.657216147998362  0.8817253048660592  0.08194767917335347  1.0000
  H   H4        1.0  0.3427547192097435  0.11828221676550753  0.9180478889907205  1.0000
  H   H5        1.0  0.0449504337692659  0.6312789274180234  0.589526117023489  1.0000
  H   H6        1.0  0.9550563242630687  0.36872403922139807  0.41046985775658135  1.0000
  H   H7        1.0  0.5455982370608936  0.8688200343775991  0.910387315577374  1.0000
  H   H8        1.0  0.45439805106684616  0.1311884798933818  0.0896126216123605  1.0000
  H   H9        1.0  0.8162681617739124  0.5451668009087243  0.7225521274911061  1.0000
  H   H10       1.0  0.1837371010986075  0.45483401011477304  0.2774450444705536  1.0000
  H   H11       1.0  0.3148702874468299  0.9548048293972259  0.7775436985501543  1.0000
  H   H12       1.0  0.6850990854154305  0.045194844614606204  0.22245546415136627  1.0000
  H   H13       1.0  0.1977333816765992  0.5563096093972746  0.332798241984797  1.0000
  H   H14       1.0  0.8022703858590459  0.44368914297396606  0.6672009218377113  1.0000
  H   H15       1.0  0.6994548580210775  0.9437163578464266  0.1670829028641876  1.0000
  H   H16       1.0  0.3004950748745827  0.05628229943194896  0.8329154677314746  1.0000
  H   H17       1.0  0.0793803338657284  0.6268136037229725  0.512791976901113  1.0000
  H   H18       1.0  0.9206294157290243  0.3731857295129189  0.4872044033336351  1.0000
  H   H19       1.0  0.5805644164916117  0.8732426162476016  0.9871172885341508  1.0000
  H   H20       1.0  0.4194184150289573  0.12676071448229465  0.0128778911877134  1.0000
  H   H21       1.0  0.656337862227133  0.929161938750056  0.5503091694855442  1.0000
  H   H22       1.0  0.3436524461190161  0.07083344779412219  0.44969636135443375  1.0000
  H   H23       1.0  0.15631980749545699  0.5708516795133393  0.9496751509473569  1.0000
  H   H24       1.0  0.8436779778776112  0.42914695221593047  0.05032679543845119  1.0000
  H   H25       1.0  0.6360677784792655  0.8588881587778944  0.6225738668995646  1.0000
  H   H26       1.0  0.3639434656290703  0.14110722703875214  0.3774316633755816  1.0000
  H   H27       1.0  0.1361733989656102  0.641133961963213  0.8774206694348409  1.0000
  H   H28       1.0  0.8638184047312334  0.35886549345561053  0.12258048038414422  1.0000
  H   H29       1.0  0.270113029045504  0.8787245782015205  0.6488180494797291  1.0000
  H   H30       1.0  0.7299056923990435  0.12127509409541663  0.35118111189039075  1.0000
  H   H31       1.0  0.7702569456174047  0.6212545815617432  0.851184033382232  1.0000
  H   H32       1.0  0.2297483161789273  0.37874480102137653  0.1488202958151987  1.0000
  H   H33       1.0  0.4475751566039606  0.7128864160748237  0.6862320718242855  1.0000
  H   H34       1.0  0.5524420687357008  0.2871132323879024  0.3137706666673736  1.0000
  H   H35       1.0  0.9473912857791048  0.787104332457979  0.8138017255976422  1.0000
  H   H36       1.0  0.05261995750032609  0.21289715710332763  0.1862010089575392  1.0000
  C   C1        1.0  0.4447214139114307  0.6798565923849652  0.8187459308932008  1.0000
  C   C2        1.0  0.5552748757993982  0.3201417731009287  0.18125760591595957  1.0000
  C   C3        1.0  0.9446312529258944  0.8201660791615596  0.6812537668673713  1.0000
  C   C4        1.0  0.0553964410479253  0.1798319458601938  0.3187469877170912  1.0000
  C   C5        1.0  0.4428288339106814  0.8458418879176364  0.8079327649653152  1.0000
  C   C6        1.0  0.5571809146803517  0.1541588021001132  0.19206718927722483  1.0000
  C   C7        1.0  0.9430784016178962  0.6541995054848543  0.6920610226283658  1.0000
  C   C8        1.0  0.05694480538192441  0.3458021529923912  0.3079393265417707  1.0000
  C   C9        1.0  0.0656024581880885  0.40637689550782613  0.3416019990724807  1.0000
  C   C10       1.0  0.9343983180806176  0.5936245213397557  0.658396364004652  1.0000
  C   C11       1.0  0.5659283594766435  0.09358105595913462  0.1583957061105465  1.0000
  C   C12       1.0  0.4340843795524307  0.9064230733269413  0.8416022531574043  1.0000
  C   C13       1.0  0.14753092691906028  0.5148698302447556  0.3499312179542642  1.0000
  C   C14       1.0  0.8524698501027146  0.4851299635256226  0.6500651614980841  1.0000
  C   C15       1.0  0.6487918027828883  0.985133460062308  0.14997575841417904  1.0000
  C   C16       1.0  0.3511596246080444  0.014868927427357887  0.8500230012850452  1.0000
  C   C17       1.0  0.1382705420755101  0.4588845416355839  0.3190472349810918  1.0000
  C   C18       1.0  0.8617302350347912  0.5411152036529572  0.680948747131623  1.0000
  C   C19       1.0  0.6392917074078639  0.04110388745924352  0.1808832570767436  1.0000
  C   C20       1.0  0.3606881331871818  0.9588974816340325  0.8191147092255875  1.0000
  C   C21       1.0  0.0107081338595165  0.4102334504946371  0.394620762600816  1.0000
  C   C22       1.0  0.9892941379679455  0.5897686928189928  0.6053760090284969  1.0000
  C   C23       1.0  0.5106452407330622  0.08971464743085993  0.10541492093273062  1.0000
  C   C24       1.0  0.4893615155264186  0.9102941327717036  0.894583425591577  1.0000
  C   C25       1.0  0.030944346606489103  0.46619703937808776  0.4280537255302406  1.0000
  C   C26       1.0  0.9690713844575427  0.5338023906136087  0.5719434492223954  1.0000
  C   C27       1.0  0.5311335700469328  0.0337799913142121  0.0719541627427063  1.0000
  C   C28       1.0  0.4688642144961078  0.9662271661229482  0.9280422003988917  1.0000
  C   C29       1.0  0.0961936412402622  0.5198208151576936  0.4044804042323662  1.0000
  C   C30       1.0  0.903811621631135  0.48018241782903465  0.5955139802050483  1.0000
  C   C31       1.0  0.5970608285124258  0.9801936895379912  0.09545795207733217  1.0000
  C   C32       1.0  0.4029025618607704  0.019810078203974513  0.9045408042257393  1.0000
  C   C33       1.0  0.9899755638835401  0.4709637446090441  0.48455249153681734  1.0000
  C   C34       1.0  0.010043158875142  0.529033190237989  0.5154430988989135  1.0000
  C   C35       1.0  0.4898633415541411  0.02903245692770891  0.0154643055750512  1.0000
  C   C36       1.0  0.5101329480946787  0.9709723994480226  0.9845320627292153  1.0000
  C   C37       1.0  0.0682152758904451  0.5817937817296582  0.48976621340791127  1.0000
  C   C38       1.0  0.9317974647333003  0.41820705292017385  0.5102273812708306  1.0000
  C   C39       1.0  0.5690315426147449  0.9182333991278997  0.010167270902265097  1.0000
  C   C40       1.0  0.43094979238704667  0.08177174865850392  0.9898314818432682  1.0000
  C   C41       1.0  0.11026864362410288  0.5774132009928223  0.43662217803787234  1.0000
  C   C42       1.0  0.8897440967191129  0.42258819084336363  0.5633722102956753  1.0000
  C   C43       1.0  0.6112909766107961  0.9226120181547799  0.063301875362022  1.0000
  C   C44       1.0  0.38866643221953706  0.07739128957236828  0.9366968821268954  1.0000
  C   C45       1.0  0.7894950032673905  0.9181015219877083  0.572187418353252  1.0000
  C   C46       1.0  0.2105057729736686  0.08189587441508912  0.4278157230441694  1.0000
  C   C47       1.0  0.28952387877022545  0.5819048762777185  0.9278064041095105  1.0000
  C   C48       1.0  0.7104739074145596  0.4180929073741949  0.0721923645836711  1.0000
  C   C49       1.0  0.7780949161991513  0.879154857207894  0.6123399188506086  1.0000
  C   C50       1.0  0.2219103465721446  0.12084157011182134  0.3876628271350668  1.0000
  C   C51       1.0  0.2781802512854625  0.6208505874901817  0.8876553159984225  1.0000
  C   C52       1.0  0.7218100575171604  0.37914656686721326  0.1123458389832308  1.0000
  C   C53       1.0  0.9509280548102764  0.8644042723695123  0.6398158059481602  1.0000
  C   C54       1.0  0.04907720751724299  0.1355948193225984  0.360186139211457  1.0000
  C   C55       1.0  0.45103542044572004  0.635610524302507  0.8601791962128827  1.0000
  C   C56       1.0  0.548965355189452  0.3643892216955181  0.13982433740184771  1.0000
  C   C57       1.0  0.1356143071532045  0.8900945176790388  0.627589769553218  1.0000
  C   C58       1.0  0.8643939457020123  0.10990554283632999  0.3724125708164152  1.0000
  C   C59       1.0  0.6357012160806974  0.6098987627599828  0.8724096253962301  1.0000
  C   C60       1.0  0.3642920837083352  0.39009628430742543  0.12759312398560502  1.0000
  C   C61       1.0  0.1431664411332321  0.9295262208301978  0.5882045595849377  1.0000
  C   C62       1.0  0.856834334752584  0.07047379146317209  0.41179738364678536  1.0000
  C   C63       1.0  0.6432183440474972  0.5704684737959981  0.9117952193880116  1.0000
  C   C64       1.0  0.3567764508576445  0.4295275421466373  0.08820792524418408  1.0000
  C   C65       1.0  0.9738714571406462  0.9443426678329131  0.55884847300225  1.0000
  C   C66       1.0  0.0261293190854701  0.055655140310726395  0.44115427003107033  1.0000
  C   C67       1.0  0.4738800288242899  0.5556533401036745  0.9411477167986463  1.0000
  C   C68       1.0  0.5261087840942125  0.44434488019655294  0.0588546281933304  1.0000
  C   C69       1.0  0.9910320189943818  0.9833433367836761  0.5178686080680279  1.0000
  C   C70       1.0  0.0089627761763538  0.01665253371345439  0.4821333445452609  1.0000
  C   C71       1.0  0.4910227123951074  0.5166503654283688  0.9821326204482476  1.0000
  C   C72       1.0  0.5089556307062111  0.483355775984819  0.01787050208950801  1.0000
  O   O1        1.0  0.6135749787128759  0.8221477674247171  0.7967108660115868  1.0000
  O   O2        1.0  0.3864497235076455  0.1778519777418452  0.2032926669576156  1.0000
  O   O3        1.0  0.11383824979446189  0.6777739687208142  0.7033812889837209  1.0000
  O   O4        1.0  0.8861670122951038  0.3222292888615784  0.2966170698745216  1.0000
  O   O5        1.0  0.2735767637419854  0.6967018023353547  0.8033024320856299  1.0000
  O   O6        1.0  0.7264374720001144  0.3032951572632427  0.1966971328919627  1.0000
  O   O7        1.0  0.7734522274758433  0.8034359345352301  0.6967786071199384  1.0000
  O   O8        1.0  0.22655453046908033  0.19656465862279768  0.30322055252402447  1.0000
  O   O9        1.0  0.2750338639402941  0.8226374708700848  0.792955504800375  1.0000
  O   O10       1.0  0.7249758841505596  0.1773602645937586  0.2070504177324253  1.0000
  O   O11       1.0  0.775283568410522  0.6775170420875442  0.7069469541345724  1.0000
  O   O12       1.0  0.22471720763741837  0.32248328498300083  0.2930537960537691  1.0000
  O   O13       1.0  0.1135962063188174  0.8019619855322305  0.696873269454386  1.0000
  O   O14       1.0  0.886412046551335  0.19803766324229602  0.303129469279348  1.0000
  O   O15       1.0  0.6137273296221649  0.6979591085682133  0.8030551410040374  1.0000
  O   O16       1.0  0.3862689589654167  0.3020439076262917  0.19694878290010825  1.0000
  O   O17       1.0  0.44527436007332  0.7426054920797824  0.7175758614812225  1.0000
  O   O18       1.0  0.5547309026381981  0.2573925822033019  0.2824252910480496  1.0000
  O   O19       1.0  0.9452237887300398  0.7574246008963429  0.7824321351648251  1.0000
  O   O20       1.0  0.0547844636963433  0.24257771225058639  0.2175698027428439  1.0000
  F   F1        1.0  0.32201265843627175  0.9551055410590125  0.5766764183778434  1.0000
  F   F2        1.0  0.6779806409228043  0.04489418060318681  0.42332314101778223  1.0000
  F   F3        1.0  0.8220551330120216  0.5448811581512629  0.9233311883852976  1.0000
  F   F4        1.0  0.1779366707744714  0.4551158268224925  0.07667235161829211  1.0000
