data_image0
_chemical_formula_structural       Cu2H12C12S4N16
_chemical_formula_sum              "Cu2 H12 C12 S4 N16"
_cell_length_a       7.939683811112373
_cell_length_b       8.83338431540974
_cell_length_c       9.826114474557667
_cell_angle_alpha    114.63202975801076
_cell_angle_beta     89.99945417994132
_cell_angle_gamma    90.00047942885091

_space_group_name_H-M_alt    "P 1"
_space_group_IT_number       1

loop_
  _space_group_symop_operation_xyz
  'x, y, z'

loop_
  _atom_site_type_symbol
  _atom_site_label
  _atom_site_symmetry_multiplicity
  _atom_site_fract_x
  _atom_site_fract_y
  _atom_site_fract_z
  _atom_site_occupancy
  Cu  Cu1       1.0  0.9999957415161306  2.306320411100001e-06  2.132278687799999e-06  1.0000
  Cu  Cu2       1.0  0.5000066713402518  0.49999966283408537  0.5000032947969757  1.0000
  H   H1        1.0  0.8324461864949837  0.9589401126866477  0.3367445797627724  1.0000
  H   H2        1.0  0.332448033476723  0.5410595702053059  0.1632586323495957  1.0000
  H   H3        1.0  0.1675545612478047  0.041050647553568416  0.6632515543275019  1.0000
  H   H4        1.0  0.6675476763120046  0.45893623560051117  0.8367364101467842  1.0000
  H   H5        1.0  0.6946275022356831  0.3055245861257774  0.18112545762630114  1.0000
  H   H6        1.0  0.19461885088374942  0.1944698119601611  0.3188732721157805  1.0000
  H   H7        1.0  0.3053757645017398  0.694469888166573  0.8188731384873479  1.0000
  H   H8        1.0  0.8053755994055221  0.8055296863079705  0.6811252418725644  1.0000
  H   H9        1.0  0.6444073665238221  0.1768938201346302  0.5469435720633982  1.0000
  H   H10       1.0  0.14439076007821686  0.3231188200686929  0.9530678183488704  1.0000
  H   H11       1.0  0.35560975468070677  0.8231105727011183  0.4530609164533743  1.0000
  H   H12       1.0  0.8555885762614254  0.6768868610461425  0.046935135553916006  1.0000
  C   C1        1.0  0.2621659718141772  0.840931815881568  0.12963275534369248  1.0000
  C   C2        1.0  0.7621823491079951  0.6590764599690646  0.37036416122446525  1.0000
  C   C3        1.0  0.7378335164670133  0.1590788245368984  0.8703731447221089  1.0000
  C   C4        1.0  0.23782091765964  0.3409205910639059  0.6296313654409289  1.0000
  C   C5        1.0  0.7066486636662858  0.24034581404748687  0.2526660715599078  1.0000
  C   C6        1.0  0.20664524658445063  0.2596536013498607  0.2473355343047814  1.0000
  C   C7        1.0  0.2933546030737801  0.7596523742909228  0.7473349865844554  1.0000
  C   C8        1.0  0.7933517227023686  0.740350856179326  0.752665925897979  1.0000
  C   C9        1.0  0.6796209940812546  0.1780783010780738  0.44038837798363767  1.0000
  C   C10       1.0  0.1796090503737204  0.3219283903078534  0.05961931899739878  1.0000
  C   C11       1.0  0.32038982963162965  0.8219211109068  0.559614173787324  1.0000
  C   C12       1.0  0.8203728049581899  0.6780748219759262  0.9403816570583744  1.0000
  S   S1        1.0  0.43708547780563123  0.7799065463949334  0.17581480186015605  1.0000
  S   S2        1.0  0.9370891165432981  0.7201024445340636  0.32418715170234685  1.0000
  S   S3        1.0  0.5629177889574635  0.2201040724519601  0.8241921076522161  1.0000
  S   S4        1.0  0.0629128907495371  0.2798959164468755  0.6758058307850021  1.0000
  N   N1        1.0  0.1321070249191081  0.8853691581133061  0.09899411612661159  1.0000
  N   N2        1.0  0.6321012136121952  0.6146270670110142  0.40100929561198484  1.0000
  N   N3        1.0  0.8678962418477169  0.114635299431086  0.9010073440577885  1.0000
  N   N4        1.0  0.36790583160395585  0.3853686093379807  0.5989918035968601  1.0000
  N   N5        1.0  0.776490184824105  0.06490023546552949  0.3360057625063249  1.0000
  N   N6        1.0  0.27649190779087  0.43509831512427877  0.1639929330580756  1.0000
  N   N7        1.0  0.22351182243269824  0.9350930583569552  0.6639893210471968  1.0000
  N   N8        1.0  0.7235025425166838  0.5649012478859421  0.8360025525575169  1.0000
  N   N9        1.0  0.7945786913342304  0.10135512359720882  0.21562535015108614  1.0000
  N   N10       1.0  0.29457990487345137  0.3986410023326172  0.28437328103352394  1.0000
  N   N11       1.0  0.2054195374255698  0.8986369034265423  0.7843702586799923  1.0000
  N   N12       1.0  0.7054195834151925  0.6013573154808539  0.7156217203763404  1.0000
  N   N13       1.0  0.6338668488561011  0.2918338628313748  0.3904370029064737  1.0000
  N   N14       1.0  0.1338545137218716  0.20816764837618962  0.10956801460259413  1.0000
  N   N15       1.0  0.3661439748538697  0.7081643039445779  0.60956506467344  1.0000
  N   N16       1.0  0.8661311200887596  0.7918367659642342  0.890435464548382  1.0000
