data_image0
_chemical_formula_structural       Sm2H26C40S2N8O12
_chemical_formula_sum              "Sm2 H26 C40 S2 N8 O12"
_cell_length_a       6.8988082721913155
_cell_length_b       9.980082602970308
_cell_length_c       15.133306534187819
_cell_angle_alpha    84.7063488560696
_cell_angle_beta     79.36728370223403
_cell_angle_gamma    79.96193530856374

_space_group_name_H-M_alt    "P 1"
_space_group_IT_number       1

loop_
  _space_group_symop_operation_xyz
  'x, y, z'

loop_
  _atom_site_type_symbol
  _atom_site_label
  _atom_site_symmetry_multiplicity
  _atom_site_fract_x
  _atom_site_fract_y
  _atom_site_fract_z
  _atom_site_occupancy
  Sm  Sm1       1.0  0.43466140328325764  0.047913014727889405  0.11532308187484828  1.0000
  Sm  Sm2       1.0  0.5653360218663722  0.952089893576009  0.8846754277931765  1.0000
  H   H1        1.0  0.18317774344101417  0.6038770716168146  0.7115118254097155  1.0000
  H   H2        1.0  0.8168167704615925  0.39612581241411965  0.2884882666109903  1.0000
  H   H3        1.0  0.2712614601543705  0.3632071099122314  0.772114385355593  1.0000
  H   H4        1.0  0.7287374765788711  0.636795844269976  0.22788596930701738  1.0000
  H   H5        1.0  0.2716466993502848  0.5055438577057956  0.031039023884261524  1.0000
  H   H6        1.0  0.7283610970342664  0.49445924521442935  0.9689625151048845  1.0000
  H   H7        1.0  0.19360421590053523  0.7460800148012867  0.9712709812611564  1.0000
  H   H8        1.0  0.8063991016932663  0.2539229842258309  0.028727658915158816  1.0000
  H   H9        1.0  0.42075236529748833  0.7600657353869239  0.2534945547521659  1.0000
  H   H10       1.0  0.5792504506876526  0.23993309839323732  0.7464991237360721  1.0000
  H   H11       1.0  0.3716782198550987  0.6639711667930046  0.4137922760664382  1.0000
  H   H12       1.0  0.6283236944590983  0.33602562469045694  0.5862029419009646  1.0000
  H   H13       1.0  0.27404427685696936  0.8258724575147343  0.5378765443458207  1.0000
  H   H14       1.0  0.7259526109169627  0.17412121909382713  0.46212131317435734  1.0000
  H   H15       1.0  0.09997186654267412  0.24647849193967636  0.6987211288319699  1.0000
  H   H16       1.0  0.9000279744483566  0.7535152342482264  0.301277123463727  1.0000
  H   H17       1.0  0.15505383055648989  0.5100544020453486  0.41159507430801073  1.0000
  H   H18       1.0  0.8449426431651335  0.4899413890780054  0.588408625336676  1.0000
  H   H19       1.0  0.22705738152995286  0.5761489290702998  0.24495349091490232  1.0000
  H   H20       1.0  0.7729301242363604  0.4238528749803763  0.755050601617569  1.0000
  H   H21       1.0  0.33246318684974335  0.38981941820713223  0.13728703652797952  1.0000
  H   H22       1.0  0.6675195841345811  0.6101833096837268  0.8627147716043453  1.0000
  H   H23       1.0  0.17123815013611934  0.007513017580258502  0.6408338382829514  1.0000
  H   H24       1.0  0.8287635921269827  0.9924848522492484  0.35916594835353527  1.0000
  H   H25       1.0  0.18118290742219764  0.9914787690529112  0.0037883002005046  1.0000
  H   H26       1.0  0.8188150996600501  0.008522125961683003  0.9962122758558039  1.0000
  C   C1        1.0  0.18218191430356254  0.687652282959114  0.8380803673175807  1.0000
  C   C2        1.0  0.817822255204135  0.3123476834808656  0.1619203838770673  1.0000
  C   C3        1.0  0.2030172946486175  0.5814951383268793  0.7813682959939217  1.0000
  C   C4        1.0  0.7969806844535797  0.41850573981680134  0.2186309619769205  1.0000
  C   C5        1.0  0.25171702214344555  0.4476631249484698  0.8152973165727033  1.0000
  C   C6        1.0  0.7482889646961655  0.552340934520366  0.18470101470634864  1.0000
  C   C7        1.0  0.27829594777124106  0.4193132575029709  0.9050983561519175  1.0000
  C   C8        1.0  0.7217091234074005  0.5806887512337086  0.09490085556356581  1.0000
  C   C9        1.0  0.25261294942781387  0.5276179839018412  0.9611507241406657  1.0000
  C   C10       1.0  0.7473891965137724  0.4723839921264101  0.038849410884772284  1.0000
  C   C11       1.0  0.20578521141823808  0.66193152476189  0.9282578651408857  1.0000
  C   C12       1.0  0.7942172045046194  0.3380694319685276  0.07174231451459427  1.0000
  C   C13       1.0  0.33912901941758383  0.2745154334404206  0.9400425236089093  1.0000
  C   C14       1.0  0.6608757398097111  0.7254875692877222  0.059954666348325227  1.0000
  C   C15       1.0  0.37767942105396907  0.8270147904284999  0.30929303041152423  1.0000
  C   C16       1.0  0.6223216833164146  0.17298505894846986  0.6907020536657456  1.0000
  C   C17       1.0  0.3501367435645621  0.7738895939505211  0.3990980714579351  1.0000
  C   C18       1.0  0.6498690955878106  0.22610933158627236  0.6008992970194811  1.0000
  C   C19       1.0  0.29795351391699404  0.863162759724034  0.4672673323732894  1.0000
  C   C20       1.0  0.7020476743935478  0.13683714026569052  0.5327317059603802  1.0000
  C   C21       1.0  0.2755054130568909  0.004571684191354602  0.4442080290003361  1.0000
  C   C22       1.0  0.7245004260954816  0.9954272413454396  0.5557893394770801  1.0000
  C   C23       1.0  0.22169225245613697  0.10701731779548852  0.5077493056809531  1.0000
  C   C24       1.0  0.77831125738183  0.8929795701790367  0.49225171153744196  1.0000
  C   C25       1.0  0.13826122865156523  0.22661319524799958  0.6277180398479347  1.0000
  C   C26       1.0  0.8617365669963565  0.7733774825152578  0.37228456486151634  1.0000
  C   C27       1.0  0.20173554885591471  0.24693609034731884  0.4835871674100645  1.0000
  C   C28       1.0  0.798269430595589  0.7530608181991454  0.5164137176747161  1.0000
  C   C29       1.0  0.23435545461921234  0.2947714085063425  0.390812629529087  1.0000
  C   C30       1.0  0.7656527340406357  0.7052245218861658  0.6091880359185213  1.0000
  C   C31       1.0  0.20944376051006944  0.43396654317828626  0.3618459486077725  1.0000
  C   C32       1.0  0.7905631342035307  0.566034517445246  0.6381571298605453  1.0000
  C   C33       1.0  0.2454046899391075  0.46987261983429823  0.2706547958474062  1.0000
  C   C34       1.0  0.7545804865128005  0.5301271466541166  0.7293529454260438  1.0000
  C   C35       1.0  0.30399486323494085  0.3663906220037134  0.20984781810916084  1.0000
  C   C36       1.0  0.695999642880679  0.6336072124497534  0.7901579015372491  1.0000
  C   C37       1.0  0.2908909380588582  0.19571967537865484  0.3247572098627388  1.0000
  C   C38       1.0  0.709110036230513  0.8042812776507378  0.675244420011822  1.0000
  C   C39       1.0  0.3097539538602377  0.0504680437949432  0.3512956040172027  1.0000
  C   C40       1.0  0.6902461685152448  0.9495359418215872  0.6487039148390181  1.0000
  S   S1        1.0  0.12730641617194746  0.859346991331549  0.7958441961520037  1.0000
  S   S2        1.0  0.8726910229677075  0.14065592540780614  0.2041549725587544  1.0000
  N   N1        1.0  0.3592408866947209  0.9601601834315902  0.28575005671399384  1.0000
  N   N2        1.0  0.6407612452568402  0.0398417841612044  0.7142494192687041  1.0000
  N   N3        1.0  0.3250961516233843  0.23401012780751534  0.2354173537860049  1.0000
  N   N4        1.0  0.6749009118178365  0.7659886996040086  0.7645827846212683  1.0000
  N   N5        1.0  0.14982597547473384  0.32077190183004234  0.5595918156399906  1.0000
  N   N6        1.0  0.8501796418694879  0.6792230271689591  0.44041377200401405  1.0000
  N   N7        1.0  0.1806974977275715  0.09661930399796151  0.6001782863205207  1.0000
  N   N8        1.0  0.8193062960816847  0.9033765731141872  0.3998234345706492  1.0000
  O   O1        1.0  0.28055914400751897  0.9317244330898548  0.815981872532781  1.0000
  O   O2        1.0  0.7194385651133998  0.06827746435165952  0.184017340808019  1.0000
  O   O3        1.0  0.13364036028634277  0.8552030409094799  0.6986406866091315  1.0000
  O   O4        1.0  0.8663596283919264  0.14479581921046497  0.30135852848819417  1.0000
  O   O5        1.0  0.9306535523394076  0.9164888587515209  0.8451816099677744  1.0000
  O   O6        1.0  0.0693426871679819  0.0835130181180546  0.1548177355066329  1.0000
  O   O7        1.0  0.3942601805796714  0.18500018751561245  0.8817238468272992  1.0000
  O   O8        1.0  0.6057431090340801  0.8150027946405844  0.1182734752635497  1.0000
  O   O9        1.0  0.33252171501957417  0.25218053646767663  0.02461536526674729  1.0000
  O   O10       1.0  0.6674794453109173  0.7478193466511274  0.9753823549814626  1.0000
  O   O11       1.0  0.3134962535412811  0.9435140918924676  0.010170547694713178  1.0000
  O   O12       1.0  0.6865043808166933  0.056487838257467615  0.9898277423361321  1.0000
