data_image0
_chemical_formula_structural       Zn2H24C34N2O17
_chemical_formula_sum              "Zn2 H24 C34 N2 O17"
_cell_length_a       9.88238923801432
_cell_length_b       10.881410682480396
_cell_length_c       15.986450800930427
_cell_angle_alpha    91.97249775500738
_cell_angle_beta     86.45406815810341
_cell_angle_gamma    88.19125669188595

_space_group_name_H-M_alt    "P 1"
_space_group_IT_number       1

loop_
  _space_group_symop_operation_xyz
  'x, y, z'

loop_
  _atom_site_type_symbol
  _atom_site_label
  _atom_site_symmetry_multiplicity
  _atom_site_fract_x
  _atom_site_fract_y
  _atom_site_fract_z
  _atom_site_occupancy
  Zn  Zn1       1.0  0.3586974437612511  0.5046236459658147  0.4978407172148067  1.0000
  Zn  Zn2       1.0  0.659293547135242  0.4920739710593481  0.5033159486569049  1.0000
  H   H1        1.0  0.4237430447043947  0.6898413508671196  0.0944198479766314  1.0000
  H   H2        1.0  0.23668886771186948  0.09445902712323567  0.26040783646509175  1.0000
  H   H3        1.0  0.35575986525848435  0.21512202547113193  0.3637382398123634  1.0000
  H   H4        1.0  0.6905275332368531  0.20650148302663507  0.5672474669939761  1.0000
  H   H5        1.0  0.9520367480059945  0.3397925113850278  0.3518480394319923  1.0000
  H   H6        1.0  0.7971208556822235  0.6837698150845739  0.8027875009883658  1.0000
  H   H7        1.0  0.05458024492459398  0.8137111109919034  0.7854647213836331  1.0000
  H   H8        1.0  0.23967563911580206  0.6955554796378537  0.5997190656500281  1.0000
  H   H9        1.0  0.24327890320044784  0.4399719181386672  0.3580071082872323  1.0000
  H   H10       1.0  0.6933705919843617  0.4540384201912532  0.9053881817204257  1.0000
  H   H11       1.0  0.6599830543385535  0.7124399090141152  0.9283691471548252  1.0000
  H   H12       1.0  0.5424237318626908  0.30620621343491183  0.0484145311150925  1.0000
  H   H13       1.0  0.6773740932249552  0.6258991706076529  0.054093735591230506  1.0000
  H   H14       1.0  0.7275559004133569  0.46864526831982545  0.0481404424819374  1.0000
  H   H15       1.0  0.2799994050995807  0.2927222320387343  0.9410964276567456  1.0000
  H   H16       1.0  0.509804141379128  0.30084382051351344  0.8431194189905613  1.0000
  H   H17       1.0  0.3702217180385077  0.35383949538638154  0.07360494286691481  1.0000
  H   H18       1.0  0.6842456248520604  0.8846211031092608  0.5688181407220226  1.0000
  H   H19       1.0  0.4547924530114146  0.7103808913414369  0.9498056707313082  1.0000
  H   H20       1.0  0.7554676278405381  0.588024838042692  0.6597909621669017  1.0000
  H   H21       1.0  0.260994941630635  0.6300968263200346  0.8835035956991675  1.0000
  H   H22       1.0  0.3018277488084848  0.575340427609774  0.08214015393097902  1.0000
  H   H23       1.0  0.38224897826810167  0.7578544567549274  0.3622546520254843  1.0000
  H   H24       1.0  0.24873613600579603  0.864056877025604  0.2591155841351381  1.0000
  C   C1        1.0  0.5359761269891762  0.7288098079623354  0.486838654071903  1.0000
  C   C2        1.0  0.3020719431728836  0.9173415081687962  0.3050177436913728  1.0000
  C   C3        1.0  0.2952795545966964  0.04700716854679849  0.3059896732575639  1.0000
  C   C4        1.0  0.4632336239988604  0.5102389343175773  0.6608517248535506  1.0000
  C   C5        1.0  0.36251527519697657  0.1153375858474277  0.3638127448191781  1.0000
  C   C6        1.0  0.4419759364972934  0.0577395267172705  0.423461448159884  1.0000
  C   C7        1.0  0.44832169686427653  0.9254751467634247  0.4221865418698911  1.0000
  C   C8        1.0  0.5333748488530788  0.8653922511150115  0.47875802685289415  1.0000
  C   C9        1.0  0.6155875831226395  0.9313663122240287  0.5285509103446486  1.0000
  C   C10       1.0  0.6123367113134747  0.061364024753302715  0.5292773046713108  1.0000
  C   C11       1.0  0.5209232308656125  0.12568182399645883  0.4809768916633247  1.0000
  C   C12       1.0  0.40268505437626345  0.6044127861879786  0.059694668135264806  1.0000
  C   C13       1.0  0.861612445870712  0.6095966158449501  0.6472785654216295  1.0000
  C   C14       1.0  0.9269557863967532  0.6832068382129035  0.703044955192162  1.0000
  C   C15       1.0  0.06355865247366667  0.7170331834408116  0.6846215556614723  1.0000
  C   C16       1.0  0.5100736021558276  0.26116256908990476  0.4922244844147272  1.0000
  C   C17       1.0  0.13545526932825416  0.6697274306261677  0.6134018444182914  1.0000
  C   C18       1.0  0.07368776673015992  0.5871182142864058  0.5591923872289257  1.0000
  C   C19       1.0  0.9332262120096643  0.56140237625371  0.5736953240102522  1.0000
  C   C20       1.0  0.9443750958510151  0.4391183471357465  0.4513512768067969  1.0000
  C   C21       1.0  0.08641406122454501  0.46097648975251804  0.4383347973490785  1.0000
  C   C22       1.0  0.5050068593759106  0.4851165091329364  0.3325918550918844  1.0000
  C   C23       1.0  0.510490903123859  0.5031222505079924  0.076817909966941  1.0000
  C   C24       1.0  0.4007930751871172  0.6253829459442671  0.9651799201971657  1.0000
  C   C25       1.0  0.6359320107383938  0.5328469340467167  0.9357748818697189  1.0000
  C   C26       1.0  0.6477240418664393  0.534381273256983  0.03172519221586611  1.0000
  C   C27       1.0  0.5179463526355192  0.48532884872760473  0.2422206793761319  1.0000
  C   C28       1.0  0.4836129746790688  0.5186598184219591  0.9159346330645165  1.0000
  C   C29       1.0  0.4651721663755524  0.37871182664250097  0.0400704141219705  1.0000
  C   C30       1.0  0.4415233362768091  0.3884621616253768  0.9460599417248687  1.0000
  C   C31       1.0  0.5200063486759703  0.4935158465752919  0.1665471357149357  1.0000
  C   C32       1.0  0.4687566475798661  0.5225420203142122  0.82680446870166  1.0000
  C   C33       1.0  0.4580306040377379  0.517145803864146  0.751523344779649  1.0000
  C   C34       1.0  0.3767783965610576  0.8580147146481566  0.3626116775692055  1.0000
  N   N1        1.0  0.8704663463383255  0.48860074860687064  0.5159946892668471  1.0000
  N   N2        1.0  0.14884983773666252  0.5300606237548777  0.4922987324950796  1.0000
  O   O1        1.0  0.4215044047142626  0.6795062985195983  0.4998247269608385  1.0000
  O   O2        1.0  0.6978606913476924  0.11679444084751371  0.5799944781006374  1.0000
  O   O3        1.0  0.8838555126204284  0.36634753774595213  0.396458970801099  1.0000
  O   O4        1.0  0.8708118411953053  0.7323597818933508  0.7774450778073998  1.0000
  O   O5        1.0  0.1228293429954022  0.7936798963929306  0.7394815139351962  1.0000
  O   O6        1.0  0.14789704029529097  0.40771405076763767  0.3689868106722827  1.0000
  O   O7        1.0  0.6947851582896971  0.6380184363346545  0.8976604182653035  1.0000
  O   O8        1.0  0.30373819641905436  0.3766675232783783  0.9283063695661512  1.0000
  O   O9        1.0  0.5233115773596637  0.29362918103765173  0.9029759294395419  1.0000
  O   O10       1.0  0.6515356425403594  0.6734076372334457  0.4822798243614699  1.0000
  O   O11       1.0  0.3557915665829369  0.4852073053986672  0.625197327431721  1.0000
  O   O12       1.0  0.578672222967228  0.530405977591407  0.6253730245270503  1.0000
  O   O13       1.0  0.4012893190471871  0.3195700188274628  0.4782096205665169  1.0000
  O   O14       1.0  0.616036850461157  0.3144823296424377  0.5191551616980234  1.0000
  O   O15       1.0  0.3824745128488943  0.5033653309049128  0.3651597264435651  1.0000
  O   O16       1.0  0.6094186261215953  0.4708950962048278  0.3727720253715461  1.0000
  O   O17       1.0  0.2641571902308186  0.6409284215296936  0.9442836730502648  1.0000
