data_image0
_chemical_formula_structural       Cd3H42C30N12
_chemical_formula_sum              "Cd3 H42 C30 N12"
_cell_length_a       8.645516520250968
_cell_length_b       8.645563259974674
_cell_length_c       13.883124977065226
_cell_angle_alpha    90.00014635581137
_cell_angle_beta     89.99964803951582
_cell_angle_gamma    120.0003032823904

_space_group_name_H-M_alt    "P 1"
_space_group_IT_number       1

loop_
  _space_group_symop_operation_xyz
  'x, y, z'

loop_
  _atom_site_type_symbol
  _atom_site_label
  _atom_site_symmetry_multiplicity
  _atom_site_fract_x
  _atom_site_fract_y
  _atom_site_fract_z
  _atom_site_occupancy
  Cd  Cd1       1.0  0.46371142265893867  0.4637097514540683  1.9292789940000027e-07  1.0000
  Cd  Cd2       1.0  0.5362955773624662  3.3421759083335194e-06  0.666669477540445  1.0000
  Cd  Cd3       1.0  4.6536546987537e-06  0.5362996068523812  0.3333317149421759  1.0000
  H   H1        1.0  0.525450971824732  0.2295946750456038  0.1327221699267795  1.0000
  H   H2        1.0  0.7704095563392243  0.29585645396618787  0.7993944210198052  1.0000
  H   H3        1.0  0.7041448369243992  0.4745524765432021  0.4660518712731161  1.0000
  H   H4        1.0  0.22959136762701596  0.5254469228680491  0.8672766128853269  1.0000
  H   H5        1.0  0.29585499978690416  0.7704115813847635  0.2006061687456082  1.0000
  H   H6        1.0  0.474554001784895  0.7041427581889719  0.533948590617463  1.0000
  H   H7        1.0  0.6892918749232846  0.24372416152673507  0.21342487769783958  1.0000
  H   H8        1.0  0.7562797593880859  0.4455675773874573  0.8800968575693631  1.0000
  H   H9        1.0  0.5544281659067279  0.3107114345771078  0.5467528814179018  1.0000
  H   H10       1.0  0.2437189976660433  0.6892866637236563  0.7865729824158478  1.0000
  H   H11       1.0  0.44557069123381143  0.7562845282084821  0.1199028576965659  1.0000
  H   H12       1.0  0.3107114395531453  0.5544283681607992  0.4532472167813849  1.0000
  H   H13       1.0  0.3869219223675627  0.08283690054319232  0.2899830244518284  1.0000
  H   H14       1.0  0.9171709540204771  0.3040911513989924  0.9566541282840291  1.0000
  H   H15       1.0  0.6959120599641154  0.6130733122607024  0.6233141401389019  1.0000
  H   H16       1.0  0.08283574905756544  0.386919721906878  0.7100160828085789  1.0000
  H   H17       1.0  0.3040914532224903  0.9171715052528242  0.043344124306109705  1.0000
  H   H18       1.0  0.6130760879544327  0.6959120977116698  0.37668473297908617  1.0000
  H   H19       1.0  0.3566596725870069  0.269049744079865  0.2691975630858536  1.0000
  H   H20       1.0  0.7309574429042057  0.08761222545759022  0.935872251659589  1.0000
  H   H21       1.0  0.9123883212303522  0.6433369338524171  0.6025302422602792  1.0000
  H   H22       1.0  0.26904992636198694  0.3566582438425883  0.730800646514183  1.0000
  H   H23       1.0  0.08761121043630733  0.7309541218056307  0.0641278995019334  1.0000
  H   H24       1.0  0.643338361970798  0.9123874577658311  0.3974697908451148  1.0000
  H   H25       1.0  0.5216156573376834  0.285700703000863  0.352044600595633  1.0000
  H   H26       1.0  0.7143066472009992  0.23591962078175746  0.018715778853802996  1.0000
  H   H27       1.0  0.7640790404430076  0.4783776709453133  0.685374858419074  1.0000
  H   H28       1.0  0.2856995439955483  0.5216149040018933  0.6479541227684962  1.0000
  H   H29       1.0  0.2359196596782525  0.7143052411263469  0.9812842225767895  1.0000
  H   H30       1.0  0.47837775672721233  0.7640779636614424  0.31462553096277895  1.0000
  H   H31       1.0  0.9877758209073089  0.8917906495334188  0.24691223059192413  1.0000
  H   H32       1.0  0.10821306945173595  0.09598284948710756  0.9135866873530176  1.0000
  H   H33       1.0  0.9040064330534249  0.012224329325029178  0.5802401116422828  1.0000
  H   H34       1.0  0.8917907375113641  0.987776456979901  0.753086713920176  1.0000
  H   H35       1.0  0.09598565889654508  0.10821712257435219  0.08641704371760989  1.0000
  H   H36       1.0  0.012226895482136575  0.9040090123442897  0.41975920815006157  1.0000
  H   H37       1.0  0.7861773848703137  0.8593390116383829  0.08480931980855638  1.0000
  H   H38       1.0  0.1406618288656887  0.9268352745047819  0.7514832851365154  1.0000
  H   H39       1.0  0.07315831970828406  0.21382252484864486  0.4181364347619763  1.0000
  H   H40       1.0  0.8593388538562079  0.7861759474932624  0.915188450285001  1.0000
  H   H41       1.0  0.9268348940891256  0.14066893003858633  0.2485194641275044  1.0000
  H   H42       1.0  0.2138213716273825  0.073155440639276  0.5818621600687095  1.0000
  C   C1        1.0  0.7823656968502846  0.7572716084456202  0.13187790041389036  1.0000
  C   C2        1.0  0.24273187747775174  0.025089651721479728  0.7985539141068543  1.0000
  C   C3        1.0  0.9749026882469919  0.21763589552300253  0.4652055172803884  1.0000
  C   C4        1.0  0.7572705061669963  0.7823623609685268  0.8681199900941576  1.0000
  C   C5        1.0  0.025091791926598692  0.24273770328238697  0.2014483040084727  1.0000
  C   C6        1.0  0.21763672244519927  0.9749025325071442  0.5347949288716549  1.0000
  C   C7        1.0  0.6956960437231172  0.4893204570639823  0.187678693805438  1.0000
  C   C8        1.0  0.5106815671512165  0.20637033680192457  0.8543529380317166  1.0000
  C   C9        1.0  0.7936189864945078  0.30430213958531016  0.5210067716896845  1.0000
  C   C10       1.0  0.4893185403330732  0.6956945070376007  0.8123196000087347  1.0000
  C   C11       1.0  0.2063744693501591  0.5106850950801061  0.14564948947618456  1.0000
  C   C12       1.0  0.3043040716268877  0.7936189412716672  0.4789937820668512  1.0000
  C   C13       1.0  0.8808953459951636  0.7734536414894108  0.21303740497653928  1.0000
  C   C14       1.0  0.22655237785219376  0.10743899768573323  0.8797100899287073  1.0000
  C   C15       1.0  0.892550126886931  0.11910323703997243  0.5463645593125079  1.0000
  C   C16       1.0  0.7734519132925184  0.8808949775795082  0.7869617956735979  1.0000
  C   C17       1.0  0.10744309587418137  0.22655591636703315  0.12029277322633898  1.0000
  C   C18       1.0  0.11910228538578566  0.8925501800758581  0.4536346519624032  1.0000
  C   C19       1.0  0.594120994227424  0.2912047946363003  0.2007535994662746  1.0000
  C   C20       1.0  0.7087992273727295  0.30291510582853926  0.867425338002313  1.0000
  C   C21       1.0  0.6970812891299758  0.4058794643445792  0.5340819034303195  1.0000
  C   C22       1.0  0.2912032255142662  0.594118214036932  0.7992457554774146  1.0000
  C   C23       1.0  0.3029161341119603  0.7088025958772233  0.1325753137999044  1.0000
  C   C24       1.0  0.4058795694306169  0.6970807343935803  0.4659186445978634  1.0000
  C   C25       1.0  0.4568261128889617  0.22890596039017908  0.2827915404012273  1.0000
  C   C26       1.0  0.771100863208488  0.22792275303859794  0.9494628849293532  1.0000
  C   C27       1.0  0.7720752692600424  0.5431685238523936  0.6161224741371212  1.0000
  C   C28       1.0  0.22890490137223907  0.45682456212978906  0.7172073212374597  1.0000
  C   C29       1.0  0.22792432721608652  0.7711008165411212  0.050536340704184085  1.0000
  C   C30       1.0  0.543169812594499  0.7720751331075631  0.38387711216493864  1.0000
  N   N1        1.0  0.6663006534468962  0.57750689310226  0.11620283708791847  1.0000
  N   N2        1.0  0.42249702451663745  0.08879060026160343  0.7828770325455636  1.0000
  N   N3        1.0  0.9112023381764729  0.33369786158044684  0.4495305859352001  1.0000
  N   N4        1.0  0.5775054924316976  0.6662967497416474  0.8837953898615183  1.0000
  N   N5        1.0  0.08879014961972585  0.4224993820358803  0.2171249086829121  1.0000
  N   N6        1.0  0.3336991771643979  0.9112011467881018  0.5504698006652688  1.0000
  N   N7        1.0  0.8252696261730108  0.6040887484576202  0.2481461889731378  1.0000
  N   N8        1.0  0.39591557184452586  0.22117808916079426  0.9148201043675073  1.0000
  N   N9        1.0  0.7788121097276103  0.17472898547046598  0.5814736321191061  1.0000
  N   N10       1.0  0.6040880230713409  0.8252697358286267  0.7518532675527682  1.0000
  N   N11       1.0  0.22118125986980888  0.3959198337836368  0.085182436823338  1.0000
  N   N12       1.0  0.17473153574695002  0.7788132030773054  0.41852636553873157  1.0000
