data_image0
_chemical_formula_structural       K2P4H22C24O12
_chemical_formula_sum              "K2 P4 H22 C24 O12"
_cell_length_a       5.820327386874295
_cell_length_b       7.662257057817687
_cell_length_c       14.92217223195223
_cell_angle_alpha    79.07623719453179
_cell_angle_beta     91.03221025897135
_cell_angle_gamma    86.06271373294135

_space_group_name_H-M_alt    "P 1"
_space_group_IT_number       1

loop_
  _space_group_symop_operation_xyz
  'x, y, z'

loop_
  _atom_site_type_symbol
  _atom_site_label
  _atom_site_symmetry_multiplicity
  _atom_site_fract_x
  _atom_site_fract_y
  _atom_site_fract_z
  _atom_site_occupancy
  K   K1        1.0  0.2697142496253448  0.21249772717108334  6.932126067479721e-05  1.0000
  K   K2        1.0  0.7302668640677438  0.7875182664369192  0.9999354245808191  1.0000
  P   P1        1.0  0.7277157477950451  0.3395237097996783  0.8458082087948994  1.0000
  P   P2        1.0  0.272286302496198  0.6604762451858194  0.15418720183387782  1.0000
  P   P3        1.0  0.18336232594102597  0.8259556379742322  0.8400661857038967  1.0000
  P   P4        1.0  0.8166360545566959  0.17403896976990293  0.15993983826278677  1.0000
  H   H1        1.0  0.9376536301310238  0.5635594843392298  0.8709216748709137  1.0000
  H   H2        1.0  0.062342879251175994  0.436433807815007  0.12908181063028215  1.0000
  H   H3        1.0  0.49846456720462834  0.5506753167501228  0.678222024822446  1.0000
  H   H4        1.0  0.5015527082451356  0.4493272395183609  0.32177300526371505  1.0000
  H   H5        1.0  0.936265768267944  0.07357519137845259  0.8796917365449273  1.0000
  H   H6        1.0  0.06373683650157602  0.9264207578075838  0.12030607329113246  1.0000
  H   H7        1.0  0.6270769628397801  0.6273198772072771  0.5214673637538425  1.0000
  H   H8        1.0  0.3729358768272917  0.37269867139128365  0.47853016279150734  1.0000
  H   H9        1.0  0.4208072759794489  0.5772589063244881  0.8763299337879216  1.0000
  H   H10       1.0  0.5791972313410482  0.4227357004579203  0.12366866225464426  1.0000
  H   H11       1.0  0.2685560224272122  0.3107629845023751  0.6011364503805225  1.0000
  H   H12       1.0  0.7314543602105982  0.6892609122992753  0.3988578907510315  1.0000
  H   H13       1.0  0.14267769497936905  0.2409311801334653  0.7571356989435214  1.0000
  H   H14       1.0  0.8573342920090284  0.7590714025622065  0.2428580310382101  1.0000
  H   H15       1.0  0.010227128354983968  0.771369554884899  0.6611226214368526  1.0000
  H   H16       1.0  0.9897591108857567  0.22862643557777323  0.33888336784494294  1.0000
  H   H17       1.0  0.15640029797614824  0.8496037141132505  0.5069092894207755  1.0000
  H   H18       1.0  0.8435786645049601  0.15039231994531826  0.4930927319014414  1.0000
  H   H19       1.0  0.7267369908162636  0.08948470457254838  0.6145769799735203  1.0000
  H   H20       1.0  0.27326782709393177  0.9104899079364657  0.38542625182761  1.0000
  H   H21       1.0  0.5799713136327753  0.009849944460022199  0.767381647214421  1.0000
  H   H22       1.0  0.4200257140198218  0.990136686409123  0.23262181488897934  1.0000
  C   C1        1.0  0.809710218872489  0.38868751970449716  0.7287913245908724  1.0000
  C   C2        1.0  0.19030155185435382  0.6113190562511834  0.2712033579140679  1.0000
  C   C3        1.0  0.6671947535097189  0.49779468514017106  0.6610735826328875  1.0000
  C   C4        1.0  0.33281206697248666  0.5022119047032375  0.3389231514981218  1.0000
  C   C5        1.0  0.7418192249529053  0.5407503986447181  0.5719162524301566  1.0000
  C   C6        1.0  0.25818971053339357  0.4592734952625007  0.42808078361505136  1.0000
  C   C7        1.0  0.9596830739247791  0.47633795069046403  0.5472711961654042  1.0000
  C   C8        1.0  0.04033646991970128  0.5236832323688603  0.45272668782970255  1.0000
  C   C9        1.0  0.09940171388586795  0.36559026031071085  0.6161624717634167  1.0000
  C   C10       1.0  0.9006094528232963  0.6344216516951348  0.3838303524906833  1.0000
  C   C11       1.0  0.027303792014741576  0.32368673196791053  0.705337468165453  1.0000
  C   C12       1.0  0.9727078615293506  0.6763211767463629  0.2946570849498328  1.0000
  C   C13       1.0  0.2835505960803245  0.8854986019625173  0.7253701656564642  1.0000
  C   C14       1.0  0.7164442632203316  0.11449469482096217  0.2746340037200881  1.0000
  C   C15       1.0  0.16703475966730955  0.8417386139958721  0.6505774625962102  1.0000
  C   C16       1.0  0.832949964778578  0.1582573760802575  0.34943055125314254  1.0000
  C   C17       1.0  0.25163831215553506  0.8869101522961598  0.5630006068656427  1.0000
  C   C18       1.0  0.7483465790124982  0.1130831747706722  0.4370069954169366  1.0000
  C   C19       1.0  0.4546644560664958  0.9767579104910452  0.5466329940876659  1.0000
  C   C20       1.0  0.5453171616014885  0.023227454361609997  0.4533700488225775  1.0000
  C   C21       1.0  0.5691362087597794  0.0200365250673897  0.6227369260514591  1.0000
  C   C22       1.0  0.4308541690272277  0.9799514545694306  0.37726981250980157  1.0000
  C   C23       1.0  0.48593112372383007  0.9751159103750241  0.7102295831255316  1.0000
  C   C24       1.0  0.5140674368275667  0.024872048623478797  0.2897730657128576  1.0000
  O   O1        1.0  0.905749396224401  0.4244406633813825  0.9015492617386297  1.0000
  O   O2        1.0  0.09425029136573218  0.5755486387938263  0.09844855175813894  1.0000
  O   O3        1.0  0.47854596682439166  0.4014512650434127  0.8552225771317479  1.0000
  O   O4        1.0  0.5214488381426746  0.5985460755444622  0.14476711327846906  1.0000
  O   O5        1.0  0.7629340620047385  0.13287081775640533  0.881914774997355  1.0000
  O   O6        1.0  0.23706547694541766  0.86713050220375  0.11807381631001587  1.0000
  O   O7        1.0  0.15762797072515872  0.9906006794667163  0.8843930032946117  1.0000
  O   O8        1.0  0.8423721951408041  0.009393918632390797  0.11561367748891627  1.0000
  O   O9        1.0  0.38250227532495973  0.6990757092479287  0.8968546671511743  1.0000
  O   O10       1.0  0.617495514486599  0.30092024881004414  0.1031465350031482  1.0000
  O   O11       1.0  0.9595673833765516  0.7338745819500616  0.8374481858091938  1.0000
  O   O12       1.0  0.0404292479608159  0.2661226909247246  0.16255960394571636  1.0000
