data_image0
_chemical_formula_structural       Zn6H48C84N4O24
_chemical_formula_sum              "Zn6 H48 C84 N4 O24"
_cell_length_a       14.81270657086152
_cell_length_b       14.81273172386098
_cell_length_c       16.457766214143263
_cell_angle_alpha    103.20611497793236
_cell_angle_beta     103.20521862377659
_cell_angle_gamma    115.87851510705572

_space_group_name_H-M_alt    "P 1"
_space_group_IT_number       1

loop_
  _space_group_symop_operation_xyz
  'x, y, z'

loop_
  _atom_site_type_symbol
  _atom_site_label
  _atom_site_symmetry_multiplicity
  _atom_site_fract_x
  _atom_site_fract_y
  _atom_site_fract_z
  _atom_site_occupancy
  Zn  Zn1       1.0  0.4705441967021428  0.07259511398836332  0.07585195428420377  1.0000
  Zn  Zn2       1.0  0.9274039126360449  0.5294566051693722  0.4241499309658607  1.0000
  Zn  Zn3       1.0  0.5294535110588825  0.9274045672265389  0.9241450586968866  1.0000
  Zn  Zn4       1.0  0.0725970407793497  0.470546120058792  0.5758483203515468  1.0000
  Zn  Zn5       1.0  0.6718199905816178  0.3281754484320203  0.2500005559614067  1.0000
  Zn  Zn6       1.0  0.3281785993793136  0.6718184983733125  0.7500003635948856  1.0000
  H   H1        1.0  0.5229783844401934  0.4609932196021162  0.1647166768352476  1.0000
  H   H2        1.0  0.5390053433822359  0.4770233550304397  0.33528705201484843  1.0000
  H   H3        1.0  0.477022565021869  0.5390067369484726  0.8352816363251846  1.0000
  H   H4        1.0  0.46099485850743344  0.5229769411458632  0.6647136117923225  1.0000
  H   H5        1.0  0.4221788242569317  0.5572929892584495  0.15579163370273355  1.0000
  H   H6        1.0  0.44270491845988136  0.5778228032700523  0.34421211199249047  1.0000
  H   H7        1.0  0.577823757734052  0.44270780782222374  0.8442077741017968  1.0000
  H   H8        1.0  0.5572936606026033  0.4221759708996231  0.6557879326465255  1.0000
  H   H9        1.0  0.1233808713219489  0.25624916612817833  0.07441853215046018  1.0000
  H   H10       1.0  0.7437500706423279  0.8766183238465713  0.4255789031417194  1.0000
  H   H11       1.0  0.8766210195119297  0.7437541005506034  0.9255854799945098  1.0000
  H   H12       1.0  0.25625175527123634  0.12337934844856588  0.5744227792749326  1.0000
  H   H13       1.0  0.22625074338512258  0.16081025692441386  0.08434487568631967  1.0000
  H   H14       1.0  0.8391883178551254  0.7737463324925926  0.4156500124054788  1.0000
  H   H15       1.0  0.77374948186133  0.8391914449763647  0.9156566772297267  1.0000
  H   H16       1.0  0.16081179515907704  0.22624903651947653  0.5843472328438466  1.0000
  H   H17       1.0  0.8640937970790361  0.39424433645367435  0.078813057510942  1.0000
  H   H18       1.0  0.6057581835454114  0.13590705073897166  0.42118719669787186  1.0000
  H   H19       1.0  0.13590376934455148  0.605751056302168  0.9211782213755908  1.0000
  H   H20       1.0  0.3942325840578462  0.8640892544187011  0.5788223709620579  1.0000
  H   H21       1.0  0.0118817239595543  0.4309065274294497  0.019094393368753473  1.0000
  H   H22       1.0  0.5690934417243055  0.9881163498292337  0.4809055815083951  1.0000
  H   H23       1.0  0.9881191969956757  0.5690934006068886  0.9809026930845021  1.0000
  H   H24       1.0  0.43090206847320184  0.011876101258600558  0.5191011223563534  1.0000
  H   H25       1.0  0.21146342924667746  0.44249301556893533  0.2618813199857115  1.0000
  H   H26       1.0  0.5575061297538823  0.7885358923713781  0.2381174189006927  1.0000
  H   H27       1.0  0.7885391327424783  0.5575112174087239  0.7381169371462589  1.0000
  H   H28       1.0  0.44249259519772716  0.2114678659910325  0.7618884977105296  1.0000
  H   H29       1.0  0.0641505990775713  0.40726761431005803  0.3215075280737238  1.0000
  H   H30       1.0  0.5927351995601313  0.9358472715329925  0.17849061087746781  1.0000
  H   H31       1.0  0.9358503337376406  0.5927406197589847  0.678489372850457  1.0000
  H   H32       1.0  0.40725951276124306  0.06415514539496314  0.821515467092297  1.0000
  H   H33       1.0  0.39068061044327607  0.6660958930125033  0.9598323902361656  1.0000
  H   H34       1.0  0.33390128895093335  0.6093253920171762  0.5401623350319368  1.0000
  H   H35       1.0  0.6093210398776208  0.3339009124634345  0.0401617940597774  1.0000
  H   H36       1.0  0.6661022811254397  0.3906815266406412  0.459844549974882  1.0000
  H   H37       1.0  0.3033475642435661  0.4962770811530959  0.9874057361688954  1.0000
  H   H38       1.0  0.5037220773622693  0.6966592917798522  0.5125920060616238  1.0000
  H   H39       1.0  0.6966533430566102  0.5037207596822172  0.01259093665142797  1.0000
  H   H40       1.0  0.4962798328750749  0.30334261194583684  0.4874129570352395  1.0000
  H   H41       1.0  0.1943027587842465  0.643041761576633  0.16952296083604068  1.0000
  H   H42       1.0  0.35695923002245417  0.8056990903065755  0.3304714820628405  1.0000
  H   H43       1.0  0.8056997376862394  0.35695894996127436  0.8304727668469593  1.0000
  H   H44       1.0  0.6430425206707111  0.19429574202536054  0.6695271954288842  1.0000
  H   H45       1.0  0.2751677116185788  0.8099021646289374  0.13564260659114066  1.0000
  H   H46       1.0  0.1900973708375346  0.7248336982799017  0.3643514589850056  1.0000
  H   H47       1.0  0.7248355797362434  0.1900989457883212  0.8643527483835169  1.0000
  H   H48       1.0  0.8099035837745772  0.2751648810604691  0.635647191773728  1.0000
  C   C1        1.0  0.4447229830558328  0.2502927903891745  0.13062106718280117  1.0000
  C   C2        1.0  0.7497018451404286  0.5552723170020855  0.3693760445547054  1.0000
  C   C3        1.0  0.555278831959285  0.7497097092702986  0.8693797403165745  1.0000
  C   C4        1.0  0.2502941645730131  0.4447230022429878  0.6306173443333093  1.0000
  C   C5        1.0  0.38115797902359816  0.3046590603770198  0.12416239653007469  1.0000
  C   C6        1.0  0.695339226542977  0.6188422544575902  0.37583540992717  1.0000
  C   C7        1.0  0.618843065062336  0.6953423731836851  0.8758398725071713  1.0000
  C   C8        1.0  0.3046617086656767  0.3811576878358736  0.6241622898796704  1.0000
  C   C9        1.0  0.43524926163841116  0.4164878541416499  0.14372435077390822  1.0000
  C   C10       1.0  0.5835091669803346  0.5647504730763871  0.3562747289921759  1.0000
  C   C11       1.0  0.5647517824475229  0.5835135794190549  0.8562779182633449  1.0000
  C   C12       1.0  0.4164877373913426  0.43524534484792804  0.6437225806626328  1.0000
  C   C13       1.0  0.3788170665000337  0.47019482745510993  0.13872068478750074  1.0000
  C   C14       1.0  0.5298037688700106  0.6211852196210328  0.36128058821768144  1.0000
  C   C15       1.0  0.6211847679185423  0.5298063092512706  0.8612810736637754  1.0000
  C   C16       1.0  0.4701940101580958  0.37881453287950956  0.6387194915313614  1.0000
  C   C17       1.0  0.26562319596438033  0.4129495178181912  0.11267817791548397  1.0000
  C   C18       1.0  0.5870486390948244  0.7343770416605224  0.38732056697720907  1.0000
  C   C19       1.0  0.7343794521436349  0.5870527277583334  0.8873239590586833  1.0000
  C   C20       1.0  0.4129507685088711  0.2656207826925367  0.6126806692589638  1.0000
  C   C21       1.0  0.21100758447035864  0.3009222583627675  0.09399249064753687  1.0000
  C   C22       1.0  0.6990794012397215  0.7889930038082226  0.40600721768381476  1.0000
  C   C23       1.0  0.7889943348703596  0.699081036830272  0.9060127482046098  1.0000
  C   C24       1.0  0.30092320530476246  0.2110050531091403  0.5939934786709172  1.0000
  C   C25       1.0  0.2683410516586875  0.24767947501700152  0.0996746101484121  1.0000
  C   C26       1.0  0.7523185604448058  0.73165675767914  0.4003224536808219  1.0000
  C   C27       1.0  0.7316608722337178  0.7523245159097056  0.9003307665813763  1.0000
  C   C28       1.0  0.24767589770852538  0.2683371108449464  0.5996733828069907  1.0000
  C   C29       1.0  0.8709827324074126  0.3848214138365905  0.24261122101428617  1.0000
  C   C30       1.0  0.6151799121571172  0.12901492672266096  0.25738805581629975  1.0000
  C   C31       1.0  0.1290158318032937  0.6151794190198528  0.7573880105504712  1.0000
  C   C32       1.0  0.3848155295299165  0.8709843676448942  0.7426151199961524  1.0000
  C   C33       1.0  0.955635695273223  0.39986941522894875  0.2042584626381938  1.0000
  C   C34       1.0  0.6001322380240309  0.044362813144751025  0.29574116504389986  1.0000
  C   C35       1.0  0.044361997636023894  0.6001323246727209  0.7957377372686523  1.0000
  C   C36       1.0  0.39986247944739267  0.9556382265729795  0.7042652505241662  1.0000
  C   C37       1.0  0.9406575950131283  0.4056942581229919  0.11861072627736038  1.0000
  C   C38       1.0  0.5943065550344215  0.0593397413740391  0.38138925899674087  1.0000
  C   C39       1.0  0.0593392465964868  0.594304952926926  0.88138359264412  1.0000
  C   C40       1.0  0.4056874109112697  0.9406588692918304  0.6186195690610887  1.0000
  C   C41       1.0  0.0229107966517645  0.42602976166186574  0.0854408058633638  1.0000
  C   C42       1.0  0.5739712403382881  0.9770897041109591  0.41455791534430375  1.0000
  C   C43       1.0  0.9770885060279679  0.5739693401015202  0.9145557992993713  1.0000
  C   C44       1.0  0.42602586753454114  0.022909082090706096  0.5854479194177316  1.0000
  C   C45       1.0  0.12109563015154376  0.44023505351655956  0.13735067997586003  1.0000
  C   C46       1.0  0.5597659141453093  0.8789054958675492  0.3626487836324586  1.0000
  C   C47       1.0  0.8789052953553734  0.5597655702534469  0.86264654435503  1.0000
  C   C48       1.0  0.4402344205767789  0.1210956243565704  0.6373575382346528  1.0000
  C   C49       1.0  0.13502714626945786  0.43125169617302817  0.22178396805413308  1.0000
  C   C50       1.0  0.5687484798941114  0.8649721114770088  0.2782135955516197  1.0000
  C   C51       1.0  0.8649713557775413  0.5687504568651178  0.7782124724979693  1.0000
  C   C52       1.0  0.4312486501387837  0.13503222633691786  0.7217927288779646  1.0000
  C   C53       1.0  0.0530004514946967  0.41169722029255246  0.2550662546579829  1.0000
  C   C54       1.0  0.5883045289486617  0.9469986743139742  0.24493142343028038  1.0000
  C   C55       1.0  0.9470012534464232  0.5883079339874655  0.744929584169661  1.0000
  C   C56       1.0  0.41168857479895127  0.05300223486447914  0.755074648724914  1.0000
  C   C57       1.0  0.39808401239958596  0.851995684536831  0.03411067063861842  1.0000
  C   C58       1.0  0.14800302407769547  0.6019196817744827  0.46588189914317707  1.0000
  C   C59       1.0  0.601920027724354  0.14800094036693417  0.9658827331306269  1.0000
  C   C60       1.0  0.8519996046268544  0.3980839267551416  0.5341192868790967  1.0000
  C   C61       1.0  0.3408397140152814  0.7497400916059007  0.04791546130844177  1.0000
  C   C62       1.0  0.2502567382917462  0.659162898861304  0.4520762097762159  1.0000
  C   C63       1.0  0.6591611032127174  0.25025696795297847  0.9520773935127024  1.0000
  C   C64       1.0  0.7497483839430856  0.34084339757360743  0.5479284273514722  1.0000
  C   C65       1.0  0.34807633459652715  0.6605704925881639  0.006032630712219542  1.0000
  C   C66       1.0  0.3394286126990025  0.6519277226701944  0.49396274253415834  1.0000
  C   C67       1.0  0.6519245156899911  0.33942729121864085  0.9939615886937503  1.0000
  C   C68       1.0  0.6605741054793697  0.3480787400797567  0.5060420617666351  1.0000
  C   C69       1.0  0.2990213879161416  0.565738035429149  0.021346341587360505  1.0000
  C   C70       1.0  0.43425972267332463  0.700984069035961  0.4786481129676118  1.0000
  C   C71       1.0  0.7009810669908132  0.4342584874495898  0.9786479454761973  1.0000
  C   C72       1.0  0.5657445916204793  0.29901766837468796  0.5213566829561458  1.0000
  C   C73       1.0  0.24608338301042915  0.5592955188969099  0.08274712196678985  1.0000
  C   C74       1.0  0.4407037248034413  0.7539186091141944  0.41724970018929497  1.0000
  C   C75       1.0  0.753917533393114  0.44070371340575326  0.9172498266088167  1.0000
  C   C76       1.0  0.5592989427080326  0.2460822735092449  0.5827533877367727  1.0000
  C   C77       1.0  0.2358025419277466  0.6474528922937708  0.12249184935916446  1.0000
  C   C78       1.0  0.3525475453962414  0.7642027880462763  0.3775047327371013  1.0000
  C   C79       1.0  0.7642007591288049  0.352547536646945  0.8775039810914436  1.0000
  C   C80       1.0  0.6474559027461523  0.23579847919938152  0.6224973691270462  1.0000
  C   C81       1.0  0.2816289879137486  0.7409075641270417  0.10411680002642493  1.0000
  C   C82       1.0  0.25909411419536343  0.7183736314211798  0.3958780037006163  1.0000
  C   C83       1.0  0.7183726948673054  0.2590920385407145  0.8958785491336769  1.0000
  C   C84       1.0  0.7409093384987171  0.2816283315581529  0.6041242360411728  1.0000
  N   N1        1.0  0.2074615106518038  0.467062061489301  0.1056866623898856  1.0000
  N   N2        1.0  0.532939053793811  0.792539705725069  0.3943099992275662  1.0000
  N   N3        1.0  0.7925377726244774  0.5329384032271777  0.8943089918209564  1.0000
  N   N4        1.0  0.467064475317393  0.20746095132967915  0.6056956448804769  1.0000
  O   O1        1.0  0.5474062777588243  0.3099759270877699  0.1563492609034185  1.0000
  O   O2        1.0  0.6900202974765646  0.4525923478931446  0.34365155535117947  1.0000
  O   O3        1.0  0.4525939480859904  0.6900237018691088  0.8436524917332875  1.0000
  O   O4        1.0  0.30997739722776174  0.5474031731768463  0.6563452437176522  1.0000
  O   O5        1.0  0.39414107393313447  0.14743244778749434  0.10891097195979427  1.0000
  O   O6        1.0  0.852563237396147  0.6058563158298257  0.39108639094684605  1.0000
  O   O7        1.0  0.6058590760929121  0.8525664141500754  0.8910875760313246  1.0000
  O   O8        1.0  0.1474326485882358  0.3941395708347739  0.6089016156365047  1.0000
  O   O9        1.0  0.7774390814655942  0.3586109627432705  0.1906559246992073  1.0000
  O   O10       1.0  0.6413888963185242  0.22255856706456703  0.30934474930384676  1.0000
  O   O11       1.0  0.2225570228717046  0.6413858335119116  0.8093414200656284  1.0000
  O   O12       1.0  0.35860978647119157  0.7774430755825606  0.6906595269672735  1.0000
  O   O13       1.0  0.8939267094903725  0.3983438290625188  0.32608899877798336  1.0000
  O   O14       1.0  0.6016580047142455  0.1060717870600171  0.17391169225700753  1.0000
  O   O15       1.0  0.10607256923421457  0.6016559399202848  0.6739065175552169  1.0000
  O   O16       1.0  0.3983350814249818  0.8939242662398428  0.8260940281082866  1.0000
  O   O17       1.0  0.47656086909354656  0.8658789053147158  0.008015952755897544  1.0000
  O   O18       1.0  0.1341208239392628  0.5234411776371459  0.49197847120840515  1.0000
  O   O19       1.0  0.5234408615977983  0.1341193629142055  0.9919815740632741  1.0000
  O   O20       1.0  0.8658809671207095  0.4765619892417449  0.5080212474614356  1.0000
  O   O21       1.0  0.3689603942185683  0.9214538779072542  0.05214075169838137  1.0000
  O   O22       1.0  0.07854386098993159  0.6310401627217032  0.4478547400963463  1.0000
  O   O23       1.0  0.6310396514818775  0.07854418849674953  0.9478533649399663  1.0000
  O   O24       1.0  0.9214571351857046  0.36896260527783653  0.5521453512818226  1.0000
