data_image0
_chemical_formula_structural       Cu16H40C72O56
_chemical_formula_sum              "Cu16 H40 C72 O56"
_cell_length_a       6.953023479002709
_cell_length_b       19.365408608424538
_cell_length_c       19.36532831441162
_cell_angle_alpha    89.98220825474802
_cell_angle_beta     90.00000391922784
_cell_angle_gamma    89.99989945446085

_space_group_name_H-M_alt    "P 1"
_space_group_IT_number       1

loop_
  _space_group_symop_operation_xyz
  'x, y, z'

loop_
  _atom_site_type_symbol
  _atom_site_label
  _atom_site_symmetry_multiplicity
  _atom_site_fract_x
  _atom_site_fract_y
  _atom_site_fract_z
  _atom_site_occupancy
  Cu  Cu1       1.0  0.4999866123192334  0.6787416633204726  0.17874880829488393  1.0000
  Cu  Cu2       1.0  0.5000078537856467  0.8212468700796407  0.3212561551106106  1.0000
  Cu  Cu3       1.0  0.5000033526740636  0.3212922831183675  0.6787075342197395  1.0000
  Cu  Cu4       1.0  0.5000037138268922  0.17870511591915056  0.8212968417619989  1.0000
  Cu  Cu5       1.0  0.49998898507015355  0.32125414274145203  0.8212576683113537  1.0000
  Cu  Cu6       1.0  0.5000152049854591  0.17874274007264288  0.6787456749768808  1.0000
  Cu  Cu7       1.0  0.4999966945232829  0.6786983587682939  0.32130100873582984  1.0000
  Cu  Cu8       1.0  0.4999992098012456  0.8212917235448812  0.17870550358961879  1.0000
  Cu  Cu9       1.0  0.3572203428286826  0.5291861969588325  0.5291528713259694  1.0000
  Cu  Cu10      1.0  0.3572106848917755  0.9708501103092145  0.9708191317271045  1.0000
  Cu  Cu11      1.0  0.35714448174761776  0.9707859638769348  0.5292113380778857  1.0000
  Cu  Cu12      1.0  0.3571312179693892  0.5292074790219343  0.9707895892900635  1.0000
  Cu  Cu13      1.0  0.6428573234240388  0.47079039281514656  0.029215337835154297  1.0000
  Cu  Cu14      1.0  0.6428670712214098  0.029210358959161905  0.47079255651447477  1.0000
  Cu  Cu15      1.0  0.6427879239830574  0.029179782666474797  0.029151708897018097  1.0000
  Cu  Cu16      1.0  0.6427768278163626  0.47084627834159676  0.470815386963146  1.0000
  H   H1        1.0  0.9993106821293265  0.5691710146435653  0.3607746198732612  1.0000
  H   H2        1.0  0.9993025892903873  0.930821850356473  0.1392277723735944  1.0000
  H   H3        1.0  0.9992988045464628  0.13921330981515473  0.569155947094167  1.0000
  H   H4        1.0  0.9992695383409894  0.36078790405495903  0.9308484397425544  1.0000
  H   H5        1.0  0.0007037698339331999  0.43084358032950826  0.8607860656557236  1.0000
  H   H6        1.0  0.0007391438323551999  0.0691505209024115  0.6392141682962347  1.0000
  H   H7        1.0  0.0006968911108842  0.8607730699605297  0.0691716598147778  1.0000
  H   H8        1.0  0.0006859607583606999  0.6392261079552454  0.4308296757824621  1.0000
  H   H9        1.0  0.0006979943930005999  0.4308253085141375  0.6392272091717786  1.0000
  H   H10       1.0  0.0006988961256908999  0.06917034180622747  0.8607735409259475  1.0000
  H   H11       1.0  0.0007271306488049999  0.8607855948596207  0.43084846348430256  1.0000
  H   H12       1.0  0.0006988679129663  0.6392156483406951  0.069154420953204  1.0000
  H   H13       1.0  0.9992747039962991  0.5691542922323336  0.1392142139879695  1.0000
  H   H14       1.0  0.9992982971672362  0.9308406387200632  0.36078559600360177  1.0000
  H   H15       1.0  0.999308908952237  0.13922841728542318  0.9308286192679983  1.0000
  H   H16       1.0  0.999311209976277  0.36077124677284894  0.56917989890443  1.0000
  H   H17       1.0  0.48344033165961514  0.48517982412206345  0.24997775825809032  1.0000
  H   H18       1.0  0.4834414750429019  0.014824645407159692  0.2500167058020891  1.0000
  H   H19       1.0  0.4834466802765149  0.24998121227614684  0.48517579673917766  1.0000
  H   H20       1.0  0.4834394410985681  0.2500222240012988  0.014821765802331301  1.0000
  H   H21       1.0  0.5165525243963244  0.514820631080198  0.7500178735034808  1.0000
  H   H22       1.0  0.5165700779064011  0.985179424562126  0.7499784090116461  1.0000
  H   H23       1.0  0.5165491002716253  0.7499849437221471  0.9851769632378404  1.0000
  H   H24       1.0  0.5165562433283951  0.7500249230742496  0.5148203505274012  1.0000
  H   H25       1.0  0.0547057262704058  0.6052590762622073  0.6054764531366672  1.0000
  H   H26       1.0  0.054713681920922894  0.8945300375505808  0.8947326029068136  1.0000
  H   H27       1.0  0.054187262593139  0.8945801154105053  0.605452703942241  1.0000
  H   H28       1.0  0.054133342423369896  0.6054543092947212  0.8945771277775735  1.0000
  H   H29       1.0  0.9458163669304226  0.3945482110590603  0.105421085596916  1.0000
  H   H30       1.0  0.9458688752856332  0.10542033977171876  0.3945429278200621  1.0000
  H   H31       1.0  0.9452921187318495  0.10523852452617176  0.10549750447140839  1.0000
  H   H32       1.0  0.945281377525113  0.394491925293778  0.39477586160069916  1.0000
  H   H33       1.0  0.9601349780661864  0.5529968922962067  0.5532536012240284  1.0000
  H   H34       1.0  0.9601311845857409  0.9467560123462844  0.9469885299564497  1.0000
  H   H35       1.0  0.9599384222338542  0.9468698320588301  0.5531454558620297  1.0000
  H   H36       1.0  0.959900587454115  0.5531449151897904  0.9468683916887172  1.0000
  H   H37       1.0  0.04006206592129052  0.4468524415535952  0.0531282733272107  1.0000
  H   H38       1.0  0.04010045697239661  0.05312804096492129  0.4468517254614284  1.0000
  H   H39       1.0  0.03986886322375229  0.052992924067744696  0.0532612031676507  1.0000
  H   H40       1.0  0.039856440465420896  0.44672777011195564  0.44702143862255633  1.0000
  C   C1        1.0  0.8054639452448811  0.6185345112774173  0.24999423666127996  1.0000
  C   C2        1.0  0.8054676207727384  0.8814605426015658  0.2500045360937476  1.0000
  C   C3        1.0  0.8054735080416363  0.24999500255609766  0.6185352740082521  1.0000
  C   C4        1.0  0.8054677819255643  0.2500089169612068  0.8814629113229839  1.0000
  C   C5        1.0  0.1945303490295487  0.38146800906224587  0.7500039767137208  1.0000
  C   C6        1.0  0.1945396175308858  0.11853371573943859  0.74999264579057  1.0000
  C   C7        1.0  0.1945293887836357  0.7499982514810809  0.11853117023589017  1.0000
  C   C8        1.0  0.19452941558121487  0.7500039028475383  0.38146448908854313  1.0000
  C   C9        1.0  0.9834110964857105  0.575900188925928  0.24998485027166586  1.0000
  C   C10       1.0  0.9834188793911237  0.9241014649200138  0.2500159910858173  1.0000
  C   C11       1.0  0.9834205513193907  0.24998555837716907  0.5758967021934182  1.0000
  C   C12       1.0  0.9834090809640655  0.250016699436422  0.924100454702028  1.0000
  C   C13       1.0  0.016581759557993802  0.42410542964210407  0.7500138790090887  1.0000
  C   C14       1.0  0.0165897971297326  0.0758953749430731  0.7499837723317526  1.0000
  C   C15       1.0  0.0165823368622995  0.749986337769883  0.0758946602718282  1.0000
  C   C16       1.0  0.016585248742472896  0.7500164452534719  0.42410357680918753  1.0000
  C   C17       1.0  0.0705464033140615  0.557497695850742  0.3123099048052325  1.0000
  C   C18       1.0  0.0705382635616516  0.9425133149095971  0.18768988139587606  1.0000
  C   C19       1.0  0.0704869219247541  0.1876796641687051  0.5574992413264893  1.0000
  C   C20       1.0  0.07047659062707369  0.31232317077516564  0.9425051239633504  1.0000
  C   C21       1.0  0.9295126237220545  0.44250199830254644  0.8123203312453809  1.0000
  C   C22       1.0  0.9295351202707567  0.05749409702944059  0.6876768253712838  1.0000
  C   C23       1.0  0.9294541188534071  0.8123129224847504  0.0574809677597443  1.0000
  C   C24       1.0  0.9294515846098221  0.6876908333244812  0.4425054132034631  1.0000
  C   C25       1.0  0.9294522055998725  0.4425172178802653  0.6876872738719513  1.0000
  C   C26       1.0  0.9294603453777058  0.05749127064672881  0.8123103972057634  1.0000
  C   C27       1.0  0.9295174399129211  0.8123228553660269  0.442504135916856  1.0000
  C   C28       1.0  0.9295133889740086  0.6876808984793853  0.05749463833154069  1.0000
  C   C29       1.0  0.0704831087841953  0.5574969076645928  0.18767581714357104  1.0000
  C   C30       1.0  0.07049081493397578  0.9425006774498  0.31232190559354217  1.0000
  C   C31       1.0  0.0705444900844725  0.1876916653164642  0.942504852010856  1.0000
  C   C32       1.0  0.07055133900333739  0.3123116881348976  0.557485570756114  1.0000
  C   C33       1.0  0.25028699451247854  0.5249214838576393  0.3124915690572791  1.0000
  C   C34       1.0  0.25027438165992066  0.9750956104741773  0.18750305645213666  1.0000
  C   C35       1.0  0.2503094097872349  0.18748740456570798  0.5249328226544987  1.0000
  C   C36       1.0  0.2502847019591101  0.31251738218203673  0.9750705136814091  1.0000
  C   C37       1.0  0.7496843009738968  0.4750657592049663  0.812511500202639  1.0000
  C   C38       1.0  0.749722776258956  0.0249294174163879  0.6874846196602035  1.0000
  C   C39       1.0  0.7497207942038742  0.812499288328496  0.024904158442893697  1.0000
  C   C40       1.0  0.7497081999308151  0.6875112942478764  0.4750827337262108  1.0000
  C   C41       1.0  0.7497231201818764  0.47509549621020136  0.6875004454311051  1.0000
  C   C42       1.0  0.7497213508109652  0.024917754584741696  0.8124910241446129  1.0000
  C   C43       1.0  0.7497122107229188  0.8125176972076602  0.475068488640872  1.0000
  C   C44       1.0  0.7496880189542808  0.6874903016905732  0.0249297644388804  1.0000
  C   C45       1.0  0.2502884199565401  0.5249346960838467  0.1874836151718782  1.0000
  C   C46       1.0  0.2503002824902866  0.9750689720772386  0.31251204519606546  1.0000
  C   C47       1.0  0.25028644406338435  0.18750943062761388  0.9750811442995795  1.0000
  C   C48       1.0  0.2502789032084394  0.31249845756414624  0.5249020524688531  1.0000
  C   C49       1.0  0.3415422918230107  0.5090001766836281  0.24998283677170713  1.0000
  C   C50       1.0  0.3415468730143942  0.9910075649974456  0.2500112758954883  1.0000
  C   C51       1.0  0.3415487007626794  0.24998530500936764  0.5089936197196961  1.0000
  C   C52       1.0  0.341544435162966  0.25001839229393136  0.991002489462147  1.0000
  C   C53       1.0  0.6584520024462392  0.491004409435284  0.7500138271221246  1.0000
  C   C54       1.0  0.6584618034868938  0.0089970217583115  0.7499812569039291  1.0000
  C   C55       1.0  0.6584469826520447  0.7499892924546856  0.008992108403305098  1.0000
  C   C56       1.0  0.6584513463993956  0.7500192813482511  0.49100149501372653  1.0000
  C   C57       1.0  0.3470924007660797  0.5122326417020986  0.3803457343955756  1.0000
  C   C58       1.0  0.3470782741229926  0.9878003993990417  0.11964785808375919  1.0000
  C   C59       1.0  0.34703440146132886  0.11961832734502305  0.5122288853201196  1.0000
  C   C60       1.0  0.3470122427199342  0.38038123348764696  0.9877796179129846  1.0000
  C   C61       1.0  0.652975269472101  0.48777329040319733  0.8803808265002644  1.0000
  C   C62       1.0  0.652993657570761  0.012222462902698798  0.6196214876972375  1.0000
  C   C63       1.0  0.6529181359205012  0.8803532041745186  0.012200317898532397  1.0000
  C   C64       1.0  0.6529029976816219  0.6196569254174237  0.48777314606435584  1.0000
  C   C65       1.0  0.6529220285678932  0.48779673159673814  0.6196462781686378  1.0000
  C   C66       1.0  0.6529088289741054  0.012226908690422499  0.8803420892535598  1.0000
  C   C67       1.0  0.6529872190599662  0.8803821272067365  0.4877708775363701  1.0000
  C   C68       1.0  0.6529662310940836  0.6196233519147041  0.012221693462066696  1.0000
  C   C69       1.0  0.34700320435169363  0.5122271643225744  0.11961790358208188  1.0000
  C   C70       1.0  0.3470351540718895  0.9877759259477018  0.3803793082536869  1.0000
  C   C71       1.0  0.34709485523455186  0.11965706609853298  0.9877710421592593  1.0000
  C   C72       1.0  0.3470740378922201  0.3803533449471884  0.5121976976061972  1.0000
  O   O1        1.0  0.7362177615584073  0.6362566401018767  0.19151222714781105  1.0000
  O   O2        1.0  0.7362229733883082  0.863742072410169  0.308486027064724  1.0000
  O   O3        1.0  0.7361423778729731  0.3084733645357858  0.6361840406295441  1.0000
  O   O4        1.0  0.7361383706849551  0.19153214861065487  0.8638105281570105  1.0000
  O   O5        1.0  0.2638613757887924  0.3638167110096973  0.6915243626762546  1.0000
  O   O6        1.0  0.26387200861410787  0.13618858513120807  0.8084686461554752  1.0000
  O   O7        1.0  0.26377135272596763  0.6915164635849677  0.1362518023366945  1.0000
  O   O8        1.0  0.2637725298040364  0.8084871962799198  0.3637423091811129  1.0000
  O   O9        1.0  0.26377653271084256  0.36374794601703536  0.8084844367460204  1.0000
  O   O10       1.0  0.26378570313474364  0.1362537351646012  0.6915106381922626  1.0000
  O   O11       1.0  0.26386629864328626  0.6915255402246315  0.36381985356190677  1.0000
  O   O12       1.0  0.2638616764691121  0.8084755367766263  0.13617993861395658  1.0000
  O   O13       1.0  0.7361271656012747  0.6361821948795381  0.30847230209944587  1.0000
  O   O14       1.0  0.7361366678884879  0.863815485159691  0.1915244031109395  1.0000
  O   O15       1.0  0.7362171886465274  0.30848967168981284  0.8637448613165403  1.0000
  O   O16       1.0  0.7362289555924733  0.19151274277545127  0.6362517735002626  1.0000
  O   O17       1.0  0.2540004808767478  0.532498679466272  0.43371787663175343  1.0000
  O   O18       1.0  0.2537520110876912  0.9676986334076427  0.06626019660077277  1.0000
  O   O19       1.0  0.25376863216578016  0.06625460518976208  0.5324650738353327  1.0000
  O   O20       1.0  0.25375483919502523  0.43374449961300593  0.9675351651413491  1.0000
  O   O21       1.0  0.7462340340706746  0.46753663855960764  0.9337468661857004  1.0000
  O   O22       1.0  0.7462436835405485  0.03246731775359989  0.5662559652630816  1.0000
  O   O23       1.0  0.7462342470909106  0.9337385473609032  0.03230736197585319  1.0000
  O   O24       1.0  0.7460007543209954  0.566283423532532  0.46751480095007036  1.0000
  O   O25       1.0  0.7462411873220134  0.4676980045622087  0.5662601675139101  1.0000
  O   O26       1.0  0.7460222346123827  0.03247481361853491  0.9337168183737746  1.0000
  O   O27       1.0  0.7462472354565081  0.9337484308863537  0.46753727055432387  1.0000
  O   O28       1.0  0.7462265110643289  0.5662606020127682  0.032467178927206  1.0000
  O   O29       1.0  0.2537487544190924  0.532465365318842  0.06625186365617  1.0000
  O   O30       1.0  0.2537707458581266  0.9675357188841925  0.4337427644188026  1.0000
  O   O31       1.0  0.2539800952709896  0.06628517161971101  0.9675173421420024  1.0000
  O   O32       1.0  0.2537447272566595  0.4337418480377764  0.5322887310621169  1.0000
  O   O33       1.0  0.5120825645660219  0.48366827475722113  0.3802190090457315  1.0000
  O   O34       1.0  0.5122548229069394  0.016212243931469996  0.1197775404654138  1.0000
  O   O35       1.0  0.5120748303454263  0.119782264466636  0.48371862956990686  1.0000
  O   O36       1.0  0.5120381940059318  0.3802206339350035  0.0163006219571926  1.0000
  O   O37       1.0  0.48792901507392367  0.5162809001090024  0.8802173512743677  1.0000
  O   O38       1.0  0.48796956075292286  0.9836985179482339  0.6197809993362711  1.0000
  O   O39       1.0  0.4877426101231991  0.8802277101448507  0.9837857339554927  1.0000
  O   O40       1.0  0.4879028383452564  0.6197842219476825  0.5163303477967673  1.0000
  O   O41       1.0  0.4877434578881719  0.5162108303381883  0.619775092394768  1.0000
  O   O42       1.0  0.4878962379569458  0.9836849346050369  0.88021604178585  1.0000
  O   O43       1.0  0.487945351949115  0.880219738838747  0.5162837149801474  1.0000
  O   O44       1.0  0.48793740336311225  0.6197834346827024  0.9837032714321197  1.0000
  O   O45       1.0  0.5120494587560954  0.48371697277353587  0.11978086282204001  1.0000
  O   O46       1.0  0.5120650037962021  0.0162941911498962  0.3802166991757118  1.0000
  O   O47       1.0  0.5121006707023668  0.11978253957705928  0.0163183375138161  1.0000
  O   O48       1.0  0.5122568516049384  0.3802224104958328  0.48378973222892796  1.0000
  O   O49       1.0  0.0825138528403357  0.5708443464670482  0.5705962530630088  1.0000
  O   O50       1.0  0.0825158942490134  0.9293971728679792  0.9291608949167338  1.0000
  O   O51       1.0  0.08225266333195688  0.9291987560310631  0.5707683402209225  1.0000
  O   O52       1.0  0.0822147391436232  0.5707736943515939  0.9291995353476566  1.0000
  O   O53       1.0  0.917749352435365  0.4292319239048509  0.07080125948005637  1.0000
  O   O54       1.0  0.9177876540887057  0.07080273176518398  0.4292283241544936  1.0000
  O   O55       1.0  0.917488466945798  0.07085893179318252  0.07058321677523337  1.0000
  O   O56       1.0  0.9174804407213201  0.42943964697884235  0.4291220349582048  1.0000
