data_image0
_chemical_formula_structural       Cu4H28C28N4O28
_chemical_formula_sum              "Cu4 H28 C28 N4 O28"
_cell_length_a       5.9085559084696415
_cell_length_b       12.264043155366856
_cell_length_c       12.42746015839794
_cell_angle_alpha    89.99316479099605
_cell_angle_beta     89.9862601083699
_cell_angle_gamma    91.35418965163225

_space_group_name_H-M_alt    "P 1"
_space_group_IT_number       1

loop_
  _space_group_symop_operation_xyz
  'x, y, z'

loop_
  _atom_site_type_symbol
  _atom_site_label
  _atom_site_symmetry_multiplicity
  _atom_site_fract_x
  _atom_site_fract_y
  _atom_site_fract_z
  _atom_site_occupancy
  Cu  Cu1       1.0  0.3762005483296774  0.4868660773374174  0.6350050282083614  1.0000
  Cu  Cu2       1.0  0.12409359706681759  0.013178629874083502  0.13504324353727526  1.0000
  Cu  Cu3       1.0  0.6237998078149969  0.5131359955592671  0.3649827957126277  1.0000
  Cu  Cu4       1.0  0.875904449663423  0.9868112076283068  0.8649671119698752  1.0000
  H   H1        1.0  0.652317520919702  0.5851673855942323  0.7527079215962402  1.0000
  H   H2        1.0  0.8477572559215288  0.9148056561131173  0.2527640745559694  1.0000
  H   H3        1.0  0.3476200852508881  0.4148322516569536  0.2473080694037293  1.0000
  H   H4        1.0  0.15216459808424074  0.08518338359047559  0.7472157078004713  1.0000
  H   H5        1.0  0.40794277098081  0.6243859593873538  0.7962422594958766  1.0000
  H   H6        1.0  0.09196244698336638  0.875537551243049  0.2963290611058937  1.0000
  H   H7        1.0  0.5919659606092365  0.3755777955132444  0.2037850005632222  1.0000
  H   H8        1.0  0.9079293752800196  0.12442621091764043  0.7036402636807537  1.0000
  H   H9        1.0  0.9887768567265169  0.32680683801334  0.6881921057325329  1.0000
  H   H10       1.0  0.5111120846557711  0.1732815559745902  0.18814313247889203  1.0000
  H   H11       1.0  0.011208747489305903  0.6732050233062595  0.3118295145713361  1.0000
  H   H12       1.0  0.4889044415427079  0.8267392732608698  0.8118406661080896  1.0000
  H   H13       1.0  0.9955791532020367  0.44579624365187703  0.7311872022243192  1.0000
  H   H14       1.0  0.5044269389111375  0.05426862856583629  0.231143076988154  1.0000
  H   H15       1.0  0.004439185770458202  0.554227031622645  0.2688038381471216  1.0000
  H   H16       1.0  0.49561372354789757  0.9457611660481006  0.7688640551544949  1.0000
  H   H17       1.0  0.4919439148311681  0.07743727707570261  0.5757164655444312  1.0000
  H   H18       1.0  0.007954874084902001  0.42248385552595386  0.0757315747417451  1.0000
  H   H19       1.0  0.5080318132389009  0.9225460422814821  0.424259290789081  1.0000
  H   H20       1.0  0.9920281808948771  0.5775108778245867  0.9242948747119045  1.0000
  H   H21       1.0  0.18044257240320147  0.005235557874172501  0.45357226141609885  1.0000
  H   H22       1.0  0.3196826341775533  0.4947802694333348  0.9536601261795994  1.0000
  H   H23       1.0  0.8195745951907297  0.994764066926848  0.5463801562436927  1.0000
  H   H24       1.0  0.680321176582403  0.5052234310903856  0.04637275895540681  1.0000
  H   H25       1.0  0.9473452549585485  0.1388519777738821  0.3530997937546445  1.0000
  H   H26       1.0  0.5531016299269352  0.36119867479932577  0.853255386353311  1.0000
  H   H27       1.0  0.05268948869584729  0.8611606933656545  0.6468534268405719  1.0000
  H   H28       1.0  0.4469043646709209  0.6388148134293986  0.14676784205845908  1.0000
  C   C1        1.0  0.6155775893498755  0.28448072011435954  0.6138510179337046  1.0000
  C   C2        1.0  0.8844294401890593  0.21544351881799884  0.11385851896435642  1.0000
  C   C3        1.0  0.3844188105028862  0.7155099345539211  0.386140830215993  1.0000
  C   C4        1.0  0.11562775303098498  0.7845446732502169  0.8861808014462226  1.0000
  C   C5        1.0  0.4274952736331484  0.2429584769641124  0.5418081548504219  1.0000
  C   C6        1.0  0.07246386898179219  0.25700780726770484  0.04177404064163431  1.0000
  C   C7        1.0  0.572530145345361  0.7570370662131584  0.4581716213532516  1.0000
  C   C8        1.0  0.9275954669167772  0.7429893567821678  0.9582572324344625  1.0000
  C   C9        1.0  0.38557776124298465  0.13151485720157297  0.5298112609741281  1.0000
  C   C10       1.0  0.11445491451411266  0.3684448014297104  0.0298320085218151  1.0000
  C   C11       1.0  0.6144240853255097  0.8684831376607673  0.4701701257421007  1.0000
  C   C12       1.0  0.8855505918370027  0.6315588995206697  0.9701888064737287  1.0000
  C   C13       1.0  0.2126256286988592  0.09235196696916863  0.4635433363789261  1.0000
  C   C14       1.0  0.28753121275288146  0.4076544118436587  0.9635965772967765  1.0000
  C   C15       1.0  0.7873630468671846  0.9076533717534118  0.5364308086207643  1.0000
  C   C16       1.0  0.7124392842083508  0.5923599001270646  0.0364153876723208  1.0000
  C   C17       1.0  0.08039323697165197  0.1661949511749441  0.4080668870615156  1.0000
  C   C18       1.0  0.41990125077826684  0.33382671771201444  0.9081653993144698  1.0000
  C   C19       1.0  0.9196160347732911  0.8338160930735371  0.5919008191023778  1.0000
  C   C20       1.0  0.5800710209452404  0.666189225353243  0.09184334678275971  1.0000
  C   C21       1.0  0.12252577806521707  0.2767983647740948  0.4210640218729509  1.0000
  C   C22       1.0  0.3776676186696618  0.2231963706581084  0.9210279404451639  1.0000
  C   C23       1.0  0.8774866710911837  0.7232085997379019  0.5789181684032414  1.0000
  C   C24       1.0  0.6223162172889828  0.7768138611765282  0.0789719539707718  1.0000
  C   C25       1.0  0.9941573228104158  0.36546210091889725  0.3645546549975194  1.0000
  C   C26       1.0  0.5059103296231057  0.13456759016524703  0.864490622446162  1.0000
  C   C27       1.0  0.005858348484132102  0.6345416004626472  0.6354267306178301  1.0000
  C   C28       1.0  0.49408023327155337  0.8654418241219802  0.13551731833833  1.0000
  N   N1        1.0  0.29169180032340586  0.3133520171176514  0.4875825606867821  1.0000
  N   N2        1.0  0.20826883784913963  0.1865991056930909  0.9875076319494767  1.0000
  N   N3        1.0  0.7083353946764247  0.6866451574656903  0.5123891686269957  1.0000
  N   N4        1.0  0.7917754712250085  0.8134021399873178  0.0125180090414077  1.0000
  O   O1        1.0  0.6008043316906394  0.3765529144504782  0.6609969452870885  1.0000
  O   O2        1.0  0.8991649647190624  0.12333914460887033  0.1609772318104774  1.0000
  O   O3        1.0  0.39921303687379595  0.6234507877731019  0.33896593283143517  1.0000
  O   O4        1.0  0.10094062408052909  0.8766694252825147  0.8391055368845457  1.0000
  O   O5        1.0  0.7815716931976693  0.22313539459050702  0.6269252083311088  1.0000
  O   O6        1.0  0.7184614772067233  0.2768034599776499  0.1269763235792993  1.0000
  O   O7        1.0  0.21842832338976587  0.7768601499751641  0.3731149195136965  1.0000
  O   O8        1.0  0.28154002440118114  0.7231537534532182  0.8730066748518226  1.0000
  O   O9        1.0  0.8058460256820437  0.38751553376626896  0.4081311142277144  1.0000
  O   O10       1.0  0.6941016354256461  0.11242535400339901  0.9081580685237611  1.0000
  O   O11       1.0  0.19415859551754266  0.6124702263067832  0.5918470543620344  1.0000
  O   O12       1.0  0.30588352254217444  0.8875775359688944  0.0918563102964569  1.0000
  O   O13       1.0  0.07768507163213198  0.4072234585777393  0.2804188246849861  1.0000
  O   O14       1.0  0.4224013551493041  0.09273726198324539  0.7804250072692653  1.0000
  O   O15       1.0  0.9222990135910148  0.592791668168168  0.7195625620321237  1.0000
  O   O16       1.0  0.5775922259752021  0.9072648110240638  0.2195829337710435  1.0000
  O   O17       1.0  0.320119205884417  0.42131371429356074  0.49263208576165596  1.0000
  O   O18       1.0  0.17956825777560675  0.0787094063158449  0.9925221213449191  1.0000
  O   O19       1.0  0.679933051319729  0.5786769304146021  0.5073340098438165  1.0000
  O   O20       1.0  0.8205067147836544  0.9212959100845951  0.007519611093428599  1.0000
  O   O21       1.0  0.4916948482531609  0.5612986452781357  0.7682153933931986  1.0000
  O   O22       1.0  0.008334281019656909  0.9386480344686419  0.2683042400341549  1.0000
  O   O23       1.0  0.5082433119579334  0.43867815484576056  0.2317917475291722  1.0000
  O   O24       1.0  0.9915765600635352  0.061323878663294806  0.7316860046317045  1.0000
  O   O25       1.0  0.08997972535436818  0.38119252926031794  0.7232438388885144  1.0000
  O   O26       1.0  0.40989991755787253  0.11881559331645518  0.2231188451794353  1.0000
  O   O27       1.0  0.9100126929425654  0.618820147152782  0.2767641016040017  1.0000
  O   O28       1.0  0.5901285323983101  0.8812068634986261  0.7768834600504775  1.0000
