data_image0
_chemical_formula_structural       Ag4H32C28S8N4O16
_chemical_formula_sum              "Ag4 H32 C28 S8 N4 O16"
_cell_length_a       6.529704021004171
_cell_length_b       7.827052332043757
_cell_length_c       20.302559282560768
_cell_angle_alpha    97.4379824170034
_cell_angle_beta     90.00012868154552
_cell_angle_gamma    89.99996855631312

_space_group_name_H-M_alt    "P 1"
_space_group_IT_number       1

loop_
  _space_group_symop_operation_xyz
  'x, y, z'

loop_
  _atom_site_type_symbol
  _atom_site_label
  _atom_site_symmetry_multiplicity
  _atom_site_fract_x
  _atom_site_fract_y
  _atom_site_fract_z
  _atom_site_occupancy
  Ag  Ag1       1.0  0.7142406485922026  0.2191766757050004  0.4602923457102578  1.0000
  Ag  Ag2       1.0  0.21424099866315777  0.2808231326257129  0.039707988121037416  1.0000
  Ag  Ag3       1.0  0.28575730997091864  0.7808217485043868  0.5397084454793628  1.0000
  Ag  Ag4       1.0  0.785758491362941  0.7191752915834967  0.9602928030691306  1.0000
  H   H1        1.0  0.14430546653971993  0.17981043799021987  0.5421206799622669  1.0000
  H   H2        1.0  0.6443080969464604  0.32018747894673544  0.9578796020765736  1.0000
  H   H3        1.0  0.855694023486379  0.8201879862189967  0.4578801112279012  1.0000
  H   H4        1.0  0.35569292453746487  0.6798109465788116  0.042119711533700914  1.0000
  H   H5        1.0  0.08601339086798283  0.4055712785918999  0.5630626293039214  1.0000
  H   H6        1.0  0.5860160215504068  0.0944266519050458  0.9369371187790565  1.0000
  H   H7        1.0  0.9139860991562045  0.5944284345179367  0.4369377338301634  1.0000
  H   H8        1.0  0.41398499993542975  0.9055704847198812  0.06306262288730842  1.0000
  H   H9        1.0  0.34827951870030927  0.3313564402576715  0.5644717457220879  1.0000
  H   H10       1.0  0.8482805598859857  0.1686427192280533  0.9355287457543257  1.0000
  H   H11       1.0  0.651721502786863  0.6686432728519874  0.43552861741252974  1.0000
  H   H12       1.0  0.15171893013648233  0.8313569943206148  0.06447112485294333  1.0000
  H   H13       1.0  0.450851388552387  0.12049530373727176  0.2796963740288092  1.0000
  H   H14       1.0  0.9508507890735065  0.3795057406735153  0.22030320738204529  1.0000
  H   H15       1.0  0.5491481014660593  0.8795082760744181  0.720302704936998  1.0000
  H   H16       1.0  0.049148700952208906  0.6204952604592718  0.7796977127495596  1.0000
  H   H17       1.0  0.28106689576169697  0.1095429624769935  0.16972759668766463  1.0000
  H   H18       1.0  0.7810655260438112  0.39045683125060987  0.3302722921106209  1.0000
  H   H19       1.0  0.7189295313348085  0.8904567510720227  0.8302722739185101  1.0000
  H   H20       1.0  0.21893090105574234  0.6095454583443001  0.6697286924906225  1.0000
  H   H21       1.0  0.9308938633678852  0.9831829654323271  0.15286946519881187  1.0000
  H   H22       1.0  0.43089346985226495  0.5168185282396605  0.34712955489652597  1.0000
  H   H23       1.0  0.06910409519179693  0.016815459654729602  0.8471303409371913  1.0000
  H   H24       1.0  0.5691044887079715  0.4831876271792694  0.6528711305906115  1.0000
  H   H25       1.0  0.7491156973188923  0.8735183455971341  0.24693508663180816  1.0000
  H   H26       1.0  0.2491191697619542  0.626485765476197  0.25306442574067495  1.0000
  H   H27       1.0  0.2508837927070219  0.12648136707386468  0.7530657690290783  1.0000
  H   H28       1.0  0.750884914645255  0.373519102796763  0.746934717697485  1.0000
  H   H29       1.0  0.9170532454371598  0.8883836761690701  0.3571774801307157  1.0000
  H   H30       1.0  0.4170544258227835  0.6116191090799531  0.14282159459916247  1.0000
  H   H31       1.0  0.08294930751280562  0.11161732540220017  0.6428229474751748  1.0000
  H   H32       1.0  0.5829465956592231  0.3883806053462138  0.8571772909550293  1.0000
  C   C1        1.0  0.19834615314800175  0.3116117340801239  0.5407205850221574  1.0000
  C   C2        1.0  0.6983458159950402  0.1883861706929721  0.9592797354231523  1.0000
  C   C3        1.0  0.8016563998023474  0.688386690567583  0.4592797136422889  1.0000
  C   C4        1.0  0.3016567369535821  0.8116122543935731  0.0407200707144781  1.0000
  C   C5        1.0  0.193763358912669  0.0029596823175026994  0.3239704111930309  1.0000
  C   C6        1.0  0.6937654367062933  0.49704141908410543  0.1760299725560799  1.0000
  C   C7        1.0  0.8062361311115183  0.9970400307923268  0.6760299519410468  1.0000
  C   C8        1.0  0.306235584780879  0.5029582940255608  0.8239703905785377  1.0000
  C   C9        1.0  0.2976285076647472  0.0664462377745068  0.271979691087978  1.0000
  C   C10       1.0  0.7976309899317686  0.4335574176101105  0.22802040289442976  1.0000
  C   C11       1.0  0.702370982353898  0.9335560535754013  0.7280193234071108  1.0000
  C   C12       1.0  0.20236850009566612  0.5664435830838387  0.771981009763991  1.0000
  C   C13       1.0  0.2012502664434166  0.05978658931852009  0.2104585717698697  1.0000
  C   C14       1.0  0.7012439854478814  0.4402170873223454  0.28954194623877794  1.0000
  C   C15       1.0  0.7987492235788596  0.9402144126919294  0.7895413633081249  1.0000
  C   C16       1.0  0.29874937872512675  0.559789067658265  0.7104592317735412  1.0000
  C   C17       1.0  0.004597833566791102  0.9895181568954072  0.20122342091807618  1.0000
  C   C18       1.0  0.5045995534484434  0.5104860092174519  0.2987759176712786  1.0000
  C   C19       1.0  0.9953985935297072  0.010481556653608901  0.7987764496881056  1.0000
  C   C20       1.0  0.49539840510701794  0.4895175705944083  0.7012231612939887  1.0000
  C   C21       1.0  0.9024059595586209  0.9281028727217019  0.25383728915245035  1.0000
  C   C22       1.0  0.40240482482884243  0.5719024931869895  0.24616141158118413  1.0000
  C   C23       1.0  0.09759506193027082  0.07189683994911891  0.746163566508983  1.0000
  C   C24       1.0  0.5975916022621136  0.4280997986020978  0.7538371103860017  1.0000
  C   C25       1.0  0.9963277360067339  0.9349656183314962  0.3159074183026576  1.0000
  C   C26       1.0  0.4963307664469739  0.5650371499508324  0.1840907277158266  1.0000
  C   C27       1.0  0.003673285480438401  0.0650340947781629  0.684092944831967  1.0000
  C   C28       1.0  0.5036733179556451  0.4349638542532759  0.8159067447297375  1.0000
  S   S1        1.0  0.22549409361186437  0.34003815933672843  0.45638727098196347  1.0000
  S   S2        1.0  0.7254954651091271  0.15996035799901162  0.043613006376965316  1.0000
  S   S3        1.0  0.774503864949921  0.6599576883879263  0.5436128987394114  1.0000
  S   S4        1.0  0.27450555637651775  0.840038067087697  0.9563867997601251  1.0000
  S   S5        1.0  0.324663892524157  0.0023196283002703995  0.4002194599231146  1.0000
  S   S6        1.0  0.8246669686257422  0.4976801551746135  0.0997809523886062  1.0000
  S   S7        1.0  0.675338660426192  0.9976787963474366  0.5997808387413317  1.0000
  S   S8        1.0  0.17533711578740005  0.5023195579347045  0.9002194107471058  1.0000
  N   N1        1.0  0.3941509833021542  0.20140496560415494  0.4246866728028424  1.0000
  N   N2        1.0  0.8941509548035713  0.2985948022299921  0.07531378889329692  1.0000
  N   N3        1.0  0.60585003818521  0.7985934590437225  0.5753136258610639  1.0000
  N   N4        1.0  0.10585006668207343  0.7014036228567164  0.9246860172437934  1.0000
  O   O1        1.0  0.309600439909211  0.5107898061248831  0.45242439760404113  1.0000
  O   O2        1.0  0.809600093837105  0.9892091366093609  0.047575884925244324  1.0000
  O   O3        1.0  0.6903929242619001  0.48920604203912177  0.547575279588891  1.0000
  O   O4        1.0  0.19039480179621654  0.0107918654016075  0.9524240501511091  1.0000
  O   O5        1.0  0.025944362505455808  0.3062388194702876  0.42336594038464176  1.0000
  O   O6        1.0  0.5259428798439317  0.19375845432129776  0.07663413067956532  1.0000
  O   O7        1.0  0.9740566589844024  0.6937544508916176  0.5766345929231917  1.0000
  O   O8        1.0  0.47405507871497593  0.8062451246128931  0.9233659333393193  1.0000
  O   O9        1.0  0.5157625658319065  0.909831572941876  0.3870429538173142  1.0000
  O   O10       1.0  0.0157620200190394  0.5901687248339371  0.11295669182082693  1.0000
  O   O11       1.0  0.4842415185777897  0.09016814104510469  0.6129564242647803  1.0000
  O   O12       1.0  0.9842405329330293  0.4098296993749315  0.887044099370428  1.0000
  O   O13       1.0  0.18164654995739943  0.9379980610320684  0.44698669454943746  1.0000
  O   O14       1.0  0.6816449878161637  0.5620009109427072  0.05301300451385771  1.0000
  O   O15       1.0  0.8183605973755949  0.061996499985106396  0.5530114405972386  1.0000
  O   O16       1.0  0.31835909659658784  0.43800137909017417  0.9469874875632983  1.0000
