data_image0
_chemical_formula_structural       Cu12H36C60N48
_chemical_formula_sum              "Cu12 H36 C60 N48"
_cell_length_a       23.763588691182346
_cell_length_b       24.150868858323115
_cell_length_c       27.74583595274981
_cell_angle_alpha    91.95479240078724
_cell_angle_beta     99.9229612122411
_cell_angle_gamma    91.93872861734748

_space_group_name_H-M_alt    "P 1"
_space_group_IT_number       1

loop_
  _space_group_symop_operation_xyz
  'x, y, z'

loop_
  _atom_site_type_symbol
  _atom_site_label
  _atom_site_symmetry_multiplicity
  _atom_site_fract_x
  _atom_site_fract_y
  _atom_site_fract_z
  _atom_site_occupancy
  Cu  Cu1       1.0  0.1429657727881022  0.8282895853393485  0.08928382257829531  1.0000
  Cu  Cu2       1.0  0.09565029239089282  0.7566513899563035  0.1678729671258239  1.0000
  Cu  Cu3       1.0  0.13109051806065247  0.8903087252604963  0.18326259507773562  1.0000
  Cu  Cu4       1.0  0.6838134501989899  0.18843256202805486  0.43100629727092615  1.0000
  Cu  Cu5       1.0  0.5913358895337308  0.2442460988269204  0.35303412969376075  1.0000
  Cu  Cu6       1.0  0.6763082888933027  0.165791798116274  0.3156843012538388  1.0000
  Cu  Cu7       1.0  0.36737958176161817  0.31053753515222837  0.9441289477962158  1.0000
  Cu  Cu8       1.0  0.4560235050460761  0.277661170845434  0.8719325418601686  1.0000
  Cu  Cu9       1.0  0.39241166053045606  0.3836862623454421  0.8531500707568968  1.0000
  Cu  Cu10      1.0  0.7871568975449746  0.6636218110300688  0.5593654707630265  1.0000
  Cu  Cu11      1.0  0.9120339157218638  0.6561619133277503  0.614077812336241  1.0000
  Cu  Cu12      1.0  0.8045188843600356  0.5928370449402891  0.6523153447741308  1.0000
  H   H1        1.0  0.58440322258852  0.34475301976153355  0.6511327496188813  1.0000
  H   H2        1.0  0.5270599562798352  0.5111388739596521  0.6656799285618008  1.0000
  H   H3        1.0  0.6014603685073112  0.46181208711340827  0.5399911445728875  1.0000
  H   H4        1.0  0.031207432937321804  0.6376193790280524  0.8805834853302342  1.0000
  H   H5        1.0  0.1295374388406572  0.5237829287389388  0.8093445263899001  1.0000
  H   H6        1.0  0.1738279442499788  0.5581695491636082  0.965345467580697  1.0000
  H   H7        1.0  0.9562454980204079  0.8181850155149988  0.3899854704509238  1.0000
  H   H8        1.0  0.9202160460946659  0.9739436530896841  0.32132691725413315  1.0000
  H   H9        1.0  0.8302742224615755  0.9234182695221236  0.4361064533109981  1.0000
  H   H10       1.0  0.32834576558236245  0.0414033256092168  0.030228393311091405  1.0000
  H   H11       1.0  0.3489541006235796  0.12937448133426702  0.1703316815460312  1.0000
  H   H12       1.0  0.47668377742157725  0.15043677591781798  0.07856278098044102  1.0000
  H   H13       1.0  0.1275952034566572  0.743981304930479  0.0006403027193897969  1.0000
  H   H14       1.0  0.0954896294686023  0.6330084033988115  0.1136523280565598  1.0000
  H   H15       1.0  0.20934908816951034  0.003704936606489199  0.176461390398444  1.0000
  H   H16       1.0  0.21620140278386657  0.9147048259480218  0.03890622052776389  1.0000
  H   H17       1.0  0.025162815616518203  0.743984173670782  0.2548986805463258  1.0000
  H   H18       1.0  0.06268957622985029  0.9215569580112443  0.2649307056367221  1.0000
  H   H19       1.0  0.6720984382610168  0.2602905757470637  0.5283773513239325  1.0000
  H   H20       1.0  0.5579194009294993  0.34423697842655093  0.4173957474869852  1.0000
  H   H21       1.0  0.7723032971583591  0.0788726282750787  0.3150852012320727  1.0000
  H   H22       1.0  0.7636695712855612  0.08918498464284852  0.4702042730112482  1.0000
  H   H23       1.0  0.4871572478413952  0.23292683424206476  0.2615976037559449  1.0000
  H   H24       1.0  0.6203155704742969  0.14786280456837628  0.2029125178122015  1.0000
  H   H25       1.0  0.37300852127652456  0.20111740685540982  0.008211378168418496  1.0000
  H   H26       1.0  0.4847278201049006  0.15972113849436204  0.9049558738272054  1.0000
  H   H27       1.0  0.2950363394469803  0.4669260388216117  0.8487653560634669  1.0000
  H   H28       1.0  0.2725735790801664  0.3858238662414736  0.9817711343489395  1.0000
  H   H29       1.0  0.5372701446064382  0.2797003085819441  0.7892019250630825  1.0000
  H   H30       1.0  0.4508786229908424  0.4348900244253784  0.7668398369425659  1.0000
  H   H31       1.0  0.8020703178941274  0.7566125733020571  0.48433555344177404  1.0000
  H   H32       1.0  0.9799347809024114  0.732169553546676  0.5456755623543971  1.0000
  H   H33       1.0  0.6778377058599715  0.533081475092864  0.6431078797538774  1.0000
  H   H34       1.0  0.6545265677254405  0.645559910365293  0.5229495379880547  1.0000
  H   H35       1.0  0.011183707383047201  0.6321778769729534  0.7004192391283937  1.0000
  H   H36       1.0  0.8651236402067682  0.5717792768389032  0.7610646551729303  1.0000
  C   C1        1.0  0.5955388438331893  0.39955454177211175  0.5932055181256503  1.0000
  C   C2        1.0  0.5808912349492985  0.38680887253580915  0.6382910622447184  1.0000
  C   C3        1.0  0.5562011924772036  0.42773911391002173  0.6643641464081327  1.0000
  C   C4        1.0  0.5487149689620736  0.4808791098718503  0.6461352465408368  1.0000
  C   C5        1.0  0.5666806985078309  0.4940738990203569  0.6022521688939406  1.0000
  C   C6        1.0  0.5903137360687651  0.45343576987603035  0.5755934787773072  1.0000
  C   C7        1.0  0.10121764008599848  0.6007769668182732  0.9273346428983302  1.0000
  C   C8        1.0  0.06465961867562701  0.6075998014698243  0.8826155420424514  1.0000
  C   C9        1.0  0.07335657481861087  0.5779718428164955  0.8404980993334802  1.0000
  C   C10       1.0  0.1202065829854675  0.5440777435589724  0.842597680193066  1.0000
  C   C11       1.0  0.1545760679639869  0.5348685898588954  0.8877632835656117  1.0000
  C   C12       1.0  0.1451830996705965  0.5629102807116765  0.9307220591301475  1.0000
  C   C13       1.0  0.8933752782142931  0.8678252978648758  0.41763775070060666  1.0000
  C   C14       1.0  0.9335917105329868  0.8566990771491804  0.38733755613059634  1.0000
  C   C15       1.0  0.9426026194225371  0.895227059222485  0.3524607245089513  1.0000
  C   C16       1.0  0.9129505658467136  0.9445585101229312  0.34879508063207953  1.0000
  C   C17       1.0  0.8729316745975312  0.9552271667035013  0.3791763894434227  1.0000
  C   C18       1.0  0.8624167214690531  0.9162799987771352  0.41318746109278254  1.0000
  C   C19       1.0  0.40206904961730316  0.09796983624070069  0.047520222135872786  1.0000
  C   C20       1.0  0.35104073445488376  0.0728178754396467  0.05614110387993781  1.0000
  C   C21       1.0  0.3314776353457701  0.0847106288693666  0.1000983207510302  1.0000
  C   C22       1.0  0.36265626676375007  0.12217937999323418  0.1351928340670341  1.0000
  C   C23       1.0  0.41545880303322497  0.1444027444409883  0.12753056600227106  1.0000
  C   C24       1.0  0.4348111401227682  0.13393934019674697  0.08321372506975422  1.0000
  C   C25       1.0  0.11930510841043682  0.7252873019569392  0.03382334935177769  1.0000
  C   C26       1.0  0.1097531813530068  0.6689315912662864  0.04239264335265601  1.0000
  C   C27       1.0  0.10415320262266899  0.6678943774110381  0.0920335540832511  1.0000
  C   C28       1.0  0.20415941707745588  0.9749829716750468  0.1449792872219433  1.0000
  C   C29       1.0  0.22771209151418498  0.977877451266025  0.101628408339252  1.0000
  C   C30       1.0  0.20733432584454894  0.9290337437051407  0.0742187039565181  1.0000
  C   C31       1.0  0.040847339009985696  0.7861117862389762  0.2513104016077961  1.0000
  C   C32       1.0  0.028973098430903108  0.8352478718514008  0.2756005581343786  1.0000
  C   C33       1.0  0.059749409502614995  0.8773736976579939  0.2561019769945361  1.0000
  C   C34       1.0  0.6458220196463457  0.2736144240541307  0.49522001371652646  1.0000
  C   C35       1.0  0.6105345570983899  0.3195814631498948  0.4881786546093211  1.0000
  C   C36       1.0  0.587620768493842  0.3168730466099063  0.4379112926610347  1.0000
  C   C37       1.0  0.7641244352178801  0.08962090973813018  0.35142791653212413  1.0000
  C   C38       1.0  0.7844345095642566  0.0651745581062144  0.39623586218721846  1.0000
  C   C39       1.0  0.7592015710387727  0.0945038082283531  0.4310722745918767  1.0000
  C   C40       1.0  0.526311540857165  0.214657673651132  0.2549904156804388  1.0000
  C   C41       1.0  0.5376150475244188  0.18555352126419683  0.21293019932817708  1.0000
  C   C42       1.0  0.5951159677482706  0.1714370027415484  0.22482266597185682  1.0000
  C   C43       1.0  0.39947210944519174  0.19991022979736783  0.9800490019711674  1.0000
  C   C44       1.0  0.4329565819660956  0.1570284145850351  0.9651961402650642  1.0000
  C   C45       1.0  0.45674756877081524  0.1795270542032483  0.9267765478367735  1.0000
  C   C46       1.0  0.29737141001930206  0.44074867399715595  0.8799690388974071  1.0000
  C   C47       1.0  0.2644114765519419  0.44152267248968974  0.9175942305086623  1.0000
  C   C48       1.0  0.28621697881994373  0.39958566083779345  0.9486277061395754  1.0000
  C   C49       1.0  0.5110950727469613  0.3154807120510483  0.790550350045635  1.0000
  C   C50       1.0  0.5078388601744095  0.36261482952397023  0.7619390282910461  1.0000
  C   C51       1.0  0.46693392251145127  0.39546409957046086  0.7793587712258514  1.0000
  C   C52       1.0  0.8421659119353179  0.7440491707987817  0.5051131152639883  1.0000
  C   C53       1.0  0.8984479756869774  0.7614020775588486  0.5014525732160992  1.0000
  C   C54       1.0  0.9336441713382582  0.7309517816758413  0.5361083250578602  1.0000
  C   C55       1.0  0.682032764595327  0.5623557615348886  0.615021939915117  1.0000
  C   C56       1.0  0.6401876139127152  0.5826207110885093  0.5777431760836721  1.0000
  C   C57       1.0  0.6708257887820394  0.6205233386706653  0.5536341653272885  1.0000
  C   C58       1.0  0.9694233185442228  0.6182009568014949  0.7069710601622462  1.0000
  C   C59       1.0  0.9537232683212835  0.5977800566711409  0.7499566415710177  1.0000
  C   C60       1.0  0.8942084202142694  0.5881470769412189  0.7383902980930301  1.0000
  N   N1        1.0  0.10907856410516098  0.7201671098157476  0.1113484479864653  1.0000
  N   N2        1.0  0.11954692592710357  0.7553762005366025  0.0752611161285657  1.0000
  N   N3        1.0  0.1742564525135677  0.8992791700033749  0.09903592358421782  1.0000
  N   N4        1.0  0.1723848398952796  0.9276959416605239  0.1429685813639594  1.0000
  N   N5        1.0  0.0875805508422332  0.8547902629826609  0.222702619675303  1.0000
  N   N6        1.0  0.07559908011644009  0.7980327439632263  0.2192356583039157  1.0000
  N   N7        1.0  0.6071971064494049  0.2726318558463774  0.41655469097091924  1.0000
  N   N8        1.0  0.6437999971685713  0.24608578217770827  0.4520560858709928  1.0000
  N   N9        1.0  0.7265075979369084  0.13367832741686672  0.4088396715390559  1.0000
  N   N10       1.0  0.7292921625968916  0.1302319063890991  0.3592877025347009  1.0000
  N   N11       1.0  0.6165164873267485  0.1899674892724548  0.27069504258539473  1.0000
  N   N12       1.0  0.5738070875325859  0.21718782650755492  0.2891390258415427  1.0000
  N   N13       1.0  0.4396687382110258  0.2311327905713298  0.9192780547264049  1.0000
  N   N14       1.0  0.4036244893997604  0.2438104637619816  0.9520694314045102  1.0000
  N   N15       1.0  0.3285984398305857  0.3750269999199745  0.9304868868936111  1.0000
  N   N16       1.0  0.3358234224900583  0.40133730781479215  0.8882018757152821  1.0000
  N   N17       1.0  0.4476151687526693  0.36948105120296754  0.8155330785430479  1.0000
  N   N18       1.0  0.4752450488239289  0.3200936568956436  0.8228435272167332  1.0000
  N   N19       1.0  0.9006943723741118  0.6982778156179277  0.5591454809828207  1.0000
  N   N20       1.0  0.84404263432328  0.7060511499766875  0.5393287336496401  1.0000
  N   N21       1.0  0.7260990634975286  0.6225468311213191  0.5741604414990462  1.0000
  N   N22       1.0  0.7330119408388994  0.5872417186634992  0.6128742459164158  1.0000
  N   N23       1.0  0.8757624661838365  0.6009121020850046  0.69168801661381  1.0000
  N   N24       1.0  0.9224555077424907  0.6206058247212239  0.6725625137312221  1.0000
  N   N25       1.0  0.09487824115681319  0.6391819901338425  0.9652170324265086  1.0000
  N   N26       1.0  0.1085345465325034  0.6241602887336839  0.009000714740750497  1.0000
  N   N27       1.0  0.6123786776137192  0.3549420462647746  0.5647909877225814  1.0000
  N   N28       1.0  0.5966372218019771  0.361041803691741  0.5191968745910458  1.0000
  N   N29       1.0  0.42617758782968446  0.074755779095014  0.008144018929122886  1.0000
  N   N30       1.0  0.44249030881229595  0.1010955570423349  0.9744807667798271  1.0000
  N   N31       1.0  0.8780925065218527  0.8305926774441801  0.4517855178514126  1.0000
  N   N32       1.0  0.9174237490297656  0.7997180710555583  0.4708936313874191  1.0000
  N   N33       1.0  0.28545617057363154  0.05478099075082099  0.11517376605922891  1.0000
  N   N34       1.0  0.2668774289077263  0.0136990102380068  0.08628823997757712  1.0000
  N   N35       1.0  0.5481130751980743  0.544190793763633  0.5801759883831537  1.0000
  N   N36       1.0  0.5802421191196742  0.5804007185291765  0.5662206311193145  1.0000
  N   N37       1.0  0.8424815035847714  0.004181045471689498  0.3709605049300038  1.0000
  N   N38       1.0  0.8189154059274913  0.0204193671602226  0.40649266499566045  1.0000
  N   N39       1.0  0.19943653440783748  0.4989293212247716  0.8846856226798394  1.0000
  N   N40       1.0  0.21903784347858143  0.4745978028998933  0.9236049219794326  1.0000
  N   N41       1.0  0.9802850712850242  0.8887245942942317  0.3186895398272895  1.0000
  N   N42       1.0  0.9920664201325095  0.8389596709584592  0.30927653390362764  1.0000
  N   N43       1.0  0.5317409617138793  0.41882482391140025  0.7064928000772922  1.0000
  N   N44       1.0  0.5377509897648236  0.3708614715509881  0.7238401008699  1.0000
  N   N45       1.0  0.03933801747434269  0.5834714628414233  0.7940202115568908  1.0000
  N   N46       1.0  0.9865760921771951  0.5886111570445678  0.795255459554781  1.0000
  N   N47       1.0  0.44948073589743837  0.17146573030034773  0.16923138123380713  1.0000
  N   N48       1.0  0.5026792612286215  0.166029508276246  0.17011611719119196  1.0000
