data_image0
_chemical_formula_structural       Zn8H56C72N8O42
_chemical_formula_sum              "Zn8 H56 C72 N8 O42"
_cell_length_a       17.747069159456014
_cell_length_b       18.681576132065473
_cell_length_c       23.28829539869775
_cell_angle_alpha    66.40069370182722
_cell_angle_beta     69.77815496092992
_cell_angle_gamma    89.95166437190738

_space_group_name_H-M_alt    "P 1"
_space_group_IT_number       1

loop_
  _space_group_symop_operation_xyz
  'x, y, z'

loop_
  _atom_site_type_symbol
  _atom_site_label
  _atom_site_symmetry_multiplicity
  _atom_site_fract_x
  _atom_site_fract_y
  _atom_site_fract_z
  _atom_site_occupancy
  Zn  Zn1       1.0  0.12004295095631792  0.5283685781201656  0.9435518396064777  1.0000
  Zn  Zn2       1.0  0.9712889965863525  0.5620323763966796  0.048829753892086124  1.0000
  Zn  Zn3       1.0  0.9808280857184641  0.3887825972643881  0.049426198310150965  1.0000
  Zn  Zn4       1.0  0.9355047224737164  0.5295895236924578  0.9375493608691343  1.0000
  Zn  Zn5       1.0  0.3846175136431285  0.9747484480360384  0.048034664213126695  1.0000
  Zn  Zn6       1.0  0.5293717576363761  0.11637484665332917  0.9391567200446856  1.0000
  Zn  Zn7       1.0  0.522234399427326  0.9442647240219131  0.9384091634312669  1.0000
  Zn  Zn8       1.0  0.5719798840640067  0.9758766491941557  0.04782151655908248  1.0000
  H   H1        1.0  0.4355155690734591  0.8000456164467237  0.38801112107149294  1.0000
  H   H2        1.0  0.1974063211274384  0.8211149167902931  0.37663015508560693  1.0000
  H   H3        1.0  0.3168017132848604  0.7034234795378679  0.6136452904612781  1.0000
  H   H4        1.0  0.08055544320387038  0.6933105500118586  0.5990888354522426  1.0000
  H   H5        1.0  0.7039500774218868  0.07975297140043837  0.6063290659689214  1.0000
  H   H6        1.0  0.6898577549389274  0.31189166586825207  0.6052379372584367  1.0000
  H   H7        1.0  0.8030308330265327  0.19334237422164338  0.381080352170919  1.0000
  H   H8        1.0  0.8154940050396605  0.4239630296235219  0.3831906085294533  1.0000
  H   H9        1.0  0.20376418434651103  0.3027569382763815  0.9064511019579554  1.0000
  H   H10       1.0  0.1290071765124878  0.23224884170006274  0.9822936661642385  1.0000
  H   H11       1.0  0.2151376942121885  0.1377262008161111  0.9832393971649935  1.0000
  H   H12       1.0  0.2891990755122507  0.20830872750575222  0.9067521424810537  1.0000
  H   H13       1.0  0.2159752345748629  0.12303800988336629  0.09559513381377369  1.0000
  H   H14       1.0  0.28855077652050204  0.18422110105873907  0.0985928204762985  1.0000
  H   H15       1.0  0.1281057832162915  0.21658773702930026  0.0954576034923846  1.0000
  H   H16       1.0  0.2009304906428611  0.27693376128264896  0.09944020200227753  1.0000
  H   H17       1.0  0.30766982771336154  0.3908653444776959  0.9118198271925168  1.0000
  H   H18       1.0  0.30736898685767494  0.3795202844872065  0.990533763119437  1.0000
  H   H19       1.0  0.3954727495094161  0.2868612359706119  0.9880140888539228  1.0000
  H   H20       1.0  0.393800301674375  0.2965689758631527  0.9101993462862834  1.0000
  H   H21       1.0  0.8887873994052385  0.8010118631019623  0.9026455871072867  1.0000
  H   H22       1.0  0.887889587820709  0.7875501977812505  0.9825702089784514  1.0000
  H   H23       1.0  0.7983460507526631  0.8788190447647819  0.9863278362154091  1.0000
  H   H24       1.0  0.8009116634655841  0.8928659743177718  0.9057347159448668  1.0000
  H   H25       1.0  0.6923529498184564  0.7750494579935603  0.09222981841281108  1.0000
  H   H26       1.0  0.6216203728534994  0.714181387987928  0.08683868518059504  1.0000
  H   H27       1.0  0.7827064322591538  0.6840922109164183  0.08952920789384686  1.0000
  H   H28       1.0  0.7107084117125098  0.6229681393933999  0.0853606478015578  1.0000
  H   H29       1.0  0.7865010137353536  0.7123708307628436  0.8959300794024329  1.0000
  H   H30       1.0  0.712933961103019  0.6407254935629824  0.970501383628303  1.0000
  H   H31       1.0  0.6251957801974442  0.7340441992567576  0.9703034408707151  1.0000
  H   H32       1.0  0.6997364610591035  0.8062978326679512  0.8969845009106905  1.0000
  H   H33       1.0  0.16307686920184492  0.7927099903130496  0.934679334346832  1.0000
  H   H34       1.0  0.24776861771748318  0.7551952295315374  0.8958499023900187  1.0000
  H   H35       1.0  0.3338045252405166  0.8514974932708482  0.8937237907015428  1.0000
  H   H36       1.0  0.24856456581532876  0.8856427629499706  0.9361680184768133  1.0000
  H   H37       1.0  0.39225306610476457  0.7401483573016421  0.9609137754347897  1.0000
  H   H38       1.0  0.35270413954167174  0.6995381009854355  0.05001946824267382  1.0000
  H   H39       1.0  0.3023537245153065  0.6438827534334449  0.9664901067790267  1.0000
  H   H40       1.0  0.2603167768321626  0.6062142716559719  0.055675088173210055  1.0000
  H   H41       1.0  0.10077674914717956  0.7371196910890986  0.06350859859082907  1.0000
  H   H42       1.0  0.13842873089100044  0.6591703250693612  0.11287011439261355  1.0000
  H   H43       1.0  0.23092231064311616  0.7496860698631378  0.11122169945168288  1.0000
  H   H44       1.0  0.19047717025560465  0.8276299529906906  0.06454160068174991  1.0000
  H   H45       1.0  0.8958967290808176  0.26951582869862273  0.9326181409759754  1.0000
  H   H46       1.0  0.8483455884180132  0.34495500176905836  0.8901584955266129  1.0000
  H   H47       1.0  0.7643632513945634  0.24777858287627194  0.8914210118941314  1.0000
  H   H48       1.0  0.8067642185696257  0.17216502271036654  0.9398274792112815  1.0000
  H   H49       1.0  0.6481278281819841  0.3028517666512371  0.9501962210562593  1.0000
  H   H50       1.0  0.6016997232412963  0.2603590057410869  0.03910187199027595  1.0000
  H   H51       1.0  0.7327214052116418  0.3940113050063161  0.9554538895146719  1.0000
  H   H52       1.0  0.6909112588476561  0.3463856537362204  0.04479052537391236  1.0000
  H   H53       1.0  0.8375394528760866  0.20204060223971249  0.06143594499245343  1.0000
  H   H54       1.0  0.7577435160272399  0.23641458069986498  0.1076450582912258  1.0000
  H   H55       1.0  0.661758522272507  0.1497906227085721  0.10885873663141866  1.0000
  H   H56       1.0  0.7418553264103239  0.1102686709341683  0.06808335939800968  1.0000
  C   C1        1.0  0.13977803518054802  0.6344258813066759  0.0034364670318111747  1.0000
  C   C2        1.0  0.9140340235836321  0.4148368386576492  0.1720316744362903  1.0000
  C   C3        1.0  0.14834915006004223  0.3638698846455454  0.9982130268534916  1.0000
  C   C4        1.0  0.8588256356386738  0.36466692858087413  0.9965505033929745  1.0000
  C   C5        1.0  0.08859730186833299  0.5898867988676315  0.8166180430178825  1.0000
  C   C6        1.0  0.8592997501318677  0.6437800806927356  0.9880265519943948  1.0000
  C   C7        1.0  0.36082950895678323  0.13933147772177526  0.9949711648314546  1.0000
  C   C8        1.0  0.5866054851249061  0.09162382348559817  0.8156481190127209  1.0000
  C   C9        1.0  0.3556372400796519  0.8605279887941675  0.9982716984559233  1.0000
  C   C10       1.0  0.6447203577084862  0.8669400454898193  0.9905963267431801  1.0000
  C   C11       1.0  0.4228947901200541  0.9117450322548136  0.1718574022322771  1.0000
  C   C12       1.0  0.6421144221400398  0.14233092250484697  0.9976851235044889  1.0000
  C   C13       1.0  0.38507664737485914  0.8758125701884296  0.24786063840246444  1.0000
  C   C14       1.0  0.43081266895637776  0.8506595210961052  0.28891282452799055  1.0000
  C   C15       1.0  0.39659020281990115  0.8175554447967244  0.35903525397302627  1.0000
  C   C16       1.0  0.31142089406077395  0.8056060526311981  0.3921552538498361  1.0000
  C   C17       1.0  0.26335041730309433  0.8293880805483553  0.35266401749585446  1.0000
  C   C18       1.0  0.30059992546257763  0.8644737964319944  0.2827355135541296  1.0000
  C   C19       1.0  0.27444954529516963  0.770249819362185  0.4636277911656492  1.0000
  C   C20       1.0  0.2415673402670464  0.7394119071737748  0.5252086324030145  1.0000
  C   C21       1.0  0.2038228381903124  0.7032140797350407  0.5966235613113328  1.0000
  C   C22       1.0  0.250854310023243  0.6876265875478323  0.6369319259129753  1.0000
  C   C23       1.0  0.2125084715638224  0.6527999584745813  0.7067846864887315  1.0000
  C   C24       1.0  0.12795040082044554  0.6293453494324339  0.7407362265709875  1.0000
  C   C25       1.0  0.08329868281273886  0.6450762946001659  0.6988369490473758  1.0000
  C   C26       1.0  0.11861586555592402  0.6819161431530105  0.6287840850966404  1.0000
  C   C27       1.0  0.6263186201010313  0.12909277255733542  0.739934140024978  1.0000
  C   C28       1.0  0.6513773385160989  0.08433789423344247  0.7025813065734565  1.0000
  C   C29       1.0  0.6869669634281054  0.1176546701544439  0.6325753099889653  1.0000
  C   C30       1.0  0.7017877899104548  0.20062216971175667  0.5961348041362272  1.0000
  C   C31       1.0  0.6789979780166816  0.2476468667187531  0.6319694581114277  1.0000
  C   C32       1.0  0.6411076752883034  0.2113981225025512  0.7018217807157326  1.0000
  C   C33       1.0  0.7384186392568993  0.23628257777540543  0.5247684571206576  1.0000
  C   C34       1.0  0.7692332426342431  0.2675651406921986  0.4631330858373275  1.0000
  C   C35       1.0  0.8046606876669813  0.30379506919735627  0.3917300762024496  1.0000
  C   C36       1.0  0.8189263118588529  0.2575073616709247  0.35501350870251963  1.0000
  C   C37       1.0  0.8522989649543221  0.2944841617176905  0.2849748227705007  1.0000
  C   C38       1.0  0.8758168396619369  0.3766638426498544  0.2478521972033647  1.0000
  C   C39       1.0  0.8617855085946928  0.42063103266551843  0.28618452402626826  1.0000
  C   C40       1.0  0.8259994663181657  0.3866918846334073  0.35618334149841496  1.0000
  C   C41       1.0  0.19307654692131854  0.260149340305766  0.9585790637175791  1.0000
  C   C42       1.0  0.2503553178727315  0.1975346643494476  0.9587193986267124  1.0000
  C   C43       1.0  0.30511935300410903  0.20087232305957056  0.9972827479478923  1.0000
  C   C44       1.0  0.2501127386379168  0.1832130038689925  0.07056689308592466  1.0000
  C   C45       1.0  0.19198289456450374  0.24506067945205245  0.07092901475414952  1.0000
  C   C46       1.0  0.20792239139012025  0.3054556827183958  0.9976955449552776  1.0000
  C   C47       1.0  0.296801226538733  0.3466268386310887  0.9633373902141572  1.0000
  C   C48       1.0  0.35458085833359837  0.2846849233595421  0.9622159655732998  1.0000
  C   C49       1.0  0.8486982907410197  0.7868377893720792  0.9551490307373028  1.0000
  C   C50       1.0  0.7897523997100038  0.8478178152893605  0.9571289331607743  1.0000
  C   C51       1.0  0.700619650090431  0.8051697744901177  0.9900008473243814  1.0000
  C   C52       1.0  0.6851270622006781  0.7440637987502612  0.06271418561955498  1.0000
  C   C53       1.0  0.7444611981165394  0.6834053750727946  0.061377073399725694  1.0000
  C   C54       1.0  0.7999879620293981  0.7025946381818002  0.9874984487718592  1.0000
  C   C55       1.0  0.7471195901518116  0.7006516184768612  0.9479554057328343  1.0000
  C   C56       1.0  0.6890025602515308  0.7624130892597519  0.9485287861080067  1.0000
  C   C57       1.0  0.21911992894658278  0.7700090138789476  0.9387999017299933  1.0000
  C   C58       1.0  0.27673135600299054  0.8326565435240099  0.9382748794944717  1.0000
  C   C59       1.0  0.2965207103010101  0.7976283432457479  0.0030678826708197145  1.0000
  C   C60       1.0  0.3356700449035301  0.7232501205226496  0.005514061108741069  1.0000
  C   C61       1.0  0.2755803371454419  0.6605615931283778  0.008558706168358344  1.0000
  C   C62       1.0  0.19658163273769697  0.6935862411581297  0.0052897756516970705  1.0000
  C   C63       1.0  0.15698372322037102  0.7137385264440682  0.06577251148759444  1.0000
  C   C64       1.0  0.2169704079898267  0.7743657827299302  0.06521907574524026  1.0000
  C   C65       1.0  0.8367880225705947  0.2889918285768971  0.9350856567235368  1.0000
  C   C66       1.0  0.7785922179632649  0.22523499142587866  0.9372955786014427  1.0000
  C   C67       1.0  0.6983847733444861  0.20147546146939987  0.00017270384792313957  1.0000
  C   C68       1.0  0.6607145303213643  0.2767638945564173  0.9966773859653485  1.0000
  C   C69       1.0  0.7188798632900912  0.33631704607305574  0.9990536678075798  1.0000
  C   C70       1.0  0.7990230532261933  0.30407653469467993  0.9991393569792277  1.0000
  C   C71       1.0  0.7805807549159879  0.22540546304566078  0.06217190799344515  1.0000
  C   C72       1.0  0.718349316311553  0.16565685917078812  0.06419997193410144  1.0000
  N   N1        1.0  0.5203669594933302  0.8551028754323935  0.2589554195737164  1.0000
  N   N2        1.0  0.2448211021763527  0.8928539778725124  0.24613735019245556  1.0000
  N   N3        1.0  0.2671759539413614  0.6445012910849074  0.744346506158969  1.0000
  N   N4        1.0  0.9938209072669367  0.6196837583794804  0.7275855714280155  1.0000
  N   N5        1.0  0.6442948134828157  0.9970039440727376  0.7369964806607143  1.0000
  N   N6        1.0  0.6130247179377265  0.2652777502394201  0.734782339118844  1.0000
  N   N7        1.0  0.8582459107760698  0.2418957791292442  0.25032128806441273  1.0000
  N   N8        1.0  0.8885152827414587  0.5075791367807413  0.2531221784364206  1.0000
  O   O1        1.0  0.0019049580254489125  0.5030820886300235  0.9932283475496175  1.0000
  O   O2        1.0  0.16870018868760886  0.6116081089931099  0.9562641651646899  1.0000
  O   O3        1.0  0.9024526425780478  0.4851565016626223  0.1429001854593822  1.0000
  O   O4        1.0  0.07290672408836937  0.33410911163527857  0.029410708353275146  1.0000
  O   O5        1.0  0.06761033114059958  0.61290917153201  0.04800082386196187  1.0000
  O   O6        1.0  0.17685882064431271  0.4375981767039647  0.9673521306172149  1.0000
  O   O7        1.0  0.9542309486637065  0.3728420484736574  0.14481826961791452  1.0000
  O   O8        1.0  0.8902377281359507  0.3407621209987042  0.04131528673885039  1.0000
  O   O9        1.0  0.013247929641821072  0.5918361130443087  0.842108928782153  1.0000
  O   O10       1.0  0.8737867399527772  0.43465891225199016  0.9492999521339058  1.0000
  O   O11       1.0  0.13521261298807022  0.5585921160307238  0.8473257706946099  1.0000
  O   O12       1.0  0.9049430082815847  0.6416265656200153  0.020649143512450584  1.0000
  O   O13       1.0  0.8596871998261831  0.6010881985788356  0.9567638596035054  1.0000
  O   O14       1.0  0.5020310699813705  0.001928035005846599  0.9950298088835935  1.0000
  O   O15       1.0  0.3338371006310084  0.0687930904170742  0.04125552123315401  1.0000
  O   O16       1.0  0.5959961268053604  0.1336630824387512  0.8447984836450642  1.0000
  O   O17       1.0  0.4304980548682949  0.8668135090874004  0.9622862144637522  1.0000
  O   O18       1.0  0.4298363596275792  0.16224632666643396  0.9459184429767972  1.0000
  O   O19       1.0  0.3266438868976635  0.9038763046465518  0.0286749321147327  1.0000
  O   O20       1.0  0.5477783830608942  0.021928022209046095  0.8428432214637595  1.0000
  O   O21       1.0  0.6137411632518165  0.8888698535144641  0.9455422922666442  1.0000
  O   O22       1.0  0.49757433822850317  0.9418866045057541  0.14478865562849555  1.0000
  O   O23       1.0  0.6340565907413308  0.893150814948072  0.035421143225100565  1.0000
  O   O24       1.0  0.37550413191281967  0.9079153102973123  0.14264860144138675  1.0000
  O   O25       1.0  0.596975406124166  0.17097075206619652  0.9642292155478386  1.0000
  O   O26       1.0  0.6451329798322406  0.0688866541703632  0.027464436119025427  1.0000
  O   O27       1.0  0.544661717567834  0.807675207957736  0.23468794944334803  1.0000
  O   O28       1.0  0.5623671093140459  0.9029975790179632  0.26420256947425  1.0000
  O   O29       1.0  0.2469475597547017  0.9651371575504938  0.21938439559966855  1.0000
  O   O30       1.0  0.19796014294319522  0.8415727803099954  0.2491232767732612  1.0000
  O   O31       1.0  0.2651938657909909  0.6909939682743839  0.7702156353006657  1.0000
  O   O32       1.0  0.3131490401391659  0.5951359700960809  0.7429140797612063  1.0000
  O   O33       1.0  0.9698401845051166  0.5482441314624183  0.750321833652407  1.0000
  O   O34       1.0  0.9516920091810447  0.6727556559217404  0.722687557465612  1.0000
  O   O35       1.0  0.6878623306891499  0.9715619315777885  0.7697784472024125  1.0000
  O   O36       1.0  0.5985575927590858  0.9576613275318591  0.7269692654703873  1.0000
  O   O37       1.0  0.5387718255523525  0.26218091579572445  0.7601139849008547  1.0000
  O   O38       1.0  0.666422839456132  0.3112074877972759  0.730913803856076  1.0000
  O   O39       1.0  0.814108932742748  0.2500208841012679  0.2178920143372096  1.0000
  O   O40       1.0  0.9036530987344308  0.1920247576197127  0.25976784930202257  1.0000
  O   O41       1.0  0.9625823789794409  0.5308704789192404  0.22573133861226305  1.0000
  O   O42       1.0  0.8343742364687614  0.5487039822999691  0.25881988093011893  1.0000
