data_image0
_chemical_formula_structural       Zn4C64S8N4Cl24O16F8
_chemical_formula_sum              "Zn4 C64 S8 N4 Cl24 O16 F8"
_cell_length_a       12.626008859180514
_cell_length_b       12.625484980006938
_cell_length_c       38.257130067129
_cell_angle_alpha    91.14280187998607
_cell_angle_beta     90.01136571681897
_cell_angle_gamma    89.941977465465

_space_group_name_H-M_alt    "P 1"
_space_group_IT_number       1

loop_
  _space_group_symop_operation_xyz
  'x, y, z'

loop_
  _atom_site_type_symbol
  _atom_site_label
  _atom_site_symmetry_multiplicity
  _atom_site_fract_x
  _atom_site_fract_y
  _atom_site_fract_z
  _atom_site_occupancy
  Zn  Zn1       1.0  0.49901986385829394  0.4983897715256304  0.0399082291826858  1.0000
  Zn  Zn2       1.0  0.5033911072288717  0.4991760742965496  0.9600720621613306  1.0000
  Zn  Zn3       1.0  0.49908522666240873  0.5017158256440053  0.46010511008018545  1.0000
  Zn  Zn4       1.0  0.5035214319734821  0.5009017657046329  0.5399510609876971  1.0000
  C   C1        1.0  0.3009252611624262  0.49968851593604313  0.9857968984881609  1.0000
  C   C2        1.0  0.5006700495572363  0.6995332796631357  0.0146628191867748  1.0000
  C   C3        1.0  0.7031712136869644  0.5017881031425873  0.9886511935178106  1.0000
  C   C4        1.0  0.4980545702241841  0.2970151760187889  0.0109232901637739  1.0000
  C   C5        1.0  0.3010322721128631  0.500509087039184  0.5142229700796221  1.0000
  C   C6        1.0  0.5008652671006928  0.30057429056556373  0.4853505030965266  1.0000
  C   C7        1.0  0.7032908254191669  0.4981649277624173  0.5113602655048126  1.0000
  C   C8        1.0  0.4979753942059305  0.703064672066283  0.4891270513653225  1.0000
  C   C9        1.0  0.582276935774729  0.5294691958058166  0.3811178004965114  1.0000
  C   C10       1.0  0.5858951472195953  0.5275684643832363  0.3443492349593953  1.0000
  C   C11       1.0  0.40593604772789865  0.4801301995677534  0.3812381337920669  1.0000
  C   C12       1.0  0.40088141820763923  0.48099419344429606  0.3445172617503118  1.0000
  C   C13       1.0  0.49313942341502337  0.5036561015488558  0.3256343856510853  1.0000
  C   C14       1.0  0.4928523214762991  0.5019344293005473  0.2868106147876404  1.0000
  C   C15       1.0  0.49412900865376497  0.4048902403485144  0.2682303488824758  1.0000
  C   C16       1.0  0.49163072025884713  0.5970797466833346  0.2684220879053711  1.0000
  C   C17       1.0  0.4059057207482084  0.5199148555600814  0.11868383220674161  1.0000
  C   C18       1.0  0.40089856720153  0.5190541924932575  0.1554074299637307  1.0000
  C   C19       1.0  0.5823457660227832  0.4705449675301451  0.1188123640581296  1.0000
  C   C20       1.0  0.5860355574080033  0.47257009655343296  0.1555789645411068  1.0000
  C   C21       1.0  0.4932407178897478  0.4964515766090686  0.1742928169245772  1.0000
  C   C22       1.0  0.49296233097976483  0.4981946660659275  0.2131157845022642  1.0000
  C   C23       1.0  0.4940403136239483  0.5952488375839877  0.23169773018157966  1.0000
  C   C24       1.0  0.49187283006196486  0.4030543779615953  0.2315034665830851  1.0000
  C   C25       1.0  0.5285829078412689  0.5850891168553289  0.6193498546887427  1.0000
  C   C26       1.0  0.5265959838912196  0.5896478303753341  0.6561134504789194  1.0000
  C   C27       1.0  0.4804495264950078  0.40833378405596216  0.6182903626306739  1.0000
  C   C28       1.0  0.48110690706177917  0.40432478740635247  0.6550135763522036  1.0000
  C   C29       1.0  0.5036149870430009  0.49718034544952155  0.6743552789406522  1.0000
  C   C30       1.0  0.5034114313363034  0.49808191108038347  0.7131715855887606  1.0000
  C   C31       1.0  0.4073073288996909  0.5002735114636038  0.7316307521848557  1.0000
  C   C32       1.0  0.5995056060601698  0.4977869212907393  0.7316629133271491  1.0000
  C   C33       1.0  0.5281680911708689  0.4149912893588308  0.8806685159350209  1.0000
  C   C34       1.0  0.5262804664900712  0.41043051978002154  0.8439061791387131  1.0000
  C   C35       1.0  0.4803075278593667  0.5918983215907332  0.8817134189354051  1.0000
  C   C36       1.0  0.4810971846998057  0.595951852933318  0.8449895022564107  1.0000
  C   C37       1.0  0.5035074964950327  0.5030029899853474  0.8256579920886296  1.0000
  C   C38       1.0  0.5033673149491094  0.5020899003405787  0.786836895957947  1.0000
  C   C39       1.0  0.5994907102681708  0.5020780829367056  0.7683779065905654  1.0000
  C   C40       1.0  0.40728155529966875  0.5002007563918339  0.7683587138121554  1.0000
  C   C41       1.0  0.8913608193571393  0.5047099258602754  0.015263830726055999  1.0000
  C   C42       1.0  0.11391247782494672  0.5020835265232647  0.9573272384688211  1.0000
  C   C43       1.0  0.8198788449115569  0.5036438471178356  0.9878254354510431  1.0000
  C   C44       1.0  0.18427757893655894  0.5013710746686683  0.9851282238057095  1.0000
  C   C45       1.0  0.006555633398591  0.5033746502755464  0.9678795678626456  1.0000
  C   C46       1.0  0.9980925422107207  0.504185438693696  0.0044661275496836  1.0000
  C   C47       1.0  0.4974361826371947  0.8887351314993949  0.0429092649626455  1.0000
  C   C48       1.0  0.4980323642674095  0.1069103541165504  0.98454688242078  1.0000
  C   C49       1.0  0.4996239492119443  0.8162341877142583  0.0152491628339746  1.0000
  C   C50       1.0  0.49695472855809447  0.18039841072672402  0.0118640103848335  1.0000
  C   C51       1.0  0.49819395237803116  0.000993885506623805  0.9955435355108406  1.0000
  C   C52       1.0  0.49671160275221377  0.9952987883088086  0.0321507543738306  1.0000
  C   C53       1.0  0.891433309101153  0.4951870615580773  0.4847602750646232  1.0000
  C   C54       1.0  0.11406098192333763  0.49805696926353693  0.5427004246010867  1.0000
  C   C55       1.0  0.8199881715734988  0.496275555444086  0.5121953734069464  1.0000
  C   C56       1.0  0.18438819218551575  0.49880036588206167  0.5148996486908217  1.0000
  C   C57       1.0  0.006682966730387801  0.4966245098385611  0.5321514053774479  1.0000
  C   C58       1.0  0.9981691631867308  0.4957561111357763  0.4955646532782012  1.0000
  C   C59       1.0  0.4973543214567044  0.11139802074058737  0.45711595870739796  1.0000
  C   C60       1.0  0.4980961052651409  0.8932578782235794  0.5154919275465063  1.0000
  C   C61       1.0  0.49971510976912015  0.1838967551914479  0.48477227341886925  1.0000
  C   C62       1.0  0.49687978368090313  0.8197179797238264  0.4881855964206778  1.0000
  C   C63       1.0  0.49824420037112566  0.999159110723525  0.5044798516330219  1.0000
  C   C64       1.0  0.4966192129319609  0.004830996942168002  0.4678739851653191  1.0000
  S   S1        1.0  0.8847074226336745  0.502791258369264  0.9475203202912752  1.0000
  S   S2        1.0  0.118919969398398  0.5024161353475946  0.0252012249549622  1.0000
  S   S3        1.0  0.5011415265780315  0.878532002697888  0.9750596309345809  1.0000
  S   S4        1.0  0.4955214752506407  0.11873504635092759  0.0522890832583585  1.0000
  S   S5        1.0  0.8848294199708492  0.49718835505401415  0.5525015305614076  1.0000
  S   S6        1.0  0.11896766394131221  0.497618939039782  0.47482578568012457  1.0000
  S   S7        1.0  0.5013286189968441  0.1216031733990519  0.5249624914851623  1.0000
  S   S8        1.0  0.49533109262093694  0.8813673482268456  0.44775272815476097  1.0000
  N   N1        1.0  0.49451118553230344  0.5046513159428229  0.3987300151092086  1.0000
  N   N2        1.0  0.4945102883447419  0.49537006411920703  0.101198624211797  1.0000
  N   N3        1.0  0.5049084943352967  0.4964730178978627  0.6012718685973013  1.0000
  N   N4        1.0  0.5045876523477517  0.5036820914304839  0.8987382666582349  1.0000
  Cl  Cl1       1.0  0.2973820909430743  0.4474328638956422  0.4051521008288717  1.0000
  Cl  Cl2       1.0  0.28467900871031304  0.45465528490498736  0.3230415751806817  1.0000
  Cl  Cl3       1.0  0.6914192988382055  0.5626473941384873  0.4048829917109629  1.0000
  Cl  Cl4       1.0  0.7014311471794555  0.5535242802762993  0.3227224577004222  1.0000
  Cl  Cl5       1.0  0.4989430801832526  0.2886972037719815  0.29066799134159277  1.0000
  Cl  Cl6       1.0  0.4872701193785005  0.2845410752833786  0.2088326755877361  1.0000
  Cl  Cl7       1.0  0.48681081963959383  0.7156085412954242  0.2910852775585937  1.0000
  Cl  Cl8       1.0  0.49867421148006497  0.7114338482201034  0.2092551674084646  1.0000
  Cl  Cl9       1.0  0.7016600217714597  0.4466744171611481  0.1771941294470309  1.0000
  Cl  Cl10      1.0  0.6914506926708199  0.43718704983728424  0.0950517898774805  1.0000
  Cl  Cl11      1.0  0.2846194235956219  0.5453044501786551  0.1768826887500623  1.0000
  Cl  Cl12      1.0  0.29722682651195953  0.5525373089442381  0.0947769288837534  1.0000
  Cl  Cl13      1.0  0.4482358970700275  0.29890079509853956  0.5937984574464323  1.0000
  Cl  Cl14      1.0  0.4550654463228483  0.2886336101227299  0.6759291816484847  1.0000
  Cl  Cl15      1.0  0.5605114098041994  0.6939068095796301  0.596159111293197  1.0000
  Cl  Cl16      1.0  0.551819687157817  0.7059469455835978  0.6783491177214458  1.0000
  Cl  Cl17      1.0  0.2900401309347913  0.5035846833832877  0.7090396343288532  1.0000
  Cl  Cl18      1.0  0.2899757437928443  0.49726453821784833  0.7909096912727307  1.0000
  Cl  Cl19      1.0  0.716895669713935  0.4917302356130762  0.7091271705384656  1.0000
  Cl  Cl20      1.0  0.7168510512037899  0.5076995891001843  0.7909371689625856  1.0000
  Cl  Cl21      1.0  0.4553748421486006  0.7117262206025073  0.8240694733529281  1.0000
  Cl  Cl22      1.0  0.44816430665506607  0.7014442398378833  0.9061926177836881  1.0000
  Cl  Cl23      1.0  0.5514163346681472  0.2940732209272952  0.8216727135550954  1.0000
  Cl  Cl24      1.0  0.5598495595893597  0.3060435666285244  0.9038718062138287  1.0000
  O   O1        1.0  0.3439115450914799  0.4989764381852665  0.015782420610897  1.0000
  O   O2        1.0  0.34855092693825906  0.4992062246952997  0.9561752988068689  1.0000
  O   O3        1.0  0.5025457187718061  0.6547927112396933  0.9846596931216282  1.0000
  O   O4        1.0  0.49937106210678195  0.6535179189379219  0.0442540037484349  1.0000
  O   O5        1.0  0.6584561472037507  0.5012351130433785  0.9583284299709192  1.0000
  O   O6        1.0  0.6571396872738833  0.5002311622442264  0.0179337460300673  1.0000
  O   O7        1.0  0.49657175702872547  0.3434281640428267  0.04125761000258879  1.0000
  O   O8        1.0  0.5009027186189527  0.3414294255366316  0.9816720826561607  1.0000
  O   O9        1.0  0.34398589327194173  0.501174101569731  0.48423497950520294  1.0000
  O   O10       1.0  0.34869972145293815  0.5010263118752007  0.5438423560271275  1.0000
  O   O11       1.0  0.5028081299408386  0.34527301364483515  0.5153574160834395  1.0000
  O   O12       1.0  0.4995696239713965  0.3466268873832804  0.45576140313324487  1.0000
  O   O13       1.0  0.6585879625418299  0.4986737734953266  0.5416737858795102  1.0000
  O   O14       1.0  0.6572367271193115  0.4998084648127019  0.4820745241899899  1.0000
  O   O15       1.0  0.4964913233600043  0.6566654607612604  0.45878711172460374  1.0000
  O   O16       1.0  0.5008205176455788  0.6586810062505533  0.5183820105053698  1.0000
  F   F1        1.0  0.8648361195936971  0.5060613081491782  0.0493901177209324  1.0000
  F   F2        1.0  0.1425021264514115  0.5013975240982872  0.9234141745598307  1.0000
  F   F3        1.0  0.4963123259841423  0.8627033788096341  0.0768701573908075  1.0000
  F   F4        1.0  0.49880373250134374  0.13092543710421717  0.9503786911757927  1.0000
  F   F5        1.0  0.8648959964354433  0.4937364068866401  0.4506338021751404  1.0000
  F   F6        1.0  0.1426589585013147  0.49884171282516826  0.5766174110467404  1.0000
  F   F7        1.0  0.4961171721044053  0.13742303859209667  0.4231554864284491  1.0000
  F   F8        1.0  0.49901015336566695  0.8692529621804111  0.5496609173450295  1.0000
