data_image0
_chemical_formula_structural       CdH12C22S2N14O2
_chemical_formula_sum              "Cd1 H12 C22 S2 N14 O2"
_cell_length_a       5.638713080120192
_cell_length_b       8.562912915227749
_cell_length_c       13.388120872696815
_cell_angle_alpha    70.89037859097326
_cell_angle_beta     83.05289690477174
_cell_angle_gamma    86.71854588552789

_space_group_name_H-M_alt    "P 1"
_space_group_IT_number       1

loop_
  _space_group_symop_operation_xyz
  'x, y, z'

loop_
  _atom_site_type_symbol
  _atom_site_label
  _atom_site_symmetry_multiplicity
  _atom_site_fract_x
  _atom_site_fract_y
  _atom_site_fract_z
  _atom_site_occupancy
  Cd  Cd1       1.0  0.4999977992181002  0.9999935467083744  0.9999999771279277  1.0000
  H   H1        1.0  0.7180422773247983  0.31196028464600545  0.8074090528285822  1.0000
  H   H2        1.0  0.2819669069791786  0.6880317509154208  0.1925909484025397  1.0000
  H   H3        1.0  0.685469554077514  0.48234396509669597  0.614629879639189  1.0000
  H   H4        1.0  0.3145272381748043  0.517658125360036  0.38537244336010457  1.0000
  H   H5        1.0  0.1483390743825908  0.027685444111341398  0.8029030503423584  1.0000
  H   H6        1.0  0.851661179258052  0.9723116315413519  0.19709715129521754  1.0000
  H   H7        1.0  0.5035701960540422  0.12113218187253239  0.3856071600720199  1.0000
  H   H8        1.0  0.49643736914938336  0.8788673410516309  0.6143958178290276  1.0000
  H   H9        1.0  0.6278683672351734  0.45636205487683407  0.08054320733615583  1.0000
  H   H10       1.0  0.3721338001031285  0.5436325583367673  0.9194596486442493  1.0000
  H   H11       1.0  0.9768733126556768  0.5682010357198023  0.1340658070103657  1.0000
  H   H12       1.0  0.0231251196848135  0.4318010013449153  0.8659334412836657  1.0000
  C   C1        1.0  0.5835239626973846  0.2874000054137013  0.7627465543950861  1.0000
  C   C2        1.0  0.4164816504161737  0.7125970179740049  0.237253339183539  1.0000
  C   C3        1.0  0.5646595653665685  0.3806887975164057  0.6564869640971621  1.0000
  C   C4        1.0  0.4353371065898415  0.619309548977199  0.34351317890558875  1.0000
  C   C5        1.0  0.2523570250050682  0.2242493427516123  0.6549161652565515  1.0000
  C   C6        1.0  0.7476415798451085  0.7757490222906752  0.3450868470788251  1.0000
  C   C7        1.0  0.2695224852179336  0.12904869438510497  0.7615553828039765  1.0000
  C   C8        1.0  0.7304796107104821  0.8709508538262797  0.23844567414181483  1.0000
  C   C9        1.0  0.07164992686183781  0.1889270174840333  0.5967194086061696  1.0000
  C   C10       1.0  0.9283468200874835  0.8110762999777066  0.4032819073809151  1.0000
  C   C11       1.0  0.8712342133001912  0.21800351458484354  0.4658747717709915  1.0000
  C   C12       1.0  0.1287625720413459  0.7820047648524379  0.5341269741956935  1.0000
  C   C13       1.0  0.8030392161805936  0.2865851731315487  0.3584352935533914  1.0000
  C   C14       1.0  0.1969556623740658  0.713419379764275  0.6415643751030728  1.0000
  C   C15       1.0  0.6089748481539843  0.22204684083031614  0.3288552391249837  1.0000
  C   C16       1.0  0.39102740287952986  0.7779515073538333  0.6711490538472233  1.0000
  C   C17       1.0  0.6772984719446243  0.4057016652778173  0.1615001618003902  1.0000
  C   C18       1.0  0.3227069128624436  0.5942965401519585  0.8384950097423456  1.0000
  C   C19       1.0  0.8714071911208733  0.4685577718864877  0.1912627774848445  1.0000
  C   C20       1.0  0.1285947410001569  0.5314442123497399  0.8087347794270698  1.0000
  C   C21       1.0  0.9799554452351202  0.18345649491197236  0.02347847481964754  1.0000
  C   C22       1.0  0.0200226646068131  0.8165369019561336  0.9765088909814496  1.0000
  S   S1        1.0  0.2077070323757866  0.2050207650012936  0.08132446703768892  1.0000
  S   S2        1.0  0.7922909886547201  0.7949824091425625  0.9186663441967725  1.0000
  N   N1        1.0  0.4358299574418893  0.16185912927482346  0.8148231817753171  1.0000
  N   N2        1.0  0.564177459567226  0.8381354046960396  0.18517713713192313  1.0000
  N   N3        1.0  0.39953478599480247  0.34984524446730336  0.6022115154162505  1.0000
  N   N4        1.0  0.6004602197665463  0.6501568634110836  0.3977909102693574  1.0000
  N   N5        1.0  0.9113156076825677  0.07266655575764959  0.6294415301717251  1.0000
  N   N6        1.0  0.08868284206251789  0.9273330093118871  0.3705582461372359  1.0000
  N   N7        1.0  0.7815813030998271  0.09136303555633418  0.544679558891346  1.0000
  N   N8        1.0  0.2184100024728934  0.9086415521828071  0.4553203151377545  1.0000
  N   N9        1.0  0.9351967297437155  0.41064165414260145  0.2897615793535806  1.0000
  N   N10       1.0  0.06480000850331182  0.5893628993167324  0.7102394726260358  1.0000
  N   N11       1.0  0.5467513612957974  0.2820367624540054  0.22984995312238962  1.0000
  N   N12       1.0  0.45325066834200817  0.7179565787916574  0.7701501948465435  1.0000
  N   N13       1.0  0.8094819131806477  0.17194615497783156  0.9822866488081203  1.0000
  N   N14       1.0  0.1905396268295689  0.8280618176080878  0.017708458516935408  1.0000
  O   O1        1.0  0.05620203563864119  0.2858699978178689  0.4935855904162382  1.0000
  O   O2        1.0  0.943794784512079  0.7141333376290502  0.5064172115803204  1.0000
