data_image0
_chemical_formula_structural       Zn2H2C16N2O10
_chemical_formula_sum              "Zn2 H2 C16 N2 O10"
_cell_length_a       10.627677833834454
_cell_length_b       11.892458042774019
_cell_length_c       14.049884801736725
_cell_angle_alpha    90.00614328584275
_cell_angle_beta     101.44338833834686
_cell_angle_gamma    90.00152135634855

_space_group_name_H-M_alt    "P 1"
_space_group_IT_number       1

loop_
  _space_group_symop_operation_xyz
  'x, y, z'

loop_
  _atom_site_type_symbol
  _atom_site_label
  _atom_site_symmetry_multiplicity
  _atom_site_fract_x
  _atom_site_fract_y
  _atom_site_fract_z
  _atom_site_occupancy
  Zn  Zn1       1.0  0.6313203670912911  0.49999774632988186  0.5101944828635396  1.0000
  Zn  Zn2       1.0  0.3686790383576763  0.49999500457661844  0.4897929055419112  1.0000
  H   H1        1.0  0.7374438249404063  0.5000686971827264  0.001641901341940862  1.0000
  H   H2        1.0  0.26255470173078516  0.49994255417287553  0.9983667459789771  1.0000
  C   C1        1.0  0.5000090499336592  0.2809903466522528  0.499986480524278  1.0000
  C   C2        1.0  0.45210589819845387  0.5000130806630948  0.12050143814621349  1.0000
  C   C3        1.0  0.5000030155236459  0.1596184666922653  0.5000043285128584  1.0000
  C   C4        1.0  0.5000324184624532  0.8403835364151246  0.5000181277548919  1.0000
  C   C5        1.0  0.49999758834958635  0.0567347737015282  0.5000053026016786  1.0000
  C   C6        1.0  0.5000061502474934  0.9432453661403459  0.5000125324617386  1.0000
  C   C7        1.0  0.0632699379090198  0.4999968235066704  0.4964839858492027  1.0000
  C   C8        1.0  0.9367317436658525  0.4999967700200401  0.5035307473561872  1.0000
  C   C9        1.0  0.5000417580765485  0.7190049285934351  0.5000186412491416  1.0000
  C   C10       1.0  0.5349688493793747  0.49999942496568656  0.6884506548767888  1.0000
  C   C11       1.0  0.4649850945598288  0.5000126657961486  0.3115432367442139  1.0000
  C   C12       1.0  0.45481444505007573  0.5000278727947459  0.2079020929724038  1.0000
  C   C13       1.0  0.5451574851557337  0.4999934675671298  0.7920890312520115  1.0000
  C   C14       1.0  0.44583853862526  0.4999932252656905  0.02015124344603692  1.0000
  C   C15       1.0  0.5542078428815387  0.5000070943437578  0.9798412251498689  1.0000
  C   C16       1.0  0.5478880284615144  0.49999396526865075  0.879490973107167  1.0000
  N   N1        1.0  0.17069296440359952  0.4999977173811984  0.4903090990938637  1.0000
  N   N2        1.0  0.8293042211338103  0.49999251172746983  0.5096915475436958  1.0000
  O   O1        1.0  0.6091599154084905  0.32865772014235256  0.5089662350378106  1.0000
  O   O2        1.0  0.3276915323881084  0.49996771837670206  0.958369146851787  1.0000
  O   O3        1.0  0.3908894693623708  0.6713249439252137  0.4910686236425832  1.0000
  O   O4        1.0  0.39085336818131106  0.32866070765648203  0.4910148225202633  1.0000
  O   O5        1.0  0.6091805302536528  0.6713362469733255  0.5089561647995495  1.0000
  O   O6        1.0  0.6393863611231508  0.5000213608523794  0.6564919872818605  1.0000
  O   O7        1.0  0.36055654508556506  0.5000176368731885  0.3434905736645248  1.0000
  O   O8        1.0  0.42085366381225237  0.49998227593763284  0.6381238203050686  1.0000
  O   O9        1.0  0.5790800970218086  0.49999029353538305  0.3618668687349569  1.0000
  O   O10       1.0  0.6723050643076646  0.5000300777785823  0.041619319901108974  1.0000
