data_image0
_chemical_formula_structural       Sm4H52C52O36
_chemical_formula_sum              "Sm4 H52 C52 O36"
_cell_length_a       11.96772059101978
_cell_length_b       12.445261022
_cell_length_c       12.552
_cell_angle_alpha    90.0
_cell_angle_beta     98.83509686582734
_cell_angle_gamma    90.0

_space_group_name_H-M_alt    "P 1"
_space_group_IT_number       1

loop_
  _space_group_symop_operation_xyz
  'x, y, z'

loop_
  _atom_site_type_symbol
  _atom_site_label
  _atom_site_symmetry_multiplicity
  _atom_site_fract_x
  _atom_site_fract_y
  _atom_site_fract_z
  _atom_site_occupancy
  Sm  Sm1       1.0  0.374077093824468  0.4457520007168583  0.1322868525282104  1.0000
  Sm  Sm2       1.0  0.6259248166727289  0.9457527631757545  0.8677139052596843  1.0000
  Sm  Sm3       1.0  0.6396153180121402  0.2285014348010037  0.1843140489316113  1.0000
  Sm  Sm4       1.0  0.3603849012557419  0.7285013937411977  0.8156864611898201  1.0000
  H   H1        1.0  0.3184601720459526  0.4052884058505201  0.47269463884670426  1.0000
  H   H2        1.0  0.6815408928365941  0.9052883647907137  0.5273059951079588  1.0000
  H   H3        1.0  0.481295958977583  0.3359150115541851  0.79745119732722  1.0000
  H   H4        1.0  0.5187034146756347  0.8359165775317907  0.2025515790183405  1.0000
  H   H5        1.0  0.6598796277155117  0.2818607013383669  0.5307814292041471  1.0000
  H   H6        1.0  0.34011974593771305  0.7818614637972701  0.46921895708404543  1.0000
  H   H7        1.0  0.3021288161245153  0.29755261809727074  0.7975393446108896  1.0000
  H   H8        1.0  0.6978714031433668  0.7975533805561668  0.20246196219633109  1.0000
  H   H9        1.0  0.10245890023406193  0.3399920654552916  0.7381519592925939  1.0000
  H   H10       1.0  0.8975413190338203  0.839991220876783  0.2618501442004089  1.0000
  H   H11       1.0  0.125958531625173  0.4788280446240378  0.772705458212826  1.0000
  H   H12       1.0  0.8740416876427022  0.9788272000455296  0.22729664528017682  1.0000
  H   H13       1.0  0.141646374790632  0.3789723647951321  0.8757931246631756  1.0000
  H   H14       1.0  0.8583555357065721  0.8789715202166235  0.12421002318208708  1.0000
  H   H15       1.0  0.6525650609097157  0.3777405706228052  0.8612438918738334  1.0000
  H   H16       1.0  0.3474351583581665  0.8777413330817012  0.1387558215618085  1.0000
  H   H17       1.0  0.8551844807329588  0.3703144507658821  0.8509891157326734  1.0000
  H   H18       1.0  0.1448148929202659  0.8703152132247853  0.1490104738697298  1.0000
  H   H19       1.0  0.8588772799515638  0.2289787249108315  0.8722676265026337  1.0000
  H   H20       1.0  0.1411220937016608  0.7289794873697275  0.1277319630997766  1.0000
  H   H21       1.0  0.8305272028728083  0.3175168438022027  0.9770476378728361  1.0000
  H   H22       1.0  0.1694730163950737  0.8175176062610987  0.0229520755628059  1.0000
  H   H23       1.0  0.0065636609880499  0.5338112224609972  0.9166264261913568  1.0000
  H   H24       1.0  0.993438249509154  0.0338096564833918  0.08337273822496628  1.0000
  H   H25       1.0  0.7027370698948731  0.6065417179001785  0.04732363820174609  1.0000
  H   H26       1.0  0.2972631493730091  0.1065417589599846  0.952673685176535  1.0000
  H   H27       1.0  0.018633119024947603  0.5647129447567495  0.2612452363664772  1.0000
  H   H28       1.0  0.9813679458575921  0.0647137893352578  0.7387538042166142  1.0000
  H   H29       1.0  0.6341712508334396  0.6239025430060607  0.1954192962334247  1.0000
  H   H30       1.0  0.3658289684344425  0.12390338758456923  0.8045796205164278  1.0000
  H   H31       1.0  0.6796298037058293  0.6630909536900803  0.39434926775530954  1.0000
  H   H32       1.0  0.32036956994739546  0.16309019123118423  0.6056503218471008  1.0000
  H   H33       1.0  0.7154500406877489  0.5248198481698338  0.4181902864873805  1.0000
  H   H34       1.0  0.28454933296546875  0.0248222997857539  0.5818069130576689  1.0000
  H   H35       1.0  0.5736802061568156  0.5630030569558927  0.3641174505596112  1.0000
  H   H36       1.0  0.4263191674964091  0.0630055085718055  0.6358805456712204  1.0000
  H   H37       1.0  0.6283568044338281  0.5487711336810862  0.8806035104425405  1.0000
  H   H38       1.0  0.37164426044871135  0.0487719782595946  0.11939632682633318  1.0000
  H   H39       1.0  0.672274647396364  0.5036559690407074  0.6935844671181144  1.0000
  H   H40       1.0  0.3277238806421964  0.0036568136192230006  0.3064142019652749  1.0000
  H   H41       1.0  0.7009528229630534  0.6424220420822593  0.6744117764651064  1.0000
  H   H42       1.0  0.2990465506901643  0.1424220831420655  0.32558621976572516  1.0000
  H   H43       1.0  0.5619726711942405  0.5998331402454085  0.6905235976687649  1.0000
  H   H44       1.0  0.4380275480736415  0.0998331813052076  0.3094769124526664  1.0000
  H   H45       1.0  0.8240633244145954  0.1167287690818171  0.0763862701470828  1.0000
  H   H46       1.0  0.17593689485328673  0.6167287280220108  0.9236134432885592  1.0000
  H   H47       1.0  0.8960352793250195  0.20204156389770137  0.15541624475759616  1.0000
  H   H48       1.0  0.10396493994286261  0.7020407193191929  0.8445842653638279  1.0000
  H   H49       1.0  0.7373269375470387  0.0622823417387366  0.3521579977433831  1.0000
  H   H50       1.0  0.2626724361061861  0.5622823006789305  0.6478423885448095  1.0000
  H   H51       1.0  0.6968287602680405  0.16523156857577703  0.4083704612877668  1.0000
  H   H52       1.0  0.30317061338518414  0.6652299204785594  0.5916299250004257  1.0000
  C   C1        1.0  0.4882900378273831  0.3408662938046022  0.4906073531685707  1.0000
  C   C2        1.0  0.5117093358258344  0.8408678597822006  0.509393033119629  1.0000
  C   C3        1.0  0.3913792153751601  0.377696377094118  0.5286741734729787  1.0000
  C   C4        1.0  0.608621003892722  0.8776963360343119  0.4713271333342347  1.0000
  C   C5        1.0  0.3893006945417881  0.37462934620320004  0.6393019137557587  1.0000
  C   C6        1.0  0.6106978334967722  0.8746301086620962  0.3606999420707808  1.0000
  C   C7        1.0  0.4833220517020608  0.3390262359737904  0.7114166398046038  1.0000
  C   C8        1.0  0.5166781675658215  0.8390278019513957  0.2885854636883991  1.0000
  C   C9        1.0  0.5812915837081434  0.3076424024559898  0.6711283450056555  1.0000
  C   C10       1.0  0.41870778994507424  0.8076423613961836  0.3288720412825441  1.0000
  C   C11       1.0  0.5829286936891904  0.3058529663034975  0.5605267859546714  1.0000
  C   C12       1.0  0.41707067996403424  0.8058529252436915  0.4394728036477317  1.0000
  C   C13       1.0  0.4920268090082872  0.33914194266708364  0.37292719810415065  1.0000
  C   C14       1.0  0.5079725646449305  0.8391427051259798  0.6270731881840489  1.0000
  C   C15       1.0  0.2775772400968179  0.38193574177330464  0.7818925046050538  1.0000
  C   C16       1.0  0.7224221335563997  0.8819357007134985  0.2181086783689281  1.0000
  C   C17       1.0  0.35645955800573864  0.4513975231270138  0.8624148459300827  1.0000
  C   C18       1.0  0.6435423524914583  0.9513958750298033  0.13758431848623326  1.0000
  C   C19       1.0  0.1536617134893135  0.3961973952401365  0.7926203893711302  1.0000
  C   C20       1.0  0.846339351393226  0.8961973541803305  0.20738183795511134  1.0000
  C   C21       1.0  0.6912079596254799  0.2996964059979703  0.8466327465004895  1.0000
  C   C22       1.0  0.3087914140277377  0.7996971684568663  0.1533676397877102  1.0000
  C   C23       1.0  0.6290561277573375  0.21516784543661063  0.9044503437262108  1.0000
  C   C24       1.0  0.3709432458958802  0.715169411414216  0.09555004256198879  1.0000
  C   C25       1.0  0.81711829121506  0.3037541754501873  0.8898115477486357  1.0000
  C   C26       1.0  0.1828810824381648  0.8037557414277929  0.1101880418537746  1.0000
  C   C27       1.0  0.025869889282056104  0.5498751683795717  0.0906008902808608  1.0000
  C   C28       1.0  0.9741303299858259  0.04987520943937802  0.9093988231547809  1.0000
  C   C29       1.0  0.9655887763088986  0.5516292497091159  0.9861722029102395  1.0000
  C   C30       1.0  0.034409751729661806  0.05162929076892201  0.0138256694873604  1.0000
  C   C31       1.0  0.8495662169343774  0.572202542591235  0.9706356156573364  1.0000
  C   C32       1.0  0.1504331567188473  0.0722009766136367  0.029363973945073993  1.0000
  C   C33       1.0  0.7932254490072168  0.5907276662983563  0.05892656580117259  1.0000
  C   C34       1.0  0.20677477026066532  0.0907285108768718  0.9410731476344694  1.0000
  C   C35       1.0  0.8557493513255922  0.5885911100659912  0.1632882161924982  1.0000
  C   C36       1.0  0.14425086794229003  0.0885927581632018  0.8367099038715721  1.0000
  C   C37       1.0  0.9717448510310049  0.5686236702862432  0.1799242505970966  1.0000
  C   C38       1.0  0.028254522622212605  0.0686221043086448  0.8200737456337421  1.0000
  C   C39       1.0  0.1489372643859568  0.5251541119504566  0.1065787880345255  1.0000
  C   C40       1.0  0.8510612636526035  0.025154956528965006  0.893420677734653  1.0000
  C   C41       1.0  0.6919419531500425  0.5723503900326605  0.2502671617268462  1.0000
  C   C42       1.0  0.30805742050318236  0.0723496275737645  0.7497316311897747  1.0000
  C   C43       1.0  0.6757484324181249  0.4565022774497792  0.20998068200854902  1.0000
  C   C44       1.0  0.3242526324644146  0.9565022363899731  0.7900183585745353  1.0000
  C   C45       1.0  0.6634506584231304  0.5809335768224885  0.36420112647157765  1.0000
  C   C46       1.0  0.3365487152300943  0.08093361788229461  0.6357976664450433  1.0000
  C   C47       1.0  0.6829175535024703  0.5998202839461513  0.838135384012496  1.0000
  C   C48       1.0  0.3170826657654118  0.0998195214872553  0.1618651261089354  1.0000
  C   C49       1.0  0.6632510933634563  0.7166719913895891  0.8668901937341218  1.0000
  C   C50       1.0  0.3367491259044257  0.21667203244939512  0.1331111130730918  1.0000
  C   C51       1.0  0.6524500573160027  0.5856767477287194  0.7163059224469919  1.0000
  C   C52       1.0  0.3475493163372221  0.0856775923072348  0.2836936671554184  1.0000
  O   O1        1.0  0.5683477601131912  0.2808394290663331  0.3411082280420175  1.0000
  O   O2        1.0  0.4316533047693484  0.7808385844878245  0.658890812541074  1.0000
  O   O3        1.0  0.4200024259889688  0.3953689674569176  0.3122937842015361  1.0000
  O   O4        1.0  0.5799969476642488  0.895369729915821  0.687705008715085  1.0000
  O   O5        1.0  0.2898817790090931  0.4077961877238607  0.6722659443706719  1.0000
  O   O6        1.0  0.7101175946441245  0.9077961466640616  0.3277344419175279  1.0000
  O   O7        1.0  0.3861846045210484  0.5432766727871723  0.8338208910305838  1.0000
  O   O8        1.0  0.6138156147468337  0.04327832088438301  0.16618041577662981  1.0000
  O   O9        1.0  0.3886292765020443  0.4095398233102615  0.9537821433868956  1.0000
  O   O10       1.0  0.6113717883805023  0.9095397822504552  0.0462192872535496  1.0000
  O   O11       1.0  0.6807384045246039  0.280774344051359  0.7334599878855315  1.0000
  O   O12       1.0  0.31926096912862084  0.7807775170663691  0.2665403984026611  1.0000
  O   O13       1.0  0.6216984346039  0.23788090862591105  0.0012194290781622136  1.0000
  O   O14       1.0  0.3783009390493177  0.7378800640474026  0.998782550581609  1.0000
  O   O15       1.0  0.5890534806688876  0.1313503989277791  0.8554390064326611  1.0000
  O   O16       1.0  0.4109450473696725  0.6313503578679729  0.1445636460796607  1.0000
  O   O17       1.0  0.20095017648513652  0.4993635721270949  0.19872161835593255  1.0000
  O   O18       1.0  0.7990491971680883  0.9993627275485866  0.8012779712464775  1.0000
  O   O19       1.0  0.2024782021750866  0.5294376701583303  0.024202714518267502  1.0000
  O   O20       1.0  0.7975237083221103  0.029438514736845903  0.975798043269627  1.0000
  O   O21       1.0  0.7987506951932346  0.5694416523263187  0.8651898030480965  1.0000
  O   O22       1.0  0.20124867845998304  0.069439282830011  0.1348113799258854  1.0000
  O   O23       1.0  0.7437950440785457  0.7826770352812319  0.8828343249794771  1.0000
  O   O24       1.0  0.2562060208039938  0.282677076341038  0.11716471560361438  1.0000
  O   O25       1.0  0.5601960347943589  0.7453102014978371  0.8683458013553816  1.0000
  O   O26       1.0  0.4398050300881878  0.24531184959504773  0.1316556292850706  1.0000
  O   O27       1.0  0.8073235366125644  0.6055903517553389  0.2545698260273141  1.0000
  O   O28       1.0  0.1926758370406603  0.10559119633384742  0.7454281702035175  1.0000
  O   O29       1.0  0.7541453675124146  0.3881228357895665  0.2317233707184343  1.0000
  O   O30       1.0  0.24585485175546756  0.8881227947297605  0.7682755460314185  1.0000
  O   O31       1.0  0.578749666041297  0.4301926645440162  0.1575127944661006  1.0000
  O   O32       1.0  0.4212513988412425  0.9301918199655079  0.8424878394885623  1.0000
  O   O33       1.0  0.8235128292711806  0.16575948036391716  0.14035281851061399  1.0000
  O   O34       1.0  0.176486544382044  0.6657578322666993  0.859645974406007  1.0000
  O   O35       1.0  0.7421672358587585  0.14133170826153932  0.35447134434771493  1.0000
  O   O36       1.0  0.25783298340912353  0.6413324707204353  0.645530759145295  1.0000
