data_image0
_chemical_formula_structural       Cd4H20C24N24O12
_chemical_formula_sum              "Cd4 H20 C24 N24 O12"
_cell_length_a       5.925954533994264
_cell_length_b       11.433004045883438
_cell_length_c       13.152564034005826
_cell_angle_alpha    89.99988957021546
_cell_angle_beta     90.00005411500386
_cell_angle_gamma    93.67369437976039

_space_group_name_H-M_alt    "P 1"
_space_group_IT_number       1

loop_
  _space_group_symop_operation_xyz
  'x, y, z'

loop_
  _atom_site_type_symbol
  _atom_site_label
  _atom_site_symmetry_multiplicity
  _atom_site_fract_x
  _atom_site_fract_y
  _atom_site_fract_z
  _atom_site_occupancy
  Cd  Cd1       1.0  0.42773618933225077  0.15725906030217368  0.549635837059725  1.0000
  Cd  Cd2       1.0  0.0722596871542862  0.3427411099485481  0.049637205603318094  1.0000
  Cd  Cd3       1.0  0.5722431308823985  0.8427371874748742  0.450359608765929  1.0000
  Cd  Cd4       1.0  0.9277576272118324  0.6572610401884659  0.9503620417730474  1.0000
  H   H1        1.0  0.431151074947934  0.4132891797848258  0.6018216411886854  1.0000
  H   H2        1.0  0.06884272255756231  0.08670825865585388  0.1018204048467126  1.0000
  H   H3        1.0  0.5688460198821801  0.5867016933825155  0.39818292834521424  1.0000
  H   H4        1.0  0.931161489342358  0.9132966051927195  0.8981788425219365  1.0000
  H   H5        1.0  0.2800146257890717  0.3837701055997655  0.5011735483904545  1.0000
  H   H6        1.0  0.21998943004125956  0.11622836414172613  0.0011723858668873  1.0000
  H   H7        1.0  0.7199810403377783  0.6162225309292423  0.4988302608333228  1.0000
  H   H8        1.0  0.7800235982150812  0.8837790760802874  0.9988245805790967  1.0000
  H   H9        1.0  0.9742542822383911  0.31991477957492975  0.6376248498215986  1.0000
  H   H10       1.0  0.5257405053740314  0.1800939748582451  0.1376302605899014  1.0000
  H   H11       1.0  0.025762260048104207  0.6800821121776649  0.36237059601882754  1.0000
  H   H12       1.0  0.47425566224949023  0.8199135710079019  0.8623689867731342  1.0000
  H   H13       1.0  0.16537885928344315  0.37479671694301697  0.8035054336553956  1.0000
  H   H14       1.0  0.3346172411031391  0.12520465549367535  0.3035111928993075  1.0000
  H   H15       1.0  0.8346279526633397  0.625202867390989  0.1964907724867402  1.0000
  H   H16       1.0  0.6653720668111306  0.8747906524973175  0.6964842529312705  1.0000
  H   H17       1.0  0.669461201467243  0.17264597116501784  0.9594237021059513  1.0000
  H   H18       1.0  0.8305484741660863  0.3273488337245141  0.4594215081793038  1.0000
  H   H19       1.0  0.33054676859890003  0.8273615007443806  0.04057934680214  1.0000
  H   H20       1.0  0.16943551819797883  0.6726447531568596  0.5405807804227933  1.0000
  C   C1        1.0  0.40809016781771856  0.11275149106203489  0.7931343965332474  1.0000
  C   C2        1.0  0.09191242082895458  0.38724810881459587  0.2931387461471644  1.0000
  C   C3        1.0  0.5919191022720085  0.8872533410925528  0.2068648508375119  1.0000
  C   C4        1.0  0.9080805165712037  0.6127489308333622  0.7068658233797294  1.0000
  C   C5        1.0  0.6205244745132745  0.18417924121547463  0.7963026262806139  1.0000
  C   C6        1.0  0.8794789930862025  0.3158194653136874  0.2962974511936309  1.0000
  C   C7        1.0  0.3794841521763531  0.8158212089453658  0.20369966232573944  1.0000
  C   C8        1.0  0.12051394431431113  0.6841775743400403  0.7037017961770858  1.0000
  C   C9        1.0  0.8994936689677006  0.2903345061538829  0.7094503833369431  1.0000
  C   C10       1.0  0.6004876338963003  0.20966277328853514  0.2094459209263917  1.0000
  C   C11       1.0  0.10049836767286284  0.7096563987115658  0.2905503846547148  1.0000
  C   C12       1.0  0.39949518712486315  0.7903343297572859  0.7905495248999727  1.0000
  C   C13       1.0  0.00966688356260901  0.3185172613374405  0.8009804348595537  1.0000
  C   C14       1.0  0.49033660480962743  0.181488456305722  0.3009877464005726  1.0000
  C   C15       1.0  0.9903510742039077  0.6814892707982664  0.1990112094330598  1.0000
  C   C16       1.0  0.5096550325675084  0.818511223106114  0.6990122612753636  1.0000
  C   C17       1.0  0.7349190379540147  0.20831356004535442  0.8878726307373981  1.0000
  C   C18       1.0  0.7650947913154412  0.29168663727714517  0.3878795677842817  1.0000
  C   C19       1.0  0.26510617878523135  0.7916964354199505  0.1121228150953684  1.0000
  C   C20       1.0  0.23489776004478816  0.7083077731765428  0.6121250017447154  1.0000
  C   C21       1.0  0.9276630955750848  0.0523998598132707  0.5132029325062675  1.0000
  C   C22       1.0  0.5723404093357304  0.4475994607044028  0.013209443409842  1.0000
  C   C23       1.0  0.07231259515327791  0.9475946563002182  0.4867894720872811  1.0000
  C   C24       1.0  0.4276827352997118  0.5524079161213962  0.9867951261206329  1.0000
  N   N1        1.0  0.3043753767437423  0.0809545372381706  0.705368984408132  1.0000
  N   N2        1.0  0.1956273521505025  0.4190461293907859  0.2053695633413568  1.0000
  N   N3        1.0  0.6956292211960645  0.919052955803849  0.2946310232664473  1.0000
  N   N4        1.0  0.8043706434396611  0.5809508785664831  0.7946319649555491  1.0000
  N   N5        1.0  0.11546303602186468  0.017020697779074098  0.7307708526179867  1.0000
  N   N6        1.0  0.38453774610133007  0.48297817152707967  0.23076995682605878  1.0000
  N   N7        1.0  0.8845383184712861  0.982987692788711  0.2692306756705349  1.0000
  N   N8        1.0  0.6154549339388282  0.5170171153238668  0.7692353730102682  1.0000
  N   N9        1.0  0.1067981597951047  0.010751992803371  0.8310737304736194  1.0000
  N   N10       1.0  0.3932110394246067  0.48924660613661086  0.3310735913757624  1.0000
  N   N11       1.0  0.8932116250143808  0.989256344941104  0.1689277978184194  1.0000
  N   N12       1.0  0.6067816406155444  0.5107486807143358  0.6689317384605572  1.0000
  N   N13       1.0  0.2873490919725867  0.0696679095599251  0.8728777704836475  1.0000
  N   N14       1.0  0.21266178780054193  0.43033058814622654  0.3728798646983691  1.0000
  N   N15       1.0  0.7126688657933258  0.9303386225658912  0.1271229975052819  1.0000
  N   N16       1.0  0.7873327069827594  0.569665564536507  0.6271269857540106  1.0000
  N   N17       1.0  0.7033825972260035  0.22568088097857242  0.7070515862227822  1.0000
  N   N18       1.0  0.7966324139951909  0.27432759610067586  0.2070585790199715  1.0000
  N   N19       1.0  0.2966435334966917  0.7743238455343543  0.2929430993068465  1.0000
  N   N20       1.0  0.20336479629135337  0.7256755572045958  0.7929459905034407  1.0000
  N   N21       1.0  0.9257455191967666  0.2773187755287196  0.8897650567983675  1.0000
  N   N22       1.0  0.574244061538245  0.22267718361413102  0.389762831375009  1.0000
  N   N23       1.0  0.07424961898662732  0.7226817591477612  0.11023875241841098  1.0000
  N   N24       1.0  0.42572774234346883  0.7773138480330244  0.6102326144520305  1.0000
  O   O1        1.0  0.0234186201051969  0.15351961032197178  0.5170572351923681  1.0000
  O   O2        1.0  0.4765643001125568  0.34647281695801263  0.0170574096276894  1.0000
  O   O3        1.0  0.9765696451457515  0.8464800902249578  0.4829374503259842  1.0000
  O   O4        1.0  0.5234432971371421  0.6535206220164582  0.9829463996003085  1.0000
  O   O5        1.0  0.7176463332075469  0.026263670879849595  0.5283983846674403  1.0000
  O   O6        1.0  0.7823451098976408  0.47373393783663426  0.0284057839759697  1.0000
  O   O7        1.0  0.28233531647056515  0.9737369483279321  0.4715924993072704  1.0000
  O   O8        1.0  0.2176583299222088  0.5262656676201019  0.9715965046289696  1.0000
  O   O9        1.0  0.3292230885917391  0.3517551471892374  0.5674785384546084  1.0000
  O   O10       1.0  0.1707796584763273  0.1482458185047832  0.0674780408036639  1.0000
  O   O11       1.0  0.6707724488551322  0.6482366129416803  0.43252527076986524  1.0000
  O   O12       1.0  0.8292301263332575  0.8517625192413403  0.9325219668723292  1.0000
