data_image0
_chemical_formula_structural       Co2H14C14N2O12
_chemical_formula_sum              "Co2 H14 C14 N2 O12"
_cell_length_a       7.078368817662634
_cell_length_b       7.247632335259906
_cell_length_c       9.767910346372204
_cell_angle_alpha    89.04641093698883
_cell_angle_beta     71.32624670887765
_cell_angle_gamma    66.31307626414434

_space_group_name_H-M_alt    "P 1"
_space_group_IT_number       1

loop_
  _space_group_symop_operation_xyz
  'x, y, z'

loop_
  _atom_site_type_symbol
  _atom_site_label
  _atom_site_symmetry_multiplicity
  _atom_site_fract_x
  _atom_site_fract_y
  _atom_site_fract_z
  _atom_site_occupancy
  Co  Co1       1.0  4.629012195801756e-06  0.49999816372206857  0.49999783124839337  1.0000
  Co  Co2       1.0  0.49999870601990903  0.5000005095741218  8.256317514033647e-07  1.0000
  H   H1        1.0  0.09824123015541625  0.6651304982819897  0.022915700184427117  1.0000
  H   H2        1.0  0.9017588252647927  0.3348712086998376  0.9770843348657651  1.0000
  H   H3        1.0  0.21808305162443267  0.4718445184350985  0.9049734353015637  1.0000
  H   H4        1.0  0.7819198513763866  0.528154156478422  0.0950270193565075  1.0000
  H   H5        1.0  0.30711243338933514  0.2792634746172312  0.0936295083290588  1.0000
  H   H6        1.0  0.6928898015078317  0.7207366707058044  0.906368001096432  1.0000
  H   H7        1.0  0.3642840068101165  0.370505264963171  0.21635358900357465  1.0000
  H   H8        1.0  0.6357137348498227  0.6294949423085897  0.7836470180566694  1.0000
  H   H9        1.0  0.29163714195274093  0.9149208440578251  0.7614569447698686  1.0000
  H   H10       1.0  0.7083620953563924  0.08507935342585432  0.23854331256274716  1.0000
  H   H11       1.0  0.3512541900831962  0.6368916734225253  0.5795343633262889  1.0000
  H   H12       1.0  0.6487345839712263  0.3631085599932646  0.42046629364786275  1.0000
  H   H13       1.0  0.1930307949777301  0.08677065047160681  0.2915155040180509  1.0000
  H   H14       1.0  0.8069712899120135  0.9132265149437658  0.7084851729224299  1.0000
  C   C1        1.0  0.2015982709134576  0.14448412363387322  0.6232150407696794  1.0000
  C   C2        1.0  0.798398930636495  0.8555206480007487  0.3767866231245094  1.0000
  C   C3        1.0  0.2711388347010199  0.9457538773082775  0.6563208373911567  1.0000
  C   C4        1.0  0.7288612207191889  0.05424782967354962  0.343679197659043  1.0000
  C   C5        1.0  0.30726900345552355  0.7921045160416115  0.5545958270888179  1.0000
  C   C6        1.0  0.6927249256501256  0.20789421760041202  0.4454067259350298  1.0000
  C   C7        1.0  0.28243313234917616  0.8411126680367718  0.4202890771927558  1.0000
  C   C8        1.0  0.7175583361335998  0.15888156969529635  0.5797161911301957  1.0000
  C   C9        1.0  0.21745772161171573  0.04400725397614019  0.39401072923890723  1.0000
  C   C10       1.0  0.7825341811692327  0.955996004940097  0.605990157668721  1.0000
  C   C11       1.0  0.14846846017417903  0.32136086189126445  0.728314301407984  1.0000
  C   C12       1.0  0.8515389360638681  0.6786377510735233  0.271683055615334  1.0000
  C   C13       1.0  0.31068058469205073  0.6838406133404079  0.3096636912782245  1.0000
  C   C14       1.0  0.6893163482912785  0.3161580355564837  0.6903340653866294  1.0000
  N   N1        1.0  0.17136880720402559  0.1937591083474786  0.49462963271857063  1.0000
  N   N2        1.0  0.8286319288991282  0.8062410630558788  0.5053692506604791  1.0000
  O   O1        1.0  0.1745269202880664  0.2876959492805256  0.8509475182259935  1.0000
  O   O2        1.0  0.8254769413967794  0.7123072639155197  0.14905261931247088  1.0000
  O   O3        1.0  0.07817345125558012  0.4975973437491846  0.6881968864431302  1.0000
  O   O4        1.0  0.9218310879673838  0.5024043501606315  0.31180312365011537  1.0000
  O   O5        1.0  0.3002121007871993  0.5183886834391558  0.35475955560973926  1.0000
  O   O6        1.0  0.6997891722811148  0.4816069398935881  0.6452392951612965  1.0000
  O   O7        1.0  0.3423391918807114  0.7213714799792399  0.1790121769851609  1.0000
  O   O8        1.0  0.6576673799566137  0.2786256560718813  0.8209874507724352  1.0000
  O   O9        1.0  0.23965434950967793  0.5889482793889372  0.9434682975292789  1.0000
  O   O10       1.0  0.7603450315172325  0.4110549305868858  0.05653084074020137  1.0000
  O   O11       1.0  0.42695105963576924  0.2963119580056102  0.11251385758031773  1.0000
  O   O12       1.0  0.5730519839380008  0.7036897456922945  0.8874865022405559  1.0000
