data_image0
_chemical_formula_structural       Zn4H76C76N20O20
_chemical_formula_sum              "Zn4 H76 C76 N20 O20"
_cell_length_a       10.295454210098567
_cell_length_b       14.755867701401018
_cell_length_c       19.05824537723418
_cell_angle_alpha    90.00016748100501
_cell_angle_beta     90.00051924556661
_cell_angle_gamma    96.27699987642545

_space_group_name_H-M_alt    "P 1"
_space_group_IT_number       1

loop_
  _space_group_symop_operation_xyz
  'x, y, z'

loop_
  _atom_site_type_symbol
  _atom_site_label
  _atom_site_symmetry_multiplicity
  _atom_site_fract_x
  _atom_site_fract_y
  _atom_site_fract_z
  _atom_site_occupancy
  Zn  Zn1       1.0  0.4895233843349018  0.14265690151332677  0.24995615970966162  1.0000
  Zn  Zn2       1.0  0.5104363779606373  0.35732987957373297  0.7499610332363035  1.0000
  Zn  Zn3       1.0  0.5104240167692282  0.8573295290643869  0.7500392516340639  1.0000
  Zn  Zn4       1.0  0.4895408086732188  0.6426605995926522  0.2500443476228966  1.0000
  H   H1        1.0  0.7695648654482241  0.0687690685160192  0.09078261064109232  1.0000
  H   H2        1.0  0.23039075178727586  0.43126326710148527  0.5907957279558147  1.0000
  H   H3        1.0  0.23037386365142248  0.9312664742626069  0.9092101772002721  1.0000
  H   H4        1.0  0.769587347936067  0.5687633535664391  0.4092143753116915  1.0000
  H   H5        1.0  0.9967706527008318  0.15961903096972924  0.271855025531316  1.0000
  H   H6        1.0  0.0032256264803293857  0.340356899569926  0.7718673543535177  1.0000
  H   H7        1.0  0.0032272275616663177  0.8403550516638135  0.7281309411907912  1.0000
  H   H8        1.0  0.9967828355029481  0.6596226233398211  0.22814222422790922  1.0000
  H   H9        1.0  0.1899920409514095  0.07225385116330328  0.0882442403013073  1.0000
  H   H10       1.0  0.8099662697754579  0.42780779094077553  0.5882963837868402  1.0000
  H   H11       1.0  0.8099501874261177  0.9278157833998576  0.911692403908461  1.0000
  H   H12       1.0  0.1900129270520594  0.5722317850701585  0.4117420536907517  1.0000
  H   H13       1.0  0.6362161113167771  0.22758527685919466  0.3806150211518826  1.0000
  H   H14       1.0  0.3637603951032915  0.2723891990459819  0.8806205619185903  1.0000
  H   H15       1.0  0.36375328118810296  0.7723868011798346  0.61938091493667  1.0000
  H   H16       1.0  0.6362256231891621  0.7275896743807733  0.1193884919000539  1.0000
  H   H17       1.0  0.3356270095762923  0.9984852061561044  0.6726058321749377  1.0000
  H   H18       1.0  0.6643762734297312  0.5015106038009308  0.17261723613034974  1.0000
  H   H19       1.0  0.6643698246935159  0.0015127458997384003  0.3273864310587342  1.0000
  H   H20       1.0  0.3356306986968534  0.49848392394331853  0.8273939165861179  1.0000
  H   H21       1.0  0.6423113739233344  0.45349104582989946  0.45807782485799464  1.0000
  H   H22       1.0  0.35771743823026714  0.0464926203461999  0.9580791554462921  1.0000
  H   H23       1.0  0.3577189959141123  0.5464918550644455  0.5419196855133634  1.0000
  H   H24       1.0  0.6423103449330866  0.9534923301233608  0.0419241267010904  1.0000
  H   H25       1.0  0.6617072573291054  0.33896876258430086  0.4779127279453519  1.0000
  H   H26       1.0  0.33830474317156234  0.16101093887901644  0.9779173693839524  1.0000
  H   H27       1.0  0.33830411776101943  0.6610107560731461  0.5220816341321992  1.0000
  H   H28       1.0  0.6617067408636146  0.838969261591899  0.0220890609619602  1.0000
  H   H29       1.0  0.39293653479021623  0.3513017031687298  0.2403204339805214  1.0000
  H   H30       1.0  0.6070686233853166  0.14870883030418008  0.7403211126447644  1.0000
  H   H31       1.0  0.6070613964357462  0.6487092041869074  0.7596833728304375  1.0000
  H   H32       1.0  0.3929380475404615  0.8513020644052817  0.259680070651136  1.0000
  H   H33       1.0  0.3707066337166722  0.2557912560268818  0.46484881192072447  1.0000
  H   H34       1.0  0.6293042910884736  0.24420133625364576  0.9648471901694009  1.0000
  H   H35       1.0  0.6293048672261535  0.7442012193279908  0.5351544701953657  1.0000
  H   H36       1.0  0.370709043143954  0.7557904545006056  0.0351524189994734  1.0000
  H   H37       1.0  0.30627304576275083  0.29187265565362  0.5444840430429849  1.0000
  H   H38       1.0  0.6937483907260997  0.20812661212793418  0.0444824122072802  1.0000
  H   H39       1.0  0.6937474210480515  0.708127308072669  0.45551923910340264  1.0000
  H   H40       1.0  0.3062725029393079  0.7918699412724949  0.9555171969853973  1.0000
  H   H41       1.0  0.7272299099815384  0.9506276268967327  0.6418473443220378  1.0000
  H   H42       1.0  0.2727690296760485  0.5493502997513533  0.14184172767946282  1.0000
  H   H43       1.0  0.27276344159422905  0.0493485081640017  0.3581611848041462  1.0000
  H   H44       1.0  0.7272326346293028  0.45062923295530066  0.8581547332035057  1.0000
  H   H45       1.0  0.5045013808376027  0.4069074929334704  0.5595101736363546  1.0000
  H   H46       1.0  0.49552538524694967  0.09308707130657717  0.0595146625831617  1.0000
  H   H47       1.0  0.4955243681878087  0.593089053432898  0.4404847132026859  1.0000
  H   H48       1.0  0.5044971241232403  0.9069074339554247  0.9404917678057317  1.0000
  H   H49       1.0  0.4037267203432933  0.42586503669455317  0.48660764487618025  1.0000
  H   H50       1.0  0.5963003431027757  0.07412900869474019  0.9866107268956199  1.0000
  H   H51       1.0  0.5963006443360186  0.5741294615185383  0.5133882913790515  1.0000
  H   H52       1.0  0.4037248618218002  0.9258641287866071  0.0133946540837613  1.0000
  H   H53       1.0  0.5715354952366667  0.21609305242233748  0.5319845039231765  1.0000
  H   H54       1.0  0.4284834522239009  0.283904108489594  0.0319864708545907  1.0000
  H   H55       1.0  0.4284827028650966  0.7839048687560393  0.46801510526445617  1.0000
  H   H56       1.0  0.571537550321807  0.7160931267053883  0.9680178607045916  1.0000
  H   H57       1.0  0.49873367262652835  0.2485149875073276  0.610540387644548  1.0000
  H   H58       1.0  0.5012891377387659  0.25147984641490956  0.11053948886576852  1.0000
  H   H59       1.0  0.5012883009856351  0.751482246279224  0.3894623697951829  1.0000
  H   H60       1.0  0.4987320739888261  0.7485126148907496  0.8894616944449112  1.0000
  H   H61       1.0  0.4454905217983551  0.4663067467264951  0.3543757871408175  1.0000
  H   H62       1.0  0.5545637949278444  0.033701577900195887  0.8543790992091189  1.0000
  H   H63       1.0  0.5545685874234748  0.5337040721342561  0.6456206739175131  1.0000
  H   H64       1.0  0.4454830083535484  0.966305167134891  0.1456236583018935  1.0000
  H   H65       1.0  0.31174103703028067  0.1269009029372157  0.5918586414970264  1.0000
  H   H66       1.0  0.6882776685253019  0.3730945222386381  0.09186417584573552  1.0000
  H   H67       1.0  0.6882760811478618  0.8730963378617886  0.4081404429799278  1.0000
  H   H68       1.0  0.31174041234410044  0.6268965797329072  0.9081438286503455  1.0000
  H   H69       1.0  0.3803882492999762  0.09754960637501138  0.5104446705577743  1.0000
  H   H70       1.0  0.6196360360527109  0.4024467534607012  0.010449411068037803  1.0000
  H   H71       1.0  0.6196376086103612  0.9024476217872602  0.4895554633550532  1.0000
  H   H72       1.0  0.38039132872836484  0.5975477447820978  0.9895580687472503  1.0000
  H   H73       1.0  0.6666455930007159  0.08650632181434761  0.548290393751067  1.0000
  H   H74       1.0  0.3333816196892627  0.413486137880433  0.0482790699218825  1.0000
  H   H75       1.0  0.3333827429347025  0.9134881750456786  0.45172548138299373  1.0000
  H   H76       1.0  0.6666460630152357  0.5865042682270882  0.9517142427931519  1.0000
  C   C1        1.0  0.869972596918892  0.11648468418940182  0.1852013599360518  1.0000
  C   C2        1.0  0.13000806594784817  0.3835242357371128  0.6852154540541306  1.0000
  C   C3        1.0  0.13000375271913361  0.8835248904559382  0.8147861808952044  1.0000
  C   C4        1.0  0.8699912632962992  0.6164832599125913  0.3147941245364265  1.0000
  C   C5        1.0  0.8634361970423329  0.08232127485037921  0.11693426557256711  1.0000
  C   C6        1.0  0.13652494593913633  0.4177064144912634  0.6169526659948447  1.0000
  C   C7        1.0  0.1365143941383664  0.9177094771674491  0.8830480281468596  1.0000
  C   C8        1.0  0.8634590806648959  0.5823147420948587  0.383060585524639  1.0000
  C   C9        1.0  0.9914037791036634  0.1345271769133731  0.21808875446897957  1.0000
  C   C10       1.0  0.0085804687822062  0.3654703149835399  0.7181058882312357  1.0000
  C   C11       1.0  0.00857740894971929  0.8654701158031485  0.7818930145802625  1.0000
  C   C12       1.0  0.9914173367483272  0.6345276357205947  0.281906838588533  1.0000
  C   C13       1.0  0.10602153908479292  0.11986991346276452  0.182537659135761  1.0000
  C   C14       1.0  0.893956607542613  0.38014786158333885  0.6825680678196449  1.0000
  C   C15       1.0  0.8939516963529002  0.8801505766594957  0.817425220458226  1.0000
  C   C16       1.0  0.1060372218604755  0.6198616878763303  0.3174556778562305  1.0000
  C   C17       1.0  0.9780187215454035  0.0647066825862694  0.0826690415540412  1.0000
  C   C18       1.0  0.021933965323277994  0.43533857219953376  0.5826995152004883  1.0000
  C   C19       1.0  0.021919815044093106  0.9353459088967641  0.9172969862349732  1.0000
  C   C20       1.0  0.9780378811375029  0.5646914672421419  0.4173226563229235  1.0000
  C   C21       1.0  0.7472951408876725  0.13032009324663824  0.22459399944342812  1.0000
  C   C22       1.0  0.2526906280103063  0.3696801578260462  0.7245976424678915  1.0000
  C   C23       1.0  0.25268475822209513  0.8696812930270994  0.7754087578982691  1.0000
  C   C24       1.0  0.7473068593840252  0.6303218849512432  0.2754051149174757  1.0000
  C   C25       1.0  0.1002406911332443  0.0846470411719977  0.11439177280661278  1.0000
  C   C26       1.0  0.8997179462691419  0.415395641375369  0.6144327829813464  1.0000
  C   C27       1.0  0.8997079830169882  0.9154021259130047  0.8855595631995997  1.0000
  C   C28       1.0  0.10026328454366507  0.5846323386941918  0.3855967344645137  1.0000
  C   C29       1.0  0.2347199619428436  0.13709039958638414  0.21994384953570292  1.0000
  C   C30       1.0  0.7652670058763887  0.36289959667335836  0.7199756901086829  1.0000
  C   C31       1.0  0.7652605644350458  0.8628966649383613  0.7800179806239811  1.0000
  C   C32       1.0  0.23473370455231898  0.6370922124080635  0.2800512038077017  1.0000
  C   C33       1.0  0.5756709083382248  0.2758606923571135  0.3582183222845998  1.0000
  C   C34       1.0  0.4243143867177679  0.22412252019135792  0.8582209019125387  1.0000
  C   C35       1.0  0.42430874765873466  0.7241209180042673  0.6417807620833642  1.0000
  C   C36       1.0  0.5756796263299649  0.7758638430017372  0.1417844789831051  1.0000
  C   C37       1.0  0.43481045340058694  0.0047124521279045  0.6527274720451857  1.0000
  C   C38       1.0  0.5651910840331809  0.4952785391668115  0.15273268014721714  1.0000
  C   C39       1.0  0.56518648129569  0.995280044280527  0.34727108766990267  1.0000
  C   C40       1.0  0.43481329285447146  0.5047119006782593  0.8472732254855728  1.0000
  C   C41       1.0  0.5910441063430056  0.3843060217209596  0.45953211056551174  1.0000
  C   C42       1.0  0.40897879613913096  0.11567697858723847  0.9595343715640466  1.0000
  C   C43       1.0  0.4089786036904854  0.6156775721908332  0.5404653997879336  1.0000
  C   C44       1.0  0.5910418629551726  0.8843059363684701  0.04046995997820351  1.0000
  C   C45       1.0  0.4519296869237549  0.3427263556935928  0.2864454860575094  1.0000
  C   C46       1.0  0.5480749784585441  0.157276233823076  0.7864490442516188  1.0000
  C   C47       1.0  0.5480698514375247  0.6572763660478883  0.7135535983826955  1.0000
  C   C48       1.0  0.4519313575066589  0.8427264780998981  0.21355476257064512  1.0000
  C   C49       1.0  0.3983690248362636  0.2850461549592964  0.5167020593525322  1.0000
  C   C50       1.0  0.6016464133821485  0.21494888614295599  0.0166999942740915  1.0000
  C   C51       1.0  0.6016462600569027  0.7149517704416721  0.48330122277891974  1.0000
  C   C52       1.0  0.3983681096079436  0.7850442667717276  0.9832996148992166  1.0000
  C   C53       1.0  0.6378101648767397  0.9819536262765355  0.6340096086993867  1.0000
  C   C54       1.0  0.3621904784026526  0.5180297128886052  0.134006457005043  1.0000
  C   C55       1.0  0.3621852461614239  0.018029325202519403  0.3659983957322126  1.0000
  C   C56       1.0  0.6378158321316931  0.4819545866881683  0.865994201552823  1.0000
  C   C57       1.0  0.4716544668614445  0.38021600269844674  0.5078174768567152  1.0000
  C   C58       1.0  0.5283645902293089  0.1197783052818409  0.0078195625647766  1.0000
  C   C59       1.0  0.528365129189126  0.6197785067537397  0.4921800335013984  1.0000
  C   C60       1.0  0.47165198380174195  0.8802155266186346  0.9921847689797688  1.0000
  C   C61       1.0  0.47672596426436786  0.2207248983640255  0.5577710167576697  1.0000
  C   C62       1.0  0.5232891181697568  0.2792696737697327  0.057772911370300106  1.0000
  C   C63       1.0  0.5232898563266913  0.7792702984948433  0.4422291171283704  1.0000
  C   C64       1.0  0.4767264847670845  0.7207241595310736  0.9422298460500541  1.0000
  C   C65       1.0  0.475921210942289  0.3998213126566412  0.3429560575819295  1.0000
  C   C66       1.0  0.5241076478920874  0.1001808522584255  0.8429604198428394  1.0000
  C   C67       1.0  0.5241085397246791  0.6001820473246867  0.6570404033963584  1.0000
  C   C68       1.0  0.47591886309190556  0.8998204666104357  0.1570444364416517  1.0000
  C   C69       1.0  0.40400166417474986  0.1253953379777997  0.5631195981167352  1.0000
  C   C70       1.0  0.5960227964924769  0.3746026579641395  0.0631231113773154  1.0000
  C   C71       1.0  0.596022578095571  0.8746039383418064  0.4368810605017188  1.0000
  C   C72       1.0  0.4040027349527405  0.6253925248657736  0.9368827943124459  1.0000
  C   C73       1.0  0.608409495560558  0.04834541525153921  0.5878840950106295  1.0000
  C   C74       1.0  0.3916055735695707  0.451645902962163  0.08788101178443951  1.0000
  C   C75       1.0  0.3916031941908146  0.9516484222786162  0.4121249588899261  1.0000
  C   C76       1.0  0.6084121807190712  0.5483431536432589  0.9121196468066942  1.0000
  N   N1        1.0  0.5284034905022991  0.9552537549572266  0.6740691380022739  1.0000
  N   N2        1.0  0.47158772146372735  0.5447332147933112  0.17407445095684443  1.0000
  N   N3        1.0  0.47158189159177505  0.044733302637446584  0.3259283722639593  1.0000
  N   N4        1.0  0.5284084514266283  0.45525450915718585  0.8259314546528743  1.0000
  N   N5        1.0  0.5149513911743284  0.26584677130565376  0.2965482673767356  1.0000
  N   N6        1.0  0.485026998536668  0.23414226967132382  0.7965501164808586  1.0000
  N   N7        1.0  0.485018562500926  0.7341409905496192  0.7034523910962847  1.0000
  N   N8        1.0  0.5149600077345085  0.7658488772323082  0.2034547396957791  1.0000
  N   N9        1.0  0.554273244487483  0.3561621678153911  0.38804744415998027  1.0000
  N   N10       1.0  0.4457436595419679  0.1438272907845786  0.888050997300475  1.0000
  N   N11       1.0  0.4457436475224982  0.6438275719660213  0.611949016771625  1.0000
  N   N12       1.0  0.5542752835367181  0.8561631279907331  0.11195333424602441  1.0000
  N   N13       1.0  0.9594922227972874  0.029434043406119794  0.0123093840666542  1.0000
  N   N14       1.0  0.0404513545628831  0.4706163161185941  0.5123442250489489  1.0000
  N   N15       1.0  0.04043035804143362  0.9706281182959345  0.9876513966214233  1.0000
  N   N16       1.0  0.9595137028356858  0.5294198706092388  0.48768161941573146  1.0000
  N   N17       1.0  0.479558752511771  0.062032154886026106  0.6005365871298808  1.0000
  N   N18       1.0  0.5204567574041903  0.4379605920285242  0.1005367256678866  1.0000
  N   N19       1.0  0.5204562058792631  0.937963725171784  0.39946826912029826  1.0000
  N   N20       1.0  0.4795612145802864  0.5620298281471107  0.8994660317544145  1.0000
  O   O1        1.0  0.6402136664119951  0.1231910607742037  0.18783063955436324  1.0000
  O   O2        1.0  0.3597655189096399  0.3768083276855379  0.6878264259779528  1.0000
  O   O3        1.0  0.3597615950243593  0.8768116961011003  0.8121778895575815  1.0000
  O   O4        1.0  0.6402291640361284  0.6231944010737963  0.3121710843285825  1.0000
  O   O5        1.0  0.338971626578072  0.12578504638486268  0.1833956060368322  1.0000
  O   O6        1.0  0.6610195607403212  0.37421089217655634  0.683430111373653  1.0000
  O   O7        1.0  0.6610159234840224  0.8742095093133031  0.816563600612028  1.0000
  O   O8        1.0  0.33898504251902756  0.6257870487455294  0.3166015049245985  1.0000
  O   O9        1.0  0.7533119608237584  0.145622471390972  0.2892064851772389  1.0000
  O   O10       1.0  0.24669123794659947  0.354376724824732  0.7892079656585693  1.0000
  O   O11       1.0  0.24668951126285782  0.8543741101051694  0.7107962722117165  1.0000
  O   O12       1.0  0.753318329289385  0.6456218907808803  0.2107937423378772  1.0000
  O   O13       1.0  0.23667116488092427  0.15919077465859033  0.2832891649146489  1.0000
  O   O14       1.0  0.7633282207745608  0.34077907310807387  0.783313075701777  1.0000
  O   O15       1.0  0.7633231404928509  0.840773084004418  0.7166800111544447  1.0000
  O   O16       1.0  0.23668455252339982  0.6591970338988132  0.21670857115366002  1.0000
  O   O17       1.0  0.8624238473416239  0.0507511494849382  0.9766802155698429  1.0000
  O   O18       1.0  0.13752919809029143  0.4492913693870832  0.4767084187350861  1.0000
  O   O19       1.0  0.13750638491660538  0.9493041817779398  0.0232900098601831  1.0000
  O   O20       1.0  0.8624438370911564  0.5507400322042242  0.5233095551345599  1.0000
