data_image0
_chemical_formula_structural       Hg4H56C56Br8N16
_chemical_formula_sum              "Hg4 H56 C56 Br8 N16"
_cell_length_a       11.49010671
_cell_length_b       11.490111964
_cell_length_c       12.99
_cell_angle_alpha    90.0
_cell_angle_beta     90.0
_cell_angle_gamma    90.0

_space_group_name_H-M_alt    "P 1"
_space_group_IT_number       1

loop_
  _space_group_symop_operation_xyz
  'x, y, z'

loop_
  _atom_site_type_symbol
  _atom_site_label
  _atom_site_symmetry_multiplicity
  _atom_site_fract_x
  _atom_site_fract_y
  _atom_site_fract_z
  _atom_site_occupancy
  Hg  Hg1       1.0  0.2499994188478709  0.2500001748459866  0.1139615088529666  1.0000
  Hg  Hg2       1.0  0.7499999971714786  0.7499996542244318  0.6139615088529666  1.0000
  Hg  Hg3       1.0  0.7499999971714786  0.7499996542244318  0.8860384911470334  1.0000
  Hg  Hg4       1.0  0.2499994188478709  0.2499993045324516  0.38603849114703354  1.0000
  H   H1        1.0  0.4676771187271243  0.3727787869622219  0.9847798306389565  1.0000
  H   H2        1.0  0.6272204585992043  0.9676772545677892  0.4847798306389564  1.0000
  H   H3        1.0  0.87277866542982  0.5323229241946166  0.4847798306389564  1.0000
  H   H4        1.0  0.0323225892825505  0.1272206924162234  0.9847798306389565  1.0000
  H   H5        1.0  0.5323231676061582  0.6272210421082036  0.0152201693610436  1.0000
  H   H6        1.0  0.37277895742014516  0.0323234448161713  0.5152201693610436  1.0000
  H   H7        1.0  0.1272207505895295  0.4676769048758089  0.5152201693610436  1.0000
  H   H8        1.0  0.9676768267367989  0.8727791366542021  0.0152201693610436  1.0000
  H   H9        1.0  0.5085139892491028  0.5031474034468317  0.8341978444957691  1.0000
  H   H10       1.0  0.4968526528157895  0.0085151476597076  0.3341978444957689  1.0000
  H   H11       1.0  0.0031470551938852995  0.4914860723458148  0.3341978444957689  1.0000
  H   H12       1.0  0.9914860050938543  0.996852775315567  0.8341978444957691  1.0000
  H   H13       1.0  0.4914862970841796  0.4968524256235867  0.1658021555042311  1.0000
  H   H14       1.0  0.5031476335174929  0.991485551724253  0.665802155504231  1.0000
  H   H15       1.0  0.9968523608254641  0.5085146270381458  0.665802155504231  1.0000
  H   H16       1.0  0.0085142812394281  0.0031470537548515  0.1658021555042311  1.0000
  H   H17       1.0  0.1371545138591657  0.5351531838214925  0.7922832948421856  1.0000
  H   H18       1.0  0.46484598749214  0.6371548008354964  0.2922832948421856  1.0000
  H   H19       1.0  0.0351537205175347  0.8628453779269023  0.2922832948421856  1.0000
  H   H20       1.0  0.362846064464442  0.9648461246273712  0.7922840646651252  1.0000
  H   H21       1.0  0.8628466427880568  0.464846645248933  0.2077159353348748  1.0000
  H   H22       1.0  0.5351534285272095  0.3628458985484642  0.7077167051578144  1.0000
  H   H23       1.0  0.9648465658157477  0.1371544511435161  0.7077167051578144  1.0000
  H   H24       1.0  0.6371542218688404  0.0351537044430472  0.2077167051578144  1.0000
  H   H25       1.0  0.1113383915648569  0.4087183845304452  0.9486928406466504  1.0000
  H   H26       1.0  0.5912808445971365  0.6113378200324036  0.4486928406466504  1.0000
  H   H27       1.0  0.9087182794318879  0.8886614884164601  0.4486928406466504  1.0000
  H   H28       1.0  0.3886630570726908  0.0912828354750772  0.9486943802925298  1.0000
  H   H29       1.0  0.8886627650823583  0.5912831851670575  0.0513056197074704  1.0000
  H   H30       1.0  0.40871857142221296  0.3886611387244798  0.5513071593533496  1.0000
  H   H31       1.0  0.0912811365874617  0.11133834065396543  0.5513071593533496  1.0000
  H   H32       1.0  0.6113380995745317  0.9087187342224254  0.0513071593533496  1.0000
  H   H33       1.0  0.43556688604504495  0.632142665167855  0.6979030023094666  1.0000
  H   H34       1.0  0.3678564617960802  0.9355670365685214  0.19790300230946664  1.0000
  H   H35       1.0  0.1321423758996545  0.5644322718803423  0.19790300230946664  1.0000
  H   H36       1.0  0.0644328219646297  0.8678575135945509  0.6979037721324062  1.0000
  H   H37       1.0  0.5644334002882374  0.3678580342161055  0.3020962278675939  1.0000
  H   H38       1.0  0.6321429542232693  0.064432792501897  0.8020969976905334  1.0000
  H   H39       1.0  0.8678570401196878  0.4355666868765411  0.8020969976905334  1.0000
  H   H40       1.0  0.9355674643686598  0.1321431857894098  0.3020969976905334  1.0000
  H   H41       1.0  0.275486562474228  0.6473783739710797  0.48688221709007007  1.0000
  H   H42       1.0  0.35262161634006617  0.7754867861964742  0.98688221709007  1.0000
  H   H43       1.0  0.1473780916696086  0.7245133925659246  0.98688221709007  1.0000
  H   H44       1.0  0.2245131455354397  0.8526218047913192  0.48688221709007007  1.0000
  H   H45       1.0  0.7245128535451143  0.3526214550993387  0.51311778290993  1.0000
  H   H46       1.0  0.6473777996792833  0.2245139131874865  0.013117782909930003  1.0000
  H   H47       1.0  0.8526213243497338  0.2754864365044938  0.013117782909930003  1.0000
  H   H48       1.0  0.7754862704839027  0.1473780242790994  0.51311778290993  1.0000
  H   H49       1.0  0.3821948838976468  0.727297525575267  0.5585003849114685  1.0000
  H   H50       1.0  0.2727024281918062  0.8821950588261487  0.058499615088528904  1.0000
  H   H51       1.0  0.22729640950392846  0.61780511993625  0.058499615088528904  1.0000
  H   H52       1.0  0.11780482411202799  0.7727026531871317  0.5584996150885289  1.0000
  H   H53       1.0  0.6178045321217027  0.2727031738086865  0.4415003849114711  1.0000
  H   H54       1.0  0.727296987827536  0.1178047702442768  0.9415003849114713  1.0000
  H   H55       1.0  0.772703006515421  0.3821955794477034  0.9414996150885315  1.0000
  H   H56       1.0  0.8821945919073215  0.2272971758832867  0.44149961508853164  1.0000
  C   C1        1.0  0.3970163302338888  0.4119742274776002  0.940740569668975  1.0000
  C   C2        1.0  0.5880258704751427  0.8970164983850994  0.440740569668975  1.0000
  C   C3        1.0  0.9119741238678216  0.6029836803772994  0.440740569668975  1.0000
  C   C4        1.0  0.1029842480897187  0.08802699252792222  0.940740569668975  1.0000
  C   C5        1.0  0.6029848264133335  0.5880264719063604  0.059259430331025  1.0000
  C   C6        1.0  0.4119735455442068  0.1029833306853263  0.559259430331025  1.0000
  C   C7        1.0  0.0880261624654679  0.3970161486931191  0.559259430331025  1.0000
  C   C8        1.0  0.8970160382435636  0.9119737068560384  0.059259430331025  1.0000
  C   C9        1.0  0.4190961947993941  0.4834226174125362  0.8564049268668229  1.0000
  C   C10       1.0  0.5165765775555613  0.9190963528543037  0.3564049268668228  1.0000
  C   C11       1.0  0.9834225464734628  0.580903825908095  0.3564049268668228  1.0000
  C   C12       1.0  0.0809043835242136  0.0165768619659019  0.8564056966897625  1.0000
  C   C13       1.0  0.5809049618478284  0.5165763413443472  0.1435943033102376  1.0000
  C   C14       1.0  0.4834228384637882  0.08090434652965682  0.6435950731331772  1.0000
  C   C15       1.0  0.0165768695458866  0.4190960031623234  0.6435950731331772  1.0000
  C   C16       1.0  0.9190959028090687  0.9834229671045167  0.1435950731331772  1.0000
  C   C17       1.0  0.3250622552312237  0.5277694437617058  0.8000238645111608  1.0000
  C   C18       1.0  0.47222973092823384  0.8250624562843498  0.3000238645111608  1.0000
  C   C19       1.0  0.027769106767500797  0.6749368521645138  0.3000238645111608  1.0000
  C   C20       1.0  0.1749383230923911  0.972228994373616  0.8000254041570471  1.0000
  C   C21       1.0  0.6749389014159988  0.4722286446816355  0.1999745958429529  1.0000
  C   C22       1.0  0.5277688147771755  0.1749373727860757  0.6999761354888392  1.0000
  C   C23       1.0  0.9722303092518415  0.3250629769059046  0.6999761354888392  1.0000
  C   C24       1.0  0.8250628335548313  0.0277690940697255  0.1999761354888392  1.0000
  C   C25       1.0  0.2120693968733391  0.500304959430423  0.8330731331793686  1.0000
  C   C26       1.0  0.4996950981319443  0.7120696495938859  0.3330731331793687  1.0000
  C   C27       1.0  0.0003046098777233  0.7879305291685128  0.3330731331793687  1.0000
  C   C28       1.0  0.2879303111363356  0.9996943490184408  0.8330754426481877  1.0000
  C   C29       1.0  0.7879308894599433  0.49969486964000254  0.16692455735181264  1.0000
  C   C30       1.0  0.5003051882013381  0.2879301794765325  0.6669268668206314  1.0000
  C   C31       1.0  0.999694806141619  0.2120692999019056  0.6669268668206314  1.0000
  C   C32       1.0  0.7120699751969468  0.0003046097384427  0.1669268668206314  1.0000
  C   C33       1.0  0.19766483091260773  0.430738187365499  0.9193040800615861  1.0000
  C   C34       1.0  0.5692610316932374  0.6976642199062937  0.41930408006158615  1.0000
  C   C35       1.0  0.9307380923357869  0.80233508854257  0.4193033102386465  1.0000
  C   C36       1.0  0.302335747411  0.0692612920129392  0.9193056197074654  1.0000
  C   C37       1.0  0.8023354554206747  0.5692616417049194  0.08069438029253463  1.0000
  C   C38       1.0  0.4307383843261121  0.3023356091641318  0.5806966897613535  1.0000
  C   C39       1.0  0.0692613236835626  0.19766474052784844  0.5806966897613535  1.0000
  C   C40       1.0  0.6976645389222824  0.9307385370574793  0.0806959199384139  1.0000
  C   C41       1.0  0.3457304705919455  0.6001734379618071  0.7084364896073937  1.0000
  C   C42       1.0  0.39982657393440485  0.8457306621942706  0.20843648960739364  1.0000
  C   C43       1.0  0.1001731340752698  0.6542695165681351  0.20843648960739364  1.0000
  C   C44       1.0  0.1542701077316622  0.8998276111141266  0.7084372594303332  1.0000
  C   C45       1.0  0.6542698157413369  0.3998272614221463  0.2915627405696668  1.0000
  C   C46       1.0  0.6001728420849446  0.1542700371896899  0.7915635103926064  1.0000
  C   C47       1.0  0.8998271522580126  0.3457303125022904  0.7915635103926064  1.0000
  C   C48       1.0  0.8457301786016203  0.1001730882698268  0.2915635103926064  1.0000
  C   C49       1.0  0.2908040877542035  0.6972482100349354  0.5581431870669746  1.0000
  C   C50       1.0  0.3027526277865178  0.7908034341587752  0.058143956889914306  1.0000
  C   C51       1.0  0.19724795053708988  0.7091958742900887  0.0581431870669746  1.0000
  C   C52       1.0  0.2091956202554712  0.8027528390410055  0.5581439568899143  1.0000
  C   C53       1.0  0.7091961985790789  0.3027524893490252  0.4418560431100857  1.0000
  C   C54       1.0  0.6972476585467645  0.20919639491165043  0.9418568129330254  1.0000
  C   C55       1.0  0.8027523357961925  0.2908039547803298  0.9418560431100857  1.0000
  C   C56       1.0  0.7908037957638784  0.1972478603429551  0.4418568129330254  1.0000
  Br  Br1       1.0  0.0424669685247849  0.30892388264981463  0.15897459584295606  1.0000
  Br  Br2       1.0  0.6910762624240263  0.5424672987982007  0.658974595842956  1.0000
  Br  Br3       1.0  0.808923731918938  0.957532879964198  0.658974595842956  1.0000
  Br  Br4       1.0  0.45753273948488976  0.1910764670421656  0.15897459584295606  1.0000
  Br  Br5       1.0  0.9575333178084975  0.6910759464206038  0.8410254041570441  1.0000
  Br  Br6       1.0  0.3089231535953232  0.45753253027221774  0.341025404157044  1.0000
  Br  Br7       1.0  0.1910765544143516  0.0424669491062204  0.341025404157044  1.0000
  Br  Br8       1.0  0.5424666765344597  0.8089233620282599  0.8410254041570441  1.0000
  N   N1        1.0  0.28857956533286  0.387003191433827  0.9720900692840644  1.0000
  N   N2        1.0  0.6129960476233052  0.7885797830681582  0.47209006928406444  1.0000
  N   N3        1.0  0.8870030764057191  0.7114203956942404  0.47209006928406444  1.0000
  N   N4        1.0  0.2114192723628747  0.1129980285716883  0.972090839107004  1.0000
  N   N5        1.0  0.7114198506864895  0.6129975079501335  0.027909160892996  1.0000
  N   N6        1.0  0.3870033683960443  0.21142004600226022  0.5279099307159356  1.0000
  N   N7        1.0  0.1129963396136304  0.288579433376178  0.5279099307159356  1.0000
  N   N8        1.0  0.7885801436564748  0.8870035411258073  0.0279099307159356  1.0000
  N   N9        1.0  0.2637634337514356  0.6229303963638912  0.6449530408006156  1.0000
  N   N10       1.0  0.3770687348124753  0.7637636628342221  0.1449530408006154  1.0000
  N   N11       1.0  0.1229309731971995  0.7362365159281766  0.1449530408006154  1.0000
  N   N12       1.0  0.2362362742582391  0.8770689120849725  0.6449530408006156  1.0000
  N   N13       1.0  0.7362359822679139  0.3770685623929921  0.3550469591993846  1.0000
  N   N14       1.0  0.6229306812068742  0.2362361662361963  0.8550469591993848  1.0000
  N   N15       1.0  0.8770693131360829  0.263764183455784  0.8550469591993848  1.0000
  N   N16       1.0  0.7637640120750432  0.12293091698544602  0.3550469591993846  1.0000
