data_image0
_chemical_formula_structural       Cd2H48C64N8Cl4O8
_chemical_formula_sum              "Cd2 H48 C64 N8 Cl4 O8"
_cell_length_a       9.988262345506648
_cell_length_b       11.259010604281023
_cell_length_c       13.1604
_cell_angle_alpha    90.12983276462668
_cell_angle_beta     105.22057825431388
_cell_angle_gamma    90.12459032092964

_space_group_name_H-M_alt    "P 1"
_space_group_IT_number       1

loop_
  _space_group_symop_operation_xyz
  'x, y, z'

loop_
  _atom_site_type_symbol
  _atom_site_label
  _atom_site_symmetry_multiplicity
  _atom_site_fract_x
  _atom_site_fract_y
  _atom_site_fract_z
  _atom_site_occupancy
  Cd  Cd1       1.0  0.6416485133158288  0.32902045291746873  0.7348206586212458  1.0000
  Cd  Cd2       1.0  0.3583533239540913  0.6709799623082945  0.26518115199412057  1.0000
  H   H1        1.0  0.9004651325832354  0.6433645625369095  0.06903910717712593  1.0000
  H   H2        1.0  0.09953150789895909  0.35663318813850964  0.9309586233652639  1.0000
  H   H3        1.0  0.8294791882986416  0.5042563826966457  0.9145374351134239  1.0000
  H   H4        1.0  0.1705174521835602  0.4957413679787734  0.08546181513960963  1.0000
  H   H5        1.0  0.25406154579884804  0.1745022902509632  0.22799850848016948  1.0000
  H   H6        1.0  0.7459382312192417  0.8255025658920375  0.772002140373566  1.0000
  H   H7        1.0  0.0718845856478154  0.11747736014284273  0.8644264933895301  1.0000
  H   H8        1.0  0.9281172456662149  0.8825212787160197  0.13557075346346187  1.0000
  H   H9        1.0  0.35119161273087934  0.3694478989291099  0.2967263199986974  1.0000
  H   H10       1.0  0.6488071267164415  0.6305569572138908  0.7032764016798013  1.0000
  H   H11       1.0  0.25617367758339776  0.0032631859886791  0.34766430657295905  1.0000
  H   H12       1.0  0.7438333534963063  0.9967390056039775  0.652336262812895  1.0000
  H   H13       1.0  0.5363314250692923  0.1171887005221777  0.8238274565607002  1.0000
  H   H14       1.0  0.463670406244745  0.8828099383366848  0.17617282971357895  1.0000
  H   H15       1.0  0.541179242416291  0.9707631924779676  0.7738145056697476  1.0000
  H   H16       1.0  0.45882362944647065  0.0292363345643452  0.22618598966096226  1.0000
  H   H17       1.0  0.3845112968460782  0.025999794079105205  0.7937568826323443  1.0000
  H   H18       1.0  0.6154905404238491  0.9740006211466509  0.20624188856172762  1.0000
  H   H19       1.0  0.4731183015539671  0.7490566165056123  0.031976797725192796  1.0000
  H   H20       1.0  0.5268793735210622  0.2509402459863566  0.9680241766644784  1.0000
  H   H21       1.0  0.7253745363034055  0.7638963855581054  0.12497808015290698  1.0000
  H   H22       1.0  0.2746231417495721  0.2361013651173067  0.8750206169860137  1.0000
  H   H23       1.0  0.2558423478946352  0.6672602500272405  0.9355257484139301  1.0000
  H   H24       1.0  0.744154295565508  0.33273838883162915  0.06447426400965377  1.0000
  H   H25       1.0  0.1723383505200999  0.5681434181255511  0.8346641259745199  1.0000
  H   H26       1.0  0.8276582959179847  0.4318561089167617  0.16533512890895707  1.0000
  H   H27       1.0  0.12815244262850461  0.3438095955134203  0.4300608407690093  1.0000
  H   H28       1.0  0.8718442038095873  0.6561899315288926  0.5699422133910872  1.0000
  H   H29       1.0  0.3356836058603037  0.40272813273310254  0.6455685135779562  1.0000
  H   H30       1.0  0.6643130405777882  0.5972713943092103  0.3544307413055209  1.0000
  H   H31       1.0  0.2311063307311159  0.5279051551883782  0.6548671034883924  1.0000
  H   H32       1.0  0.768890315706969  0.4720943718539417  0.3451321513950916  1.0000
  H   H33       1.0  0.2244842937668636  0.3994018857195982  0.7310719823282099  1.0000
  H   H34       1.0  0.7755123496932796  0.6005967531392643  0.2689265103847234  1.0000
  H   H35       1.0  0.9599393745038965  0.9542660731111355  0.7192746552946617  1.0000
  H   H36       1.0  0.0400593411198571  0.045731677564283806  0.2807219690194884  1.0000
  H   H37       1.0  0.0984207217329072  0.015124875939371  0.5964706374777933  1.0000
  H   H38       1.0  0.9015790374175124  0.9848746511029418  0.40352771791865655  1.0000
  H   H39       1.0  0.4603062449223003  0.4002563181967673  0.48824593159448443  1.0000
  H   H40       1.0  0.5396966388522415  0.5997467615793397  0.5117560927077491  1.0000
  H   H41       1.0  0.3843683164912193  0.7313187048616427  0.7106499761110926  1.0000
  H   H42       1.0  0.6156335237566495  0.2686825985475707  0.28935183681949184  1.0000
  H   H43       1.0  0.0286216529653061  0.7780593588230786  0.834164957149703  1.0000
  H   H44       1.0  0.9713760250876646  0.22193839185234052  0.16583222027857406  1.0000
  H   H45       1.0  0.4300861047764712  0.857371476196839  0.5884508517188751  1.0000
  H   H46       1.0  0.5699157295155004  0.1426280508454738  0.4115486770153042  1.0000
  H   H47       1.0  0.2774056884619114  0.8886861600299696  0.4892296076956627  1.0000
  H   H48       1.0  0.7225940796223469  0.11131603156269423  0.5107717940677362  1.0000
  C   C1        1.0  0.9249387143399446  0.47018655380721  0.5734142170170956  1.0000
  C   C2        1.0  0.07506001319559631  0.5298147496020036  0.4265892552558484  1.0000
  C   C3        1.0  0.7914090464683952  0.6352785404245154  0.025998511453970297  1.0000
  C   C4        1.0  0.2085886345625241  0.36472009843435427  0.9739994281448433  1.0000
  C   C5        1.0  0.9980511800294493  0.3838595635595752  0.5330802304799249  1.0000
  C   C6        1.0  0.0019496166917534  0.6161399634827377  0.46692365064498637  1.0000
  C   C7        1.0  0.7533519767551837  0.5566725288920722  0.9410746781577546  1.0000
  C   C8        1.0  0.2466446667049595  0.4433261099667974  0.0589245744105042  1.0000
  C   C9        1.0  0.29792577763836897  0.1856099124541331  0.31262416660427317  1.0000
  C   C10       1.0  0.7020750369505038  0.8143949436888676  0.687377448845986  1.0000
  C   C11       1.0  0.3529066158957193  0.10978125056420403  0.4867906293235933  1.0000
  C   C12       1.0  0.6470983370644845  0.8902200528450024  0.513210284119964  1.0000
  C   C13       1.0  0.040851553750769695  0.0663188817100675  0.9245278291383558  1.0000
  C   C14       1.0  0.9591482024217086  0.9336797571487949  0.0754705239428688  1.0000
  C   C15       1.0  0.35402621829335595  0.2967136681727069  0.35156640462429334  1.0000
  C   C16       1.0  0.6459735557467922  0.7032902997868504  0.6484357616248673  1.0000
  C   C17       1.0  0.4394649049890588  0.09956447635958202  0.6609372406370966  1.0000
  C   C18       1.0  0.5605400449931963  0.9004359388661811  0.3390629106359101  1.0000
  C   C19       1.0  0.296839082727935  0.089570636200456  0.37938354595155493  1.0000
  C   C20       1.0  0.7031658761881586  0.9104324435756511  0.6206173721224391  1.0000
  C   C21       1.0  0.4130851035554386  0.220074094794569  0.5267216728512382  1.0000
  C   C22       1.0  0.5869188118339891  0.7799272086146374  0.47327903385111375  1.0000
  C   C23       1.0  0.47741714411203157  0.0509719599086509  0.7689629469170145  1.0000
  C   C24       1.0  0.5225857307286715  0.9490284553171122  0.2310375507289137  1.0000
  C   C25       1.0  0.5504929483890278  0.6964130953474523  0.007241575790352807  1.0000
  C   C26       1.0  0.4495047296639427  0.3035846553279669  0.9927586410592113  1.0000
  C   C27       1.0  0.6916322479334837  0.7034066518185611  0.0583330794269088  1.0000
  C   C28       1.0  0.3083664706682185  0.2965919870403013  0.9416665866237608  1.0000
  C   C29       1.0  0.40769039828632  0.5046649470828157  0.7852604984386178  1.0000
  C   C30       1.0  0.5923052076030474  0.4953336917760467  0.21474006709907914  1.0000
  C   C31       1.0  0.134752113319152  0.9898662420818172  0.9896630566046839  1.0000
  C   C32       1.0  0.8652517931364371  0.0101323967770455  0.010336123441355474  1.0000
  C   C33       1.0  0.6119789483553717  0.5477400679535407  0.8898614176720514  1.0000
  C   C34       1.0  0.3880176951047715  0.4522585709053288  0.11013783489620721  1.0000
  C   C35       1.0  0.5130505786934094  0.6173248002026313  0.922761468262472  1.0000
  C   C36       1.0  0.4869460617887924  0.3826729504727808  0.0772385418458938  1.0000
  C   C37       1.0  0.8377910810449122  0.43553052384196184  0.6463170674974066  1.0000
  C   C38       1.0  0.162204530800345  0.5644698913838013  0.3536842625260519  1.0000
  C   C39       1.0  0.2515792760113627  0.6385719246504351  0.8547667383282873  1.0000
  C   C40       1.0  0.748418407997505  0.3614276023918777  0.1452327232963952  1.0000
  C   C41       1.0  0.07148795171325868  0.4123080794053706  0.4598515513279794  1.0000
  C   C42       1.0  0.928511807437161  0.5876914476369492  0.5401521230557337  1.0000
  C   C43       1.0  0.2939193547048973  0.4559694013519007  0.699550987592687  1.0000
  C   C44       1.0  0.7060772857773046  0.5440283493235185  0.30044826266034624  1.0000
  C   C45       1.0  0.8103564987858148  0.16191673078999713  0.8598020865446898  1.0000
  C   C46       1.0  0.1896453355061638  0.8380827962523156  0.1401959224788385  1.0000
  C   C47       1.0  0.0511487439572633  0.9035072772300552  0.7159035671311856  1.0000
  C   C48       1.0  0.9488499746444318  0.0964913616288143  0.28409381935350814  1.0000
  C   C49       1.0  0.90506734348169  0.07815659070765692  0.9338075121040819  1.0000
  C   C50       1.0  0.09493137809795368  0.921842936334656  0.0661898766958373  1.0000
  C   C51       1.0  0.1294780857898417  0.9384795005028579  0.6476878137738211  1.0000
  C   C52       1.0  0.8705227139093097  0.061520914722905204  0.35231151053437065  1.0000
  C   C53       1.0  0.41354040998250235  0.3153317696138346  0.458752936959776  1.0000
  C   C54       1.0  0.5864614362212565  0.6846713101622655  0.541248880601252  1.0000
  C   C55       1.0  0.2890360300281785  0.777962546827226  0.7117641107516023  1.0000
  C   C56       1.0  0.7109658131976387  0.2220396447654309  0.2882361847835568  1.0000
  C   C57       1.0  0.0901723629338136  0.8049633236524514  0.7807166843303365  1.0000
  C   C58       1.0  0.9098263586458302  0.19503620338986144  0.21928070446957554  1.0000
  C   C59       1.0  0.3341891429748785  0.9095149500736639  0.5708238825571286  1.0000
  C   C60       1.0  0.6658126972729902  0.0904863533355424  0.4291764106628122  1.0000
  C   C61       1.0  0.21049384102611404  0.7420186508620858  0.7798801000965058  1.0000
  C   C62       1.0  0.7895059211022541  0.25798176436367737  0.22011901747048065  1.0000
  C   C63       1.0  0.2486658814448005  0.8753394273538931  0.6450383808806422  1.0000
  C   C64       1.0  0.7513369963738512  0.12466187605532042  0.3549628789358223  1.0000
  N   N1        1.0  0.37031550246155115  0.0359767587527173  0.5738698922205216  1.0000
  N   N2        1.0  0.6296894504986454  0.9640245446564892  0.4261302613677104  1.0000
  N   N3        1.0  0.542432799301757  0.4784644235444162  0.804184946814665  1.0000
  N   N4        1.0  0.45756384118044474  0.521533327131003  0.1958158231490188  1.0000
  N   N5        1.0  0.3852198254086971  0.5870102109321778  0.8555149611261755  1.0000
  N   N6        1.0  0.6147757775027216  0.4129875397432414  0.14448484224097774  1.0000
  N   N7        1.0  0.46675242157125035  0.2101735138975087  0.6352683679742414  1.0000
  N   N8        1.0  0.5332525284110048  0.7898269013282545  0.3647333030094161  1.0000
  Cl  Cl1       1.0  0.3015781560195947  0.9828158418700214  0.9745787165457005  1.0000
  Cl  Cl2       1.0  0.6984226407016081  0.0171836851722915  0.025419845591947876  1.0000
  Cl  Cl3       1.0  0.004505246128431399  0.2395555105473548  0.5803976914483827  1.0000
  Cl  Cl4       1.0  0.9954945130219884  0.760444016494958  0.4196059829353302  1.0000
  O   O1        1.0  0.7167927086587369  0.3953064718399589  0.5985033715469754  1.0000
  O   O2        1.0  0.2832018685936859  0.6046948315692546  0.4014947146292087  1.0000
  O   O3        1.0  0.8019747143327436  0.15192821973155904  0.7625250897139609  1.0000
  O   O4        1.0  0.19802816348590108  0.8480730836776544  0.23747389053653487  1.0000
  O   O5        1.0  0.7443420276174493  0.2401896735293647  0.8981883676752462  1.0000
  O   O6        1.0  0.25566187883813996  0.7598089653294977  0.1018115722261186  1.0000
  O   O7        1.0  0.8841973037360873  0.4453831428328244  0.7442678360061166  1.0000
  O   O8        1.0  0.1157972616045555  0.5546146078425949  0.2557340401857999  1.0000
