data_image0
_chemical_formula_structural       Ho2Cu4H16C16N12Cl2O24
_chemical_formula_sum              "Ho2 Cu4 H16 C16 N12 Cl2 O24"
_cell_length_a       6.3032667867025545
_cell_length_b       11.315593880453466
_cell_length_c       12.245526471237836
_cell_angle_alpha    102.34999297785568
_cell_angle_beta     89.99566909669403
_cell_angle_gamma    90.05109936631722

_space_group_name_H-M_alt    "P 1"
_space_group_IT_number       1

loop_
  _space_group_symop_operation_xyz
  'x, y, z'

loop_
  _atom_site_type_symbol
  _atom_site_label
  _atom_site_symmetry_multiplicity
  _atom_site_fract_x
  _atom_site_fract_y
  _atom_site_fract_z
  _atom_site_occupancy
  Ho  Ho1       1.0  0.48502869658398146  0.7499934358047325  0.9998758698519553  1.0000
  Ho  Ho2       1.0  0.5146183749065543  0.2498029007276017  0.9999532414645529  1.0000
  Cu  Cu1       1.0  0.13526537287260962  0.8866013216274451  0.579729218125209  1.0000
  Cu  Cu2       1.0  0.1291613215820959  0.6133876476895068  0.4185107805848673  1.0000
  Cu  Cu3       1.0  0.8697235429451382  0.11313380765280101  0.4196679295703092  1.0000
  Cu  Cu4       1.0  0.867192448322655  0.386385411905806  0.5805041250800257  1.0000
  H   H1        1.0  0.28648314136171393  0.5323914706900225  0.040105608391385786  1.0000
  H   H2        1.0  0.28659294063972146  0.9676018120195025  0.9597416724329051  1.0000
  H   H3        1.0  0.7130483882460865  0.4675130241175651  0.959706123873424  1.0000
  H   H4        1.0  0.713270317390908  0.0325119880184985  0.0402184864089605  1.0000
  H   H5        1.0  0.21543232933638734  0.5443345644068955  0.9193109605629317  1.0000
  H   H6        1.0  0.21580768282420598  0.955560959523872  0.08055151917196916  1.0000
  H   H7        1.0  0.7841183036050124  0.45565411064097106  0.08051515912163859  1.0000
  H   H8        1.0  0.784572599527941  0.0443398990572348  0.9193974542848481  1.0000
  H   H9        1.0  0.30129733490979055  0.7827246046071465  0.7782681698429386  1.0000
  H   H10       1.0  0.3005590974405337  0.7172979567394719  0.22145396424130584  1.0000
  H   H11       1.0  0.6995939588808398  0.21737636820949285  0.2215961732738378  1.0000
  H   H12       1.0  0.6988932712460783  0.2828337526169307  0.778576111933802  1.0000
  H   H13       1.0  0.2752295291136805  0.6394450330944537  0.7714815636902658  1.0000
  H   H14       1.0  0.2758422189056163  0.8607014043984832  0.2282398685710021  1.0000
  H   H15       1.0  0.7244608697892121  0.3607405432375471  0.2283474631356768  1.0000
  H   H16       1.0  0.7243716820504604  0.1394357500320922  0.7715593910724081  1.0000
  C   C1        1.0  0.7861110337376971  0.8535732191557062  0.8069839896305241  1.0000
  C   C2        1.0  0.7855965447902662  0.6464706327592751  0.19318738580646774  1.0000
  C   C3        1.0  0.2146022505674807  0.14618002695239338  0.1934999904765746  1.0000
  C   C4        1.0  0.21400975659528143  0.3537149473492391  0.8068229505474562  1.0000
  C   C5        1.0  0.8417594150589522  0.7442103807062992  0.7198404432669037  1.0000
  C   C6        1.0  0.8425073235858705  0.7558709468376962  0.2800154221964775  1.0000
  C   C7        1.0  0.15816388041577772  0.2556146952222562  0.28037604069620403  1.0000
  C   C8        1.0  0.1573369845701791  0.24435042545285768  0.7199109453816916  1.0000
  C   C9        1.0  0.7988477844233303  0.6204483489196732  0.7101965786335924  1.0000
  C   C10       1.0  0.7995951152803402  0.8795540788365198  0.28986998373362377  1.0000
  C   C11       1.0  0.20088510733410916  0.3793368673232749  0.289951114221509  1.0000
  C   C12       1.0  0.20001748138572856  0.12058921494276119  0.7103601594424801  1.0000
  C   C13       1.0  0.713487858218592  0.5377995238637396  0.7784410165527405  1.0000
  C   C14       1.0  0.7141358379545154  0.9624519140097689  0.22191989821761385  1.0000
  C   C15       1.0  0.28601975638974153  0.4619798142037865  0.2216098946693279  1.0000
  C   C16       1.0  0.28650971005605197  0.037883362929314  0.7782933174968889  1.0000
  N   N1        1.0  0.953165141953946  0.753130743831555  0.6274260010349124  1.0000
  N   N2        1.0  0.9557647304599401  0.7472043408641224  0.371909856922656  1.0000
  N   N3        1.0  0.04573835662767319  0.24706852256801434  0.3726280555894661  1.0000
  N   N4        1.0  0.04528211915358331  0.2529652488753129  0.6276144265898509  1.0000
  N   N5        1.0  0.9763882530383159  0.6430629189094929  0.5638726204570759  1.0000
  N   N6        1.0  0.980012444829548  0.8575063758285708  0.43530716726837687  1.0000
  N   N7        1.0  0.021701230072480406  0.3569092361977154  0.4358185774829977  1.0000
  N   N8        1.0  0.0216976250111216  0.14278406530448248  0.5645225748878886  1.0000
  N   N9        1.0  0.8835006915260096  0.5626470900424749  0.611435506406039  1.0000
  N   N10       1.0  0.8860264529961699  0.9372253127143894  0.3882726318563741  1.0000
  N   N11       1.0  0.11534231276534973  0.4372756867487623  0.3884772618073242  1.0000
  N   N12       1.0  0.11440944454754741  0.06280293068964228  0.6118369945288364  1.0000
  Cl  Cl1       1.0  0.41098683646526984  0.7498181767377756  0.5003931700826527  1.0000
  Cl  Cl2       1.0  0.5888436565947972  0.24905594560386385  0.5002478352463555  1.0000
  O   O1        1.0  0.7018022535454663  0.8341569814408842  0.8959552343157781  1.0000
  O   O2        1.0  0.7013419697308336  0.6659588116683962  0.10431405357659426  1.0000
  O   O3        1.0  0.29862550229545803  0.16564108489540527  0.10449976697494628  1.0000
  O   O4        1.0  0.29844831504716757  0.3341644356243734  0.8956807560589796  1.0000
  O   O5        1.0  0.8258609677540536  0.9567629534408297  0.788655311325023  1.0000
  O   O6        1.0  0.8245677312700508  0.5433425673478638  0.21179110742452417  1.0000
  O   O7        1.0  0.17558209562320579  0.0430146728745839  0.21209347622767183  1.0000
  O   O8        1.0  0.17481489672314865  0.45688965585426883  0.78843482376584  1.0000
  O   O9        1.0  0.651005705077921  0.5732334594160873  0.8774410545666028  1.0000
  O   O10       1.0  0.6507564208837735  0.9272381536834187  0.12306836511031344  1.0000
  O   O11       1.0  0.34895412591086483  0.4266450488047083  0.1227221155158844  1.0000
  O   O12       1.0  0.3481917498782536  0.0733250711467903  0.8774687369529914  1.0000
  O   O13       1.0  0.7156437686336546  0.42464595165402846  0.7286507491775184  1.0000
  O   O14       1.0  0.7176555045243306  0.07551660229061238  0.2719093641911954  1.0000
  O   O15       1.0  0.2827993673327711  0.5751806535921274  0.2712541085714832  1.0000
  O   O16       1.0  0.2860457381979558  0.9249656507962528  0.7280536665211699  1.0000
  O   O17       1.0  0.24971721915670037  0.593235452178014  0.9955885952625607  1.0000
  O   O18       1.0  0.250019069534126  0.9067177954513853  0.004331077413489516  1.0000
  O   O19       1.0  0.7497524641635851  0.40671281513815655  0.004329505524239575  1.0000
  O   O20       1.0  0.7499424869773749  0.09331224219246793  0.9955886447968822  1.0000
  O   O21       1.0  0.3102089087519744  0.7171379674257637  0.8197763827249389  1.0000
  O   O22       1.0  0.3102537716721302  0.7829182987699286  0.18001694129150536  1.0000
  O   O23       1.0  0.6896210364243489  0.28297635680718963  0.1801479520573395  1.0000
  O   O24       1.0  0.6893761692040246  0.21705670323511575  0.8198757284540718  1.0000
