data_image0
_chemical_formula_structural       H16Pb4C20N8O20
_chemical_formula_sum              "H16 Pb4 C20 N8 O20"
_cell_length_a       6.45994682951611
_cell_length_b       7.057060642660417
_cell_length_c       16.633546219025078
_cell_angle_alpha    90.00208911876898
_cell_angle_beta     89.99845189707139
_cell_angle_gamma    111.19745290769963

_space_group_name_H-M_alt    "P 1"
_space_group_IT_number       1

loop_
  _space_group_symop_operation_xyz
  'x, y, z'

loop_
  _atom_site_type_symbol
  _atom_site_label
  _atom_site_symmetry_multiplicity
  _atom_site_fract_x
  _atom_site_fract_y
  _atom_site_fract_z
  _atom_site_occupancy
  H   H1        1.0  0.748035720826991  0.9383207341953721  0.2771315929853487  1.0000
  H   H2        1.0  0.75193354332891  0.06167471507899341  0.7771446473239083  1.0000
  H   H3        1.0  0.2520982854419174  0.061680207800492305  0.7229161321611388  1.0000
  H   H4        1.0  0.2479090661596857  0.938317477346544  0.22291570345859676  1.0000
  H   H5        1.0  0.9297867357918932  0.5719351345951081  0.13952881471111317  1.0000
  H   H6        1.0  0.5702814730058564  0.428146324444711  0.6395415294042338  1.0000
  H   H7        1.0  0.0701737600233372  0.4281435812260526  0.8604966671806766  1.0000
  H   H8        1.0  0.42986816024748015  0.5718120187274636  0.36046351056472054  1.0000
  H   H9        1.0  0.9724486277924099  0.7214486072140074  0.018989708294832  1.0000
  H   H10       1.0  0.5275756032653122  0.27866379162576754  0.5190075691994168  1.0000
  H   H11       1.0  0.02731701635169511  0.2786501249016666  0.9809750534914841  1.0000
  H   H12       1.0  0.4725756017036532  0.7213492919595766  0.4809944652041837  1.0000
  H   H13       1.0  0.05005469287399936  0.8887423865883691  0.08478705382357532  1.0000
  H   H14       1.0  0.4499256852569787  0.11125780498274912  0.5848090387003426  1.0000
  H   H15       1.0  0.9496176325351159  0.11123025323212937  0.915174701237575  1.0000
  H   H16       1.0  0.5503145028791822  0.8887962213242916  0.4151923946291803  1.0000
  Pb  Pb1       1.0  0.5439920694412523  0.778033262322083  0.06947816419723551  1.0000
  Pb  Pb2       1.0  0.9558720145802369  0.22217356685590772  0.5694933731332343  1.0000
  Pb  Pb3       1.0  0.4554070689203797  0.2219062760364495  0.9305461154395404  1.0000
  Pb  Pb4       1.0  0.04460473017341837  0.7778953636877122  0.43055675658234105  1.0000
  C   C1        1.0  0.914854752520185  0.4542506600297855  0.255435896832509  1.0000
  C   C2        1.0  0.5852013747784214  0.5458133418969879  0.7554172522624969  1.0000
  C   C3        1.0  0.0851227027686861  0.5456911770459527  0.7445661374009306  1.0000
  C   C4        1.0  0.4148670729380228  0.45424090441947834  0.24457396111979798  1.0000
  C   C5        1.0  0.8561773170486973  0.2611727121770855  0.29578134701359465  1.0000
  C   C6        1.0  0.6439118667476722  0.7388571401667506  0.795781590439326  1.0000
  C   C7        1.0  0.14401168284413765  0.7387794971034652  0.7041936330909238  1.0000
  C   C8        1.0  0.3559507067717576  0.2611776020106332  0.20420601606109307  1.0000
  C   C9        1.0  0.795693525373892  0.086670437049456  0.24805251674733608  1.0000
  C   C10       1.0  0.7043553242592112  0.91335360148436  0.7480479150626564  1.0000
  C   C11       1.0  0.2043860466351788  0.9132712686733271  0.7519374933761329  1.0000
  C   C12       1.0  0.29558177476874903  0.08668560744708027  0.251955923571778  1.0000
  C   C13       1.0  0.8422063176341014  0.26280057432229137  0.127982534194004  1.0000
  C   C14       1.0  0.6578231871259276  0.7372620024862401  0.6279556409865423  1.0000
  C   C15       1.0  0.15754973270808392  0.7371841244501597  0.8720249115797005  1.0000
  C   C16       1.0  0.34242137033351827  0.26276008524014577  0.3720512028460803  1.0000
  C   C17       1.0  0.8534062012686832  0.238632550256753  0.3835832660818924  1.0000
  C   C18       1.0  0.64664182115434  0.7613766999207954  0.8835952593690524  1.0000
  C   C19       1.0  0.1469800164560269  0.7613954372867653  0.6163911129827824  1.0000
  C   C20       1.0  0.3529735280361663  0.23862794703266846  0.11639715698277803  1.0000
  N   N1        1.0  0.9048783665814142  0.4396052050387596  0.17214388775375516  1.0000
  N   N2        1.0  0.5951091922991765  0.560488931223702  0.6721404516486376  1.0000
  N   N3        1.0  0.09481665753662583  0.5603856544501582  0.8278611534157747  1.0000
  N   N4        1.0  0.4051261647059762  0.4395255649997838  0.32786038019916225  1.0000
  N   N5        1.0  0.7873610032502542  0.08225829699602369  0.167918055758399  1.0000
  N   N6        1.0  0.7127020316198269  0.9177868319926644  0.6679014615936084  1.0000
  N   N7        1.0  0.21252560376444762  0.9177003833776709  0.8320797704297577  1.0000
  N   N8        1.0  0.2874520201956301  0.08224905723439237  0.3320975670018883  1.0000
  O   O1        1.0  0.9719231758578816  0.6295733690539078  0.28547699087321393  1.0000
  O   O2        1.0  0.5281335612261985  0.37044983136989634  0.7854325035149048  1.0000
  O   O3        1.0  0.028102572724350225  0.3703379940047853  0.7145400728973357  1.0000
  O   O4        1.0  0.4719857793633722  0.629619555968695  0.21456051345830934  1.0000
  O   O5        1.0  0.8018657499254829  0.0594634304825163  0.4137295375476314  1.0000
  O   O6        1.0  0.6981516914142886  0.940555246280894  0.9137566330285696  1.0000
  O   O7        1.0  0.198462523239968  0.9405433429563957  0.5862556629842219  1.0000
  O   O8        1.0  0.30144379085147216  0.05942661734476221  0.08625502142450613  1.0000
  O   O9        1.0  0.9029951989442822  0.3929731096252311  0.4302117813785032  1.0000
  O   O10       1.0  0.5970224256257595  0.6070389382328613  0.9302114425545869  1.0000
  O   O11       1.0  0.09750603336390645  0.6070638535415328  0.5697427580862995  1.0000
  O   O12       1.0  0.4024466115823984  0.39293244218868034  0.0697653427924152  1.0000
  O   O13       1.0  0.8333007903547199  0.2699886339708186  0.05235231238429351  1.0000
  O   O14       1.0  0.6666620697905188  0.7299509445362988  0.5523288800290587  1.0000
  O   O15       1.0  0.1663708603941103  0.7300174617569866  0.9476527289489315  1.0000
  O   O16       1.0  0.3336580168842289  0.2700117419405217  0.44767916558759435  1.0000
  O   O17       1.0  0.9228593171804176  0.759809203515388  0.0713601721918593  1.0000
  O   O18       1.0  0.5771883278258728  0.24009185471903996  0.5713381684640667  1.0000
  O   O19       1.0  0.07692125040561143  0.24002644247043042  0.9286460700203707  1.0000
  O   O20       1.0  0.42311004143059716  0.7599332040536667  0.4286289964268306  1.0000
