data_image0
_chemical_formula_structural       Cu2H28C40N4O8
_chemical_formula_sum              "Cu2 H28 C40 N4 O8"
_cell_length_a       9.599601344411745
_cell_length_b       9.926917704463058
_cell_length_c       9.92674581563763
_cell_angle_alpha    81.27225363248805
_cell_angle_beta     79.34873833089412
_cell_angle_gamma    79.34879496442542

_space_group_name_H-M_alt    "P 1"
_space_group_IT_number       1

loop_
  _space_group_symop_operation_xyz
  'x, y, z'

loop_
  _atom_site_type_symbol
  _atom_site_label
  _atom_site_symmetry_multiplicity
  _atom_site_fract_x
  _atom_site_fract_y
  _atom_site_fract_z
  _atom_site_occupancy
  Cu  Cu1       1.0  0.25000025295601347  0.11247477445558471  0.887524863921314  1.0000
  Cu  Cu2       1.0  0.7499999189215388  0.8875272382128967  0.11246999815124784  1.0000
  H   H1        1.0  0.03884565904478882  0.2980408173364068  0.7421444320632347  1.0000
  H   H2        1.0  0.5388469170971248  0.7421468168099992  0.29804498274553026  1.0000
  H   H3        1.0  0.9611556979868325  0.7019601392668163  0.2578534089672074  1.0000
  H   H4        1.0  0.461165949712985  0.25784783671330297  0.701958917727353  1.0000
  H   H5        1.0  0.35274631293659553  0.9666195968625572  0.6406582354298749  1.0000
  H   H6        1.0  0.8527567125491657  0.6406583901520404  0.9666244899204982  1.0000
  H   H7        1.0  0.6472474022381788  0.033376256697089005  0.359340597394194  1.0000
  H   H8        1.0  0.14725544015104933  0.3593342104032828  0.0333788172708012  1.0000
  H   H9        1.0  0.2822435386650426  0.9748066717476502  0.407753495115344  1.0000
  H   H10       1.0  0.7822609382148401  0.40775369766178216  0.9748158490974033  1.0000
  H   H11       1.0  0.7177401899445853  0.025185103055171996  0.5922505992476061  1.0000
  H   H12       1.0  0.2177535847935133  0.5922367907630315  0.025193416009663808  1.0000
  H   H13       1.0  0.8757482364811153  0.4200115764784513  0.5778566289322384  1.0000
  H   H14       1.0  0.37574509260700495  0.5778661327776006  0.42001329956664074  1.0000
  H   H15       1.0  0.12425277366732958  0.5799914399387659  0.4221419797562261  1.0000
  H   H16       1.0  0.6242589341191332  0.4221378957674772  0.5799846645124518  1.0000
  H   H17       1.0  0.7942772614548443  0.43912953388185366  0.34972348204153997  1.0000
  H   H18       1.0  0.2942713916458572  0.349738534424631  0.4391268087199192  1.0000
  H   H19       1.0  0.2057247199493872  0.5608807030223487  0.6502729169156964  1.0000
  H   H20       1.0  0.7057257839975577  0.6502686387119495  0.5608708265596433  1.0000
  H   H21       1.0  0.9138563788692479  0.27318350984295847  0.18212538022059727  1.0000
  H   H22       1.0  0.41385734298145854  0.18213916856833373  0.2731866737713346  1.0000
  H   H23       1.0  0.08613900759103642  0.726821611653868  0.8178728467719268  1.0000
  H   H24       1.0  0.5861393950344008  0.8178638641973491  0.7268146536591047  1.0000
  H   H25       1.0  0.1167132801929256  0.09269776252443046  0.23659777297431359  1.0000
  H   H26       1.0  0.616727250438089  0.2366027718516647  0.09270752021412679  1.0000
  H   H27       1.0  0.8832719188769927  0.9072981347677139  0.7634044760975058  1.0000
  H   H28       1.0  0.38327588695277376  0.7633929704338269  0.9072988387848182  1.0000
  C   C1        1.0  0.048689491926921846  0.9289088948278488  0.9874083820055333  1.0000
  C   C2        1.0  0.5486812904978677  0.9874092815516632  0.9289046840558157  1.0000
  C   C3        1.0  0.9513107425346804  0.07109930698995019  0.012585576810366064  1.0000
  C   C4        1.0  0.45130786824519487  0.012594837319760197  0.07109673191160226  1.0000
  C   C5        1.0  0.08987827230199491  0.2295329377456311  0.6645865473520017  1.0000
  C   C6        1.0  0.5898830664738384  0.6645889750042995  0.22953576273788204  1.0000
  C   C7        1.0  0.910118688436029  0.7704690844253078  0.33541085908608176  1.0000
  C   C8        1.0  0.41012632679457545  0.3354077809421695  0.7704653860499703  1.0000
  C   C9        1.0  0.265206737256122  0.042543652219542594  0.6060925467012268  1.0000
  C   C10       1.0  0.7652163364391528  0.6060910365962967  0.042547467409704505  1.0000
  C   C11       1.0  0.7347866169553114  0.9574542556363071  0.393908064398971  1.0000
  C   C12       1.0  0.23479340371243043  0.39390365953617845  0.9574529137201253  1.0000
  C   C13       1.0  0.22456632186075606  0.0470281204139766  0.47949481283938405  1.0000
  C   C14       1.0  0.7245766328900841  0.47949690092357833  0.047037907686792765  1.0000
  C   C15       1.0  0.7754248900209999  0.9529636285379227  0.5205040184160692  1.0000
  C   C16       1.0  0.27543233683093854  0.5204957201697694  0.9529659226338367  1.0000
  C   C17       1.0  0.10922301182204557  0.14834011225958219  0.44078671417553744  1.0000
  C   C18       1.0  0.6092323674892696  0.440788240364668  0.14834514465911747  1.0000
  C   C19       1.0  0.8907657092934613  0.8516598662409366  0.5592183939427571  1.0000
  C   C20       1.0  0.3907736623182815  0.5592095632679274  0.8516574163961295  1.0000
  C   C21       1.0  0.03989383386390699  0.24306361894210227  0.5373515982018944  1.0000
  C   C22       1.0  0.5398973233225348  0.5373578393238886  0.24306591694497098  1.0000
  C   C23       1.0  0.9601039448014602  0.7569332343816056  0.46264742625446315  1.0000
  C   C24       1.0  0.46010982379874593  0.46263997953384  0.7569324272614466  1.0000
  C   C25       1.0  0.9258637208432107  0.34818187252880506  0.5033072595881264  1.0000
  C   C26       1.0  0.4258639949103227  0.503314500947688  0.34818135765792135  1.0000
  C   C27       1.0  0.07413389768404241  0.6518221805389713  0.4966947826039316  1.0000
  C   C28       1.0  0.5741394559470906  0.4966864309279514  0.6518181558558281  1.0000
  C   C29       1.0  0.8816352783566475  0.358390198156897  0.3771951248294555  1.0000
  C   C30       1.0  0.38163133951593403  0.3772077259567013  0.35839099081330517  1.0000
  C   C31       1.0  0.11836556539029165  0.6416138509262054  0.6228033623789813  1.0000
  C   C32       1.0  0.6183682627562774  0.6227973571205181  0.6416085599096347  1.0000
  C   C33       1.0  0.9493900878482934  0.26449004554164895  0.2816441618543806  1.0000
  C   C34       1.0  0.4493953980378933  0.28165323482620863  0.2644886718748579  1.0000
  C   C35       1.0  0.050602073392298115  0.7355150799398443  0.7183576201217647  1.0000
  C   C36       1.0  0.5506070199867849  0.7183477149310064  0.7355089947791384  1.0000
  C   C37       1.0  0.061191559646403  0.16171713536872548  0.312090503893522  1.0000
  C   C38       1.0  0.5611992489748019  0.3120984207323402  0.16172573116565298  1.0000
  C   C39       1.0  0.9387978974759433  0.8382787400571701  0.6879100370544292  1.0000
  C   C40       1.0  0.4388037360947195  0.6878983597368274  0.8382794957351577  1.0000
  N   N1        1.0  0.19804032706451843  0.13353528969968656  0.6974744586772345  1.0000
  N   N2        1.0  0.6980442515438412  0.6974776093842293  0.1335388514620064  1.0000
  N   N3        1.0  0.8019591025428028  0.8664646589652346  0.3025218313499351  1.0000
  N   N4        1.0  0.30196286741710304  0.30252019843792505  0.8664615139806031  1.0000
  O   O1        1.0  0.1788501153555515  0.9310991550617158  0.9295701799846936  1.0000
  O   O2        1.0  0.6788452595096999  0.9295647757656698  0.9310943074880098  1.0000
  O   O3        1.0  0.821152948938689  0.06890491895387639  0.07042088414416976  1.0000
  O   O4        1.0  0.3211491556947976  0.0704331252441719  0.06890612923574219  1.0000
  O   O5        1.0  0.9947959191281084  0.8203077170346376  0.0238507851639156  1.0000
  O   O6        1.0  0.4947862154859095  0.023851035987775004  0.8203004838264363  1.0000
  O   O7        1.0  0.005205695049397682  0.1796984070875922  0.9761442528537145  1.0000
  O   O8        1.0  0.5052082904629813  0.9761530652069575  0.17969702840446192  1.0000
