data_image0
_chemical_formula_structural       Zn16H24C96S16Br8O68
_chemical_formula_sum              "Zn16 H24 C96 S16 Br8 O68"
_cell_length_a       19.69527717679669
_cell_length_b       19.73165027150846
_cell_length_c       33.40473298856745
_cell_angle_alpha    79.06743454065868
_cell_angle_beta     79.17770045402733
_cell_angle_gamma    63.9375758693859

_space_group_name_H-M_alt    "P 1"
_space_group_IT_number       1

loop_
  _space_group_symop_operation_xyz
  'x, y, z'

loop_
  _atom_site_type_symbol
  _atom_site_label
  _atom_site_symmetry_multiplicity
  _atom_site_fract_x
  _atom_site_fract_y
  _atom_site_fract_z
  _atom_site_occupancy
  Zn  Zn1       1.0  0.055857566775365776  0.40016529756128716  0.4781418162584288  1.0000
  Zn  Zn2       1.0  0.9848981799036306  0.4833236458724035  0.5605520416122972  1.0000
  Zn  Zn3       1.0  0.058575520891864095  0.5609189798010236  0.48172602491655425  1.0000
  Zn  Zn4       1.0  0.9006291068737295  0.5556670181000172  0.4801606118490725  1.0000
  Zn  Zn5       1.0  0.6937610222643683  0.3495204103131756  0.2719982433108683  1.0000
  Zn  Zn6       1.0  0.6905149184964471  0.1881416444251372  0.2665944848272589  1.0000
  Zn  Zn7       1.0  0.7692361242216704  0.2671389947367759  0.19029602381831984  1.0000
  Zn  Zn8       1.0  0.8480043769783377  0.19377471159641868  0.2714456242899033  1.0000
  Zn  Zn9       1.0  0.2659274365926763  0.7658735861473929  0.6894100219321757  1.0000
  Zn  Zn10      1.0  0.34992802871614964  0.6964966185530416  0.7710170502666713  1.0000
  Zn  Zn11      1.0  0.19189459489994928  0.8491006840781882  0.7707134081423349  1.0000
  Zn  Zn12      1.0  0.19184443781939103  0.6886135474344927  0.7682919141189046  1.0000
  Zn  Zn13      1.0  0.5588484048146114  0.06240276275084978  0.9834781318235885  1.0000
  Zn  Zn14      1.0  0.4014576360832577  0.05404325527120339  0.9772440686747501  1.0000
  Zn  Zn15      1.0  0.55826276377649  0.9010341591766463  0.9792836301453818  1.0000
  Zn  Zn16      1.0  0.4801115810443548  0.9835432199786144  0.059715031812089585  1.0000
  H   H1        1.0  0.7496164698007135  0.44950033125714844  0.3493664640990133  1.0000
  H   H2        1.0  0.9993706577822931  0.30201407704134914  0.40061660062469434  1.0000
  H   H3        1.0  0.20077341529916026  0.6998360488506778  0.602096144896052  1.0000
  H   H4        1.0  0.049065566376128786  0.5502826354234572  0.6479061773528798  1.0000
  H   H5        1.0  0.6476147505449105  0.14914407821972042  0.049678837855807956  1.0000
  H   H6        1.0  0.6026466970769562  0.10060770201423003  0.2003782219125867  1.0000
  H   H7        1.0  0.30417365748640884  0.9983933721855114  0.9012077781583232  1.0000
  H   H8        1.0  0.4469589569524927  0.7501694920151966  0.8485999193132231  1.0000
  H   H9        1.0  0.3271997796172527  0.5399393266723183  0.3982198409540914  1.0000
  H   H10       1.0  0.4225347717738969  0.20956643215814813  0.3521577826993223  1.0000
  H   H11       1.0  0.7544886200921254  0.5412356761109649  0.684563492444596  1.0000
  H   H12       1.0  0.4962336724131191  0.7081354358195857  0.5657180128488406  1.0000
  H   H13       1.0  0.04175584080527269  0.2544783736457036  0.6835339557213658  1.0000
  H   H14       1.0  0.20887363331400616  0.9946951313253654  0.5662842851129923  1.0000
  H   H15       1.0  0.7437738343580733  0.8165711945044622  0.38712977854909514  1.0000
  H   H16       1.0  0.004503958249998198  0.9325713737181405  0.3631640772034856  1.0000
  H   H17       1.0  0.7080150854500856  0.4957572768633868  0.06638263212805383  1.0000
  H   H18       1.0  0.5414673006664045  0.7547735218945703  0.18401262427457254  1.0000
  H   H19       1.0  0.14902125682235118  0.07705579487366525  0.2192669401824219  1.0000
  H   H20       1.0  0.10007214442786959  0.17376568803454265  0.030620129526020903  1.0000
  H   H21       1.0  0.5070422493784931  0.4326714886953484  0.86292445737557  1.0000
  H   H22       1.0  0.2448601696469126  0.3181472468138083  0.8867261003045002  1.0000
  H   H23       1.0  0.9219919728172883  0.709880202721635  0.8519292927036375  1.0000
  H   H24       1.0  0.8281879986884916  0.04062320641356379  0.8976927098148906  1.0000
  C   C1        1.0  0.0619750261165137  0.3161483083099413  0.5616739461273922  1.0000
  C   C2        1.0  0.0694139485351499  0.5709365521347892  0.5678985018015652  1.0000
  C   C3        1.0  0.18368775516123037  0.43988354152769193  0.43833734905935273  1.0000
  C   C4        1.0  0.9355741027981777  0.6842193066067352  0.4388366215763284  1.0000
  C   C5        1.0  0.9301879033603913  0.4312530343092079  0.4314203164277756  1.0000
  C   C6        1.0  0.817251710437702  0.5609801585962662  0.562857182291431  1.0000
  C   C7        1.0  0.5660680062566712  0.30960624300193734  0.3112694557664355  1.0000
  C   C8        1.0  0.6833526205438858  0.18003545172297913  0.1804039525434931  1.0000
  C   C9        1.0  0.689641760430426  0.43365491976428694  0.18829658121233447  1.0000
  C   C10       1.0  0.9353610031076798  0.18789364495257402  0.1895226386652169  1.0000
  C   C11       1.0  0.8185136389674951  0.31970293635816194  0.3189830036421952  1.0000
  C   C12       1.0  0.8127609937548568  0.06515433880026934  0.31128861641935407  1.0000
  C   C13       1.0  0.43322256809370424  0.689472066681731  0.6875575317359549  1.0000
  C   C14       1.0  0.31702117097902516  0.8214698404454596  0.8185615490018421  1.0000
  C   C15       1.0  0.18772550031809487  0.9333069859380747  0.6879538097541199  1.0000
  C   C16       1.0  0.065462116498523  0.8096566908299394  0.8113001174784318  1.0000
  C   C17       1.0  0.1805121919880222  0.6791723470981668  0.682068796842195  1.0000
  C   C18       1.0  0.31504626014329057  0.5662908669947556  0.8114224226275866  1.0000
  C   C19       1.0  0.43674669421697837  0.18426613730608216  0.9384149310622121  1.0000
  C   C20       1.0  0.4343211137938496  0.9275288916270841  0.9309522653125484  1.0000
  C   C21       1.0  0.6843320088603234  0.9411786577727526  0.9390864939683965  1.0000
  C   C22       1.0  0.5606638184746444  0.8167419925514354  0.06221983162694758  1.0000
  C   C23       1.0  0.5668262424454724  0.06977187815899555  0.0696616888816166  1.0000
  C   C24       1.0  0.31418968799832203  0.061966812412926245  0.05987844391809459  1.0000
  C   C25       1.0  0.8986492028695777  0.40580962156488476  0.4023823409973204  1.0000
  C   C26       1.0  0.8502483685463246  0.3456096925310917  0.34771330436950626  1.0000
  C   C27       1.0  0.8272671852728732  0.4477111866230176  0.3874755039501352  1.0000
  C   C28       1.0  0.9217546010479365  0.30378551879245946  0.3625230976367391  1.0000
  C   C29       1.0  0.8046843474426666  0.41725681843415463  0.36081108505271686  1.0000
  C   C30       1.0  0.944293030426351  0.33425527632361735  0.38919424419297843  1.0000
  C   C31       1.0  0.099465969388838  0.600365202302143  0.595678119714222  1.0000
  C   C32       1.0  0.15027215692300896  0.6498724302283988  0.654323959150986  1.0000
  C   C33       1.0  0.1429636130310215  0.6431471448357657  0.5828240587825775  1.0000
  C   C34       1.0  0.10679840617658698  0.60706599791191  0.6671864831023484  1.0000
  C   C35       1.0  0.16722712216171937  0.6668303360344441  0.6119465691891578  1.0000
  C   C36       1.0  0.08251442694009369  0.5833944977897687  0.6380583305721502  1.0000
  C   C37       1.0  0.3046513050945804  0.45432382927235443  0.40076926435209265  1.0000
  C   C38       1.0  0.44530243850567075  0.2950911640021162  0.3492888487378352  1.0000
  C   C39       1.0  0.2583153136361957  0.41543478589134974  0.4138576063052426  1.0000
  C   C40       1.0  0.49167265805733956  0.3338835464159475  0.3360681338138746  1.0000
  C   C41       1.0  0.3771981469581717  0.3391888463932419  0.3729403726197305  1.0000
  C   C42       1.0  0.37291853054529867  0.4101986349585902  0.37720067236400473  1.0000
  C   C43       1.0  0.7258971415420987  0.5758993361638434  0.6303024089926269  1.0000
  C   C44       1.0  0.5245597797887029  0.6735588680673246  0.6200366814268321  1.0000
  C   C45       1.0  0.743139672489633  0.5850576908021242  0.5877142938322208  1.0000
  C   C46       1.0  0.5073553005941135  0.6646963364753237  0.6626548707404751  1.0000
  C   C47       1.0  0.604457833235287  0.6410362087495474  0.6083256321809785  1.0000
  C   C48       1.0  0.6460101629671725  0.6082807903043772  0.6420055035791848  1.0000
  C   C49       1.0  0.0767427891417114  0.2254176974781928  0.6294315928982571  1.0000
  C   C50       1.0  0.17392876631168966  0.02399620589795153  0.620332095367452  1.0000
  C   C51       1.0  0.08633100254989048  0.24212856218699852  0.5867713989338269  1.0000
  C   C52       1.0  0.16403635674458167  0.007340992939163027  0.6629569253502368  1.0000
  C   C53       1.0  0.141993989677843  0.10369592002977164  0.6081982752999906  1.0000
  C   C54       1.0  0.1087998183402306  0.14571278441385976  0.6415706904871357  1.0000
  C   C55       1.0  0.8419913724070865  0.8011927290749981  0.39734370845129513  1.0000
  C   C56       1.0  0.9060903074424401  0.9483119486069573  0.3530597709454143  1.0000
  C   C57       1.0  0.9104512943268261  0.7583383062696504  0.41405754031533354  1.0000
  C   C58       1.0  0.8376512992824202  0.991126002654383  0.3362495839358388  1.0000
  C   C59       1.0  0.9075807822572415  0.87883665514007  0.37524190405707003  1.0000
  C   C60       1.0  0.8407095069590723  0.8704535541046642  0.374985727472783  1.0000
  C   C61       1.0  0.655126967854315  0.15310523031153875  0.1504086244846476  1.0000
  C   C62       1.0  0.5952524059062938  0.09652668248408978  0.0996463298393735  1.0000
  C   C63       1.0  0.6676203773846366  0.16674873812047525  0.1072186983918471  1.0000
  C   C64       1.0  0.5827208032330444  0.08293210357157234  0.14283865235601212  1.0000
  C   C65       1.0  0.6379448530675306  0.13861265409109783  0.08297510790315947  1.0000
  C   C66       1.0  0.6124214163069156  0.11103090650986752  0.1670811940757062  1.0000
  C   C67       1.0  0.6740303463929604  0.5245230994805543  0.12055939661657791  1.0000
  C   C68       1.0  0.5754197695250269  0.7258383023396111  0.12987279880738356  1.0000
  C   C69       1.0  0.664601018011858  0.5076907619867939  0.1632144180295825  1.0000
  C   C70       1.0  0.5850582056910199  0.7427073724764884  0.08724379392188548  1.0000
  C   C71       1.0  0.6079759328443542  0.6461207830061043  0.1419115700906844  1.0000
  C   C72       1.0  0.6414844849063499  0.6042561223218573  0.10849686257823521  1.0000
  C   C73       1.0  0.0820881737644541  0.12396928714382231  0.17773634816663283  1.0000
  C   C74       1.0  0.16740842605816647  0.12640395413864527  0.0719035361421945  1.0000
  C   C75       1.0  0.009675236905408698  0.16299680177604617  0.16494727498561457  1.0000
  C   C76       1.0  0.23988274129147408  0.08738609158135091  0.08455138776310629  1.0000
  C   C77       1.0  0.10997201508622818  0.13975547924614776  0.1060242698628286  1.0000
  C   C78       1.0  0.1396561768814877  0.11072747858866457  0.1436552460390246  1.0000
  C   C79       1.0  0.3439433824436192  0.8517786926072619  0.8475313127317463  1.0000
  C   C80       1.0  0.4072689301397218  0.896850866613818  0.9022254473670089  1.0000
  C   C81       1.0  0.3034526946978032  0.9226768990752068  0.8628081242258716  1.0000
  C   C82       1.0  0.44764904404205197  0.8258452046033185  0.8870606516071292  1.0000
  C   C83       1.0  0.3353322902664218  0.9436689252881652  0.8894685904744862  1.0000
  C   C84       1.0  0.41579853105776005  0.8048706786686711  0.8603717742577855  1.0000
  C   C85       1.0  0.40855847897341846  0.44857389853635965  0.852799299057672  1.0000
  C   C86       1.0  0.34353366920139905  0.30187961621610543  0.8967708333896879  1.0000
  C   C87       1.0  0.3402660608150753  0.49181721350819196  0.8359808953424734  1.0000
  C   C88       1.0  0.41181559064273177  0.258623539486294  0.9136621169410405  1.0000
  C   C89       1.0  0.3425010598136993  0.371253773818026  0.8746108710030142  1.0000
  C   C90       1.0  0.40952534348460995  0.37926636357167365  0.8750198931270603  1.0000
  C   C91       1.0  0.9447112096587986  0.7954436441499696  0.8493610495165881  1.0000
  C   C92       1.0  0.8049451748276154  0.9553523203481336  0.9006286988782364  1.0000
  C   C93       1.0  0.991149236739794  0.8341139652980801  0.8360118816289274  1.0000
  C   C94       1.0  0.7583910444163776  0.9168559763588818  0.9140729631400575  1.0000
  C   C95       1.0  0.8727835185581654  0.910885905585673  0.8769426328394374  1.0000
  C   C96       1.0  0.8766617581621858  0.8398918760793777  0.8729420571837424  1.0000
  S   S1        1.0  0.2983619859021331  0.325336368823102  0.39755577260126534  1.0000
  S   S2        1.0  0.45179621242927226  0.4239434009326005  0.3524835497214269  1.0000
  S   S3        1.0  0.6620613440259075  0.6328513412507707  0.5621298972622029  1.0000
  S   S4        1.0  0.5884584081221077  0.6167957249885919  0.6882018444133208  1.0000
  S   S5        1.0  0.134495801882899  0.16065081557614044  0.5617608752479271  1.0000
  S   S6        1.0  0.11601935803280837  0.08875666316649955  0.6880084911656966  1.0000
  S   S7        1.0  0.972840320540136  0.8024749878048215  0.4024824742080639  1.0000
  S   S8        1.0  0.7755221429611436  0.9467178304705686  0.3476530566587144  1.0000
  S   S9        1.0  0.6157668613579261  0.5890146887879197  0.18830049845234956  1.0000
  S   S10       1.0  0.6339351095653001  0.6614289041907643  0.06211279783267539  1.0000
  S   S11       1.0  0.011976702873873498  0.18347342090017807  0.1116317138882792  1.0000
  S   S12       1.0  0.23770475828218443  0.06708436965872988  0.1379162176256088  1.0000
  S   S13       1.0  0.2775994214547097  0.4479537837873693  0.8473158652482553  1.0000
  S   S14       1.0  0.4743068452099023  0.30269013459045624  0.9024455433796987  1.0000
  S   S15       1.0  0.9516378688806455  0.9243614077048933  0.8520538357600316  1.0000
  S   S16       1.0  0.7976816318632273  0.8266368420592805  0.8979069609969912  1.0000
  Br  Br1       1.0  0.7560004450832807  0.545921969207278  0.4006803861335015  1.0000
  Br  Br2       1.0  0.9933138841677688  0.20583678163399108  0.3491399804289799  1.0000
  Br  Br3       1.0  0.17339495270227448  0.6722171397732666  0.5272137183923745  1.0000
  Br  Br4       1.0  0.07671186592021678  0.5775648593495434  0.7227908999381328  1.0000
  Br  Br5       1.0  0.7231522855528069  0.22247811349145524  0.0776727998364208  1.0000
  Br  Br6       1.0  0.5267632276411617  0.027652489700059804  0.17241247715121233  1.0000
  Br  Br7       1.0  0.2056029504489274  0.9957244677814575  0.8497113888199337  1.0000
  Br  Br8       1.0  0.5455818142146285  0.752924345301196  0.9001019391739148  1.0000
  O   O1        1.0  0.0008130439498330985  0.49859683665979304  0.5001243034146443  1.0000
  O   O2        1.0  0.07813641698277249  0.3149153798313762  0.5226302259313016  1.0000
  O   O3        1.0  0.033791911196146905  0.5305833436029276  0.5855404891044813  1.0000
  O   O4        1.0  0.15475863589409758  0.5066318978629881  0.4489891575852809  1.0000
  O   O5        1.0  0.0271679688824094  0.37475091343738864  0.5806293697017608  1.0000
  O   O6        1.0  0.15414346923308384  0.3915719978607726  0.44673991934783436  1.0000
  O   O7        1.0  0.08146148046132849  0.5883860654592894  0.5295136551032584  1.0000
  O   O8        1.0  0.003206073121703001  0.6570972958570779  0.44895659000207633  1.0000
  O   O9        1.0  0.8881201831589606  0.49495312326137536  0.4442956728525901  1.0000
  O   O10       1.0  0.8889399806194475  0.6532561080781678  0.4482011023682092  1.0000
  O   O11       1.0  0.9968490431824504  0.3863843548887121  0.44081323188033394  1.0000
  O   O12       1.0  0.876417036226229  0.5264635110096236  0.5815644974532219  1.0000
  O   O13       1.0  0.815401069952159  0.5773881238698594  0.5238645104019568  1.0000
  O   O14       1.0  0.7486653368851249  0.2506574622044513  0.250432745047803  1.0000
  O   O15       1.0  0.5956186886332516  0.3579296429021639  0.3032657467100393  1.0000
  O   O16       1.0  0.6656763213916931  0.1623395506113568  0.2184729095010667  1.0000
  O   O17       1.0  0.7267243516329742  0.3751704279699055  0.16936332783092917  1.0000
  O   O18       1.0  0.5946763778439105  0.24339324630012982  0.2999474071589745  1.0000
  O   O19       1.0  0.6719274180438645  0.4346302457896415  0.2272834599129254  1.0000
  O   O20       1.0  0.7222022892154313  0.2179254534883271  0.16563874084416597  1.0000
  O   O21       1.0  0.8775881786679136  0.22420102360367622  0.16934230139824547  1.0000
  O   O22       1.0  0.8596904475210464  0.25484312084466887  0.3072988262396308  1.0000
  O   O23       1.0  0.934160960818147  0.17164370801904047  0.22838539058193416  1.0000
  O   O24       1.0  0.752602111693612  0.3651387338325381  0.30872762075712495  1.0000
  O   O25       1.0  0.7463768605759427  0.09149708108834184  0.29956135691476504  1.0000
  O   O26       1.0  0.8588025543329181  0.09679341126025792  0.3033920175812597  1.0000
  O   O27       1.0  0.25045068699392903  0.7501243634457639  0.749843055041687  1.0000
  O   O28       1.0  0.37430705741034126  0.723404273088136  0.6686219362798269  1.0000
  O   O29       1.0  0.36352318085081947  0.7570506752207395  0.8070813438302837  1.0000
  O   O30       1.0  0.17033854235835827  0.9347283533946252  0.7269361916123387  1.0000
  O   O31       1.0  0.4347340700134196  0.6743870569270672  0.7266130308719241  1.0000
  O   O32       1.0  0.2230474394470363  0.8745405965824844  0.6691562215307769  1.0000
  O   O33       1.0  0.25088883730835215  0.8617188084258489  0.8079748905236315  1.0000
  O   O34       1.0  0.09406183507885399  0.8587342993033645  0.8022700649097344  1.0000
  O   O35       1.0  0.1675663399847167  0.6625923287354356  0.720467271058979  1.0000
  O   O36       1.0  0.09521201517512878  0.7425942115946712  0.8010309682712348  1.0000
  O   O37       1.0  0.21711977761959386  0.7185708262888754  0.6643932641280728  1.0000
  O   O38       1.0  0.36075492114635915  0.598354221780227  0.8028115362833788  1.0000
  O   O39       1.0  0.2478270730584312  0.59258571962949  0.8008072374469962  1.0000
  O   O40       1.0  0.4999879042633282  0.0005877469197273374  0.9995784471890801  1.0000
  O   O41       1.0  0.5028946534366269  0.1585114203113633  0.9503706969565044  1.0000
  O   O42       1.0  0.38901327782825484  0.9934182078249099  0.9409171154252362  1.0000
  O   O43       1.0  0.6554845713006114  0.8922714153363247  0.9475443531599198  1.0000
  O   O44       1.0  0.39138889428223667  0.15185878471822892  0.9458571845983387  1.0000
  O   O45       1.0  0.6551943547717582  0.007572950268908847  0.9501942517984291  1.0000
  O   O46       1.0  0.49920636343828306  0.8861590604254134  0.9429075666991267  1.0000
  O   O47       1.0  0.580203499739241  0.815555227430963  0.02334973800377333  1.0000
  O   O48       1.0  0.528099071437019  0.03175703743310281  0.08442124941148421  1.0000
  O   O49       1.0  0.5224338045103778  0.8754093754587088  0.0808863016363475  1.0000
  O   O50       1.0  0.5842576264842946  0.08770000652273788  0.0315909604262217  1.0000
  O   O51       1.0  0.3155905615006559  0.07631685016814063  0.020942760038337813  1.0000
  O   O52       1.0  0.37180330555450775  0.02687461911213521  0.08025575596480651  1.0000
  O   O53       1.0  0.2858225993034509  0.5250074658275568  0.409780365838202  1.0000
  O   O54       1.0  0.4638806378910231  0.2244171327535582  0.34034875722974084  1.0000
  O   O55       1.0  0.7795406422202119  0.5404567904052443  0.6564709374676383  1.0000
  O   O56       1.0  0.4710435012456883  0.7089428092066401  0.5937883080627486  1.0000
  O   O57       1.0  0.04109456140384539  0.27923951835794725  0.6553517357477148  1.0000
  O   O58       1.0  0.20952210911377728  0.9700624051662035  0.5944859205192259  1.0000
  O   O59       1.0  0.7849690215728699  0.7784639343426321  0.402160174838734  1.0000
  O   O60       1.0  0.9630693330389659  0.9710511475890163  0.3484130127257217  1.0000
  O   O61       1.0  0.7097969275854297  0.47086303563711623  0.09455040944892093  1.0000
  O   O62       1.0  0.5395941069438451  0.7795781417787003  0.15583129278327584  1.0000
  O   O63       1.0  0.09437993484864649  0.10220275755141733  0.21766798270989807  1.0000
  O   O64       1.0  0.1547638272583072  0.14819975551937156  0.0320267123158899  1.0000
  O   O65       1.0  0.46567773544675356  0.4711412041364867  0.848140519261257  1.0000
  O   O66       1.0  0.28634054310047213  0.27944590368166916  0.9013562935145033  1.0000
  O   O67       1.0  0.9634667549942147  0.7247018232244432  0.8404710958673435  1.0000
  O   O68       1.0  0.7866871614280055  0.02600244764393989  0.909476693073664  1.0000
