data_image0
_chemical_formula_structural       Nd2H12C10O14
_chemical_formula_sum              "Nd2 H12 C10 O14"
_cell_length_a       6.819709672106769
_cell_length_b       7.643819290915498
_cell_length_c       8.080547157785276
_cell_angle_alpha    101.0691487380831
_cell_angle_beta     103.53113427713713
_cell_angle_gamma    102.48275096603429

_space_group_name_H-M_alt    "P 1"
_space_group_IT_number       1

loop_
  _space_group_symop_operation_xyz
  'x, y, z'

loop_
  _atom_site_type_symbol
  _atom_site_label
  _atom_site_symmetry_multiplicity
  _atom_site_fract_x
  _atom_site_fract_y
  _atom_site_fract_z
  _atom_site_occupancy
  Nd  Nd1       1.0  0.04643111310993219  0.1156008061804812  0.288622558365347  1.0000
  Nd  Nd2       1.0  0.9535697997690415  0.8843975475077954  0.7113723215675022  1.0000
  H   H1        1.0  0.5290169512180825  0.22926645498694137  0.2860896983384507  1.0000
  H   H2        1.0  0.47098325518554396  0.7707346240294227  0.7139080357857351  1.0000
  H   H3        1.0  0.37548100954579405  0.16121784021655833  0.0893783823172356  1.0000
  H   H4        1.0  0.6245172514458233  0.8387818250634566  0.9106199234591941  1.0000
  H   H5        1.0  0.4553159438116551  0.4602977372920307  0.7895411113868462  1.0000
  H   H6        1.0  0.544682173363263  0.5397017635501626  0.21046827275678473  1.0000
  H   H7        1.0  0.5600977526857065  0.3356568478367734  0.6464418589021362  1.0000
  H   H8        1.0  0.4398999479457046  0.6643510579271633  0.3535616254002178  1.0000
  H   H9        1.0  0.8121442621431995  0.5075134485019178  0.948144552198535  1.0000
  H   H10       1.0  0.1878576316998561  0.4924834011988821  0.05185890244664648  1.0000
  H   H11       1.0  0.6713343581691545  0.35435223697665214  0.04459455124832347  1.0000
  H   H12       1.0  0.32866975327618764  0.6456418970831024  0.9554063579464936  1.0000
  C   C1        1.0  0.3399132683644196  0.1724755226417471  0.7432554057509861  1.0000
  C   C2        1.0  0.6600895100283918  0.8275241534285269  0.2567450571780653  1.0000
  C   C3        1.0  0.5181787218894273  0.33943593669996364  0.7696537077832417  1.0000
  C   C4        1.0  0.4818248291957089  0.6605664378437055  0.23035237993750704  1.0000
  C   C5        1.0  0.7104565237414417  0.36631403111729804  0.9223863951367689  1.0000
  C   C6        1.0  0.28954512987058917  0.6336869845026312  0.07761657144715162  1.0000
  C   C7        1.0  0.16114401277171442  0.7668398074406537  0.1157243376157452  1.0000
  C   C8        1.0  0.8388587975803646  0.23315990517135524  0.8842736634539249  1.0000
  C   C9        1.0  0.8796394094181891  0.459935041616795  0.47689859981861094  1.0000
  C   C10       1.0  0.12035428623334347  0.540064558060358  0.5231012415942544  1.0000
  O   O1        1.0  0.19969019324179269  0.10749972781169961  0.5933669381704474  1.0000
  O   O2        1.0  0.8003118946553015  0.89250269185753  0.40663514802025696  1.0000
  O   O3        1.0  0.6815150433042659  0.9037580147106041  0.13240461056710726  1.0000
  O   O4        1.0  0.31848390818306876  0.09623890697045571  0.8675920719476693  1.0000
  O   O5        1.0  0.1625609760695425  0.829510663390664  0.2728002347030766  1.0000
  O   O6        1.0  0.8374364802704904  0.17048626687422802  0.7271949081410298  1.0000
  O   O7        1.0  0.050857014607046815  0.8119949398770955  0.9867983399643021  1.0000
  O   O8        1.0  0.9491464702611124  0.18800201086509105  0.013199268773405527  1.0000
  O   O9        1.0  0.8013703296123039  0.2994012509364198  0.3704634350837138  1.0000
  O   O10       1.0  0.1986251333768222  0.7005942107795204  0.6295359722017011  1.0000
  O   O11       1.0  0.21967898753477033  0.44093863078693113  0.4536951032298333  1.0000
  O   O12       1.0  0.7803147400760363  0.5590610054319638  0.5463022763236507  1.0000
  O   O13       1.0  0.3791289168368904  0.1940226198994495  0.21555244342463445  1.0000
  O   O14       1.0  0.6208682673128575  0.8059784397428303  0.7844446732175924  1.0000
