data_image0
_chemical_formula_structural       Cd4H44C60N28O12
_chemical_formula_sum              "Cd4 H44 C60 N28 O12"
_cell_length_a       8.137662798763355
_cell_length_b       11.080222177
_cell_length_c       17.0407
_cell_angle_alpha    90.0
_cell_angle_beta     94.43415377375182
_cell_angle_gamma    90.0

_space_group_name_H-M_alt    "P 1"
_space_group_IT_number       1

loop_
  _space_group_symop_operation_xyz
  'x, y, z'

loop_
  _atom_site_type_symbol
  _atom_site_label
  _atom_site_symmetry_multiplicity
  _atom_site_fract_x
  _atom_site_fract_y
  _atom_site_fract_z
  _atom_site_occupancy
  Cd  Cd1       1.0  0.7625732818177653  0.6491891484749602  0.1857044006558226  1.0000
  Cd  Cd2       1.0  0.7374281667903233  0.1491874416951049  0.3142930120908289  1.0000
  Cd  Cd3       1.0  0.2374272730732088  0.35080975253985974  0.8142938593399338  1.0000
  Cd  Cd4       1.0  0.2625699230141336  0.8508105568107355  0.6857075042142853  1.0000
  H   H1        1.0  0.385495159866835  0.9025983270227016  0.9671136913290115  1.0000
  H   H2        1.0  0.1145045013070174  0.4025957177338668  0.5328854159158567  1.0000
  H   H3        1.0  0.614506627567394  0.09740598904598842  0.03288520100313261  1.0000
  H   H4        1.0  0.8854960535839567  0.5974049882989121  0.46711284407989956  1.0000
  H   H5        1.0  0.1502014191750121  0.857265301025919  0.1827318844222319  1.0000
  H   H6        1.0  0.3497945443690753  0.3572690092999409  0.31726591264383336  1.0000
  H   H7        1.0  0.849797903172707  0.14273540500685303  0.817266916897843  1.0000
  H   H8        1.0  0.6502010803488645  0.6427280866969198  0.6827304048367466  1.0000
  H   H9        1.0  0.1455855446699488  0.9387781069581679  0.04502310030861881  1.0000
  H   H10       1.0  0.3544116514173936  0.4387809127232104  0.45497591592418735  1.0000
  H   H11       1.0  0.8544162427642874  0.0612216965656245  0.9549769656842244  1.0000
  H   H12       1.0  0.6455852058438012  0.5612188908005891  0.5450204470624201  1.0000
  H   H13       1.0  0.0698223430807161  0.7141607698468065  0.9190367019634922  1.0000
  H   H14       1.0  0.4301773180931434  0.2141608680849103  0.5809588842992568  1.0000
  H   H15       1.0  0.9301819094400372  0.285840838694945  0.0809640418717663  1.0000
  H   H16       1.0  0.5698232367978306  0.7858425454748003  0.4190417230179123  1.0000
  H   H17       1.0  0.2226872882384825  0.59098814946082  0.9775862322202259  1.0000
  H   H18       1.0  0.2773111403921149  0.0909864426809648  0.5224110690275481  1.0000
  H   H19       1.0  0.7773144991957537  0.4090134590809313  0.0224144206029706  1.0000
  H   H20       1.0  0.722686949412342  0.9090151658607867  0.4775900341079193  1.0000
  H   H21       1.0  0.5812587731550991  0.86439692697509  0.906679241881527  1.0000
  H   H22       1.0  0.9187426754529966  0.3643943176862551  0.5933199313561772  1.0000
  H   H23       1.0  0.4187454793656542  0.1356037790576892  0.0933197414626719  1.0000
  H   H24       1.0  0.0812603445245017  0.6356045833285648  0.4066801801426935  1.0000
  H   H25       1.0  0.8469618211336822  0.8305483277314282  0.846704421166166  1.0000
  H   H26       1.0  0.6530383949311513  0.3305457184425933  0.6532947065655108  1.0000
  H   H27       1.0  0.1530448964735882  0.1694532808103304  0.15329524002044081  1.0000
  H   H28       1.0  0.3469646250463398  0.669452280063247  0.3467077522547727  1.0000
  H   H29       1.0  0.3731081001135976  0.4488123000207267  0.20717816528584626  1.0000
  H   H30       1.0  0.1268927936035169  0.9488085917467046  0.29281805331328314  1.0000
  H   H31       1.0  0.6268899896908593  0.5511838934671545  0.7928200036978552  1.0000
  H   H32       1.0  0.8731040636576779  0.0511885042501561  0.707183591146503  1.0000
  H   H33       1.0  0.1033056132554862  0.5213938771004152  0.2524294616171687  1.0000
  H   H34       1.0  0.3966940479183734  0.02139217032056  0.24756729830627933  1.0000
  H   H35       1.0  0.8966924765489708  0.47860321889644564  0.7475704678575852  1.0000
  H   H36       1.0  0.6033040418860836  0.9786031206583417  0.7524343916595344  1.0000
  H   H37       1.0  0.4051061556612439  0.7478992629950767  0.23736833215972555  1.0000
  H   H38       1.0  0.0948935055126157  0.2478993612331806  0.2626290145940757  1.0000
  H   H39       1.0  0.5948943992297302  0.2521014430376951  0.7626305146663839  1.0000
  H   H40       1.0  0.905099654118807  0.7520968322547006  0.7373701460262083  1.0000
  H   H41       1.0  0.4306999164349747  0.48346683978230237  0.0667892077452876  1.0000
  H   H42       1.0  0.0693009772821469  0.9834622289993078  0.433207597684195  1.0000
  H   H43       1.0  0.5692994059127443  0.51653296374149  0.933210767235501  1.0000
  H   H44       1.0  0.9306946474357929  0.0165402820514231  0.566794001269564  1.0000
  C   C1        1.0  0.3863197313071254  0.8676252015916575  0.026824781784306105  1.0000
  C   C2        1.0  0.11367376715043781  0.3676225923028228  0.47317409793041076  1.0000
  C   C3        1.0  0.6136808235838487  0.1323755044411143  0.9731758255328559  1.0000
  C   C4        1.0  0.886320625024247  0.6323781137299491  0.5268256950262611  1.0000
  C   C5        1.0  0.2551352220756726  0.8453070570590242  0.1474521777256186  1.0000
  C   C6        1.0  0.2448582763818905  0.3453098628240597  0.352546115158745  1.0000
  C   C7        1.0  0.7448628677287843  0.1546918439557956  0.8525477517491424  1.0000
  C   C8        1.0  0.7551348832495322  0.6546899406997326  0.6474542191222457  1.0000
  C   C9        1.0  0.2518541919201382  0.8890110543493677  0.0706816072606529  1.0000
  C   C10       1.0  0.24814670179697626  0.38901476262338264  0.42931461133847654  1.0000
  C   C11       1.0  0.7481475955140979  0.11098965168341121  0.9293172850714913  1.0000
  C   C12       1.0  0.7518526205507357  0.6109859434093893  0.5706800821691332  1.0000
  C   C13       1.0  0.520876478895282  0.8019478181985207  0.06053034421690031  1.0000
  C   C14       1.0  0.9791212720830273  0.30194611141866556  0.4394681056723612  1.0000
  C   C15       1.0  0.4791240759956921  0.19805379034323073  0.9394690894395553  1.0000
  C   C16       1.0  0.0208755851781675  0.6980527895961544  0.5605294309749524  1.0000
  C   C17       1.0  0.055453353766957  0.6179912181015439  0.0697470454571985  1.0000
  C   C18       1.0  0.4445463074069025  0.1179886088127162  0.4302503012966028  1.0000
  C   C19       1.0  0.9445496662105342  0.3820103904402075  0.9302524792113189  1.0000
  C   C20       1.0  0.5554517823975544  0.8820102922021036  0.5697513886692108  1.0000
  C   C21       1.0  0.9547329386166297  0.7308553809335763  0.9457698467980009  1.0000
  C   C22       1.0  0.5452611147319075  0.23085186913576194  0.5542272929124721  1.0000
  C   C23       1.0  0.0452725464473787  0.2691471301171546  0.054230355712931604  1.0000
  C   C24       1.0  0.4547357425292873  0.7691479343880304  0.4457731778866076  1.0000
  C   C25       1.0  0.9295348242290515  0.688506049620166  0.021375109864251812  1.0000
  C   C26       1.0  0.5704690894655613  0.1885016353133722  0.47862063340339495  1.0000
  C   C27       1.0  0.0704657306619296  0.3114955589215924  0.9786254974529173  1.0000
  C   C28       1.0  0.4295314654254128  0.8114981682104201  0.5213799739137743  1.0000
  C   C29       1.0  0.6671362247279191  0.7755728958069243  0.016301487367748297  1.0000
  C   C30       1.0  0.8328664564234316  0.2755666764821783  0.4836989050366967  1.0000
  C   C31       1.0  0.3328643301630549  0.2244314202617659  0.9836985331190677  1.0000
  C   C32       1.0  0.1671365635540596  0.7244340295506008  0.5163017932925342  1.0000
  C   C33       1.0  0.2003030701112607  0.5766463792813497  0.0391844628777278  1.0000
  C   C34       1.0  0.2996990561491089  0.07664286748354242  0.4608123880577821  1.0000
  C   C35       1.0  0.7996974847797134  0.4233552292604017  0.9608167312697944  1.0000
  C   C36       1.0  0.7003002661986031  0.923358741058209  0.5391899342444193  1.0000
  C   C37       1.0  0.6811588693858894  0.8159168521698136  0.9390823794019099  1.0000
  C   C38       1.0  0.8188339514193927  0.3159124378630196  0.5609170621239485  1.0000
  C   C39       1.0  0.3188453831348639  0.1840847563719379  0.0609166039422817  1.0000
  C   C40       1.0  0.181161673298547  0.684084658133834  0.43908277633875065  1.0000
  C   C41       1.0  0.8281211648761726  0.7947349664412757  0.9047998281104556  1.0000
  C   C42       1.0  0.6718839813616952  0.2947314546434683  0.5951971343239253  1.0000
  C   C43       1.0  0.1718793900148015  0.2052684471184349  0.09520019237636032  1.0000
  C   C44       1.0  0.3281227362455681  0.7052692513893107  0.40480311369303484  1.0000
  C   C45       1.0  0.2846040988557874  0.4950749102654939  0.1667389642910848  1.0000
  C   C46       1.0  0.2153967948613271  0.9950702994824994  0.33325842796874383  1.0000
  C   C47       1.0  0.7153927584054074  0.5049239907493259  0.8332626801687013  1.0000
  C   C48       1.0  0.7846025274863848  0.0049286015323204  0.6667433075030971  1.0000
  C   C49       1.0  0.13607031071024522  0.536093040835418  0.19226373540895034  1.0000
  C   C50       1.0  0.3639281179203522  0.0360913340555697  0.3077329790084704  1.0000
  C   C51       1.0  0.8639290116374738  0.4639067626883744  0.8077344790807715  1.0000
  C   C52       1.0  0.6360699718841047  0.9639066644502706  0.6922698846180567  1.0000
  C   C53       1.0  0.3949204181686312  0.7829554192521473  0.1774882593491327  1.0000
  C   C54       1.0  0.1050854057215247  0.2829582250171896  0.3225093149348126  1.0000
  C   C55       1.0  0.605081369265605  0.21704438427164524  0.8225094593222977  1.0000
  C   C56       1.0  0.8949139166261944  0.7170406759976303  0.6774883127245559  1.0000
  C   C57       1.0  0.3158971396592634  0.5152405708840888  0.088513774986744  1.0000
  C   C58       1.0  0.1841037540578512  0.015236156577294902  0.4114824436123783  1.0000
  C   C59       1.0  0.6841034152317107  0.4847610376576626  0.9114833113483061  1.0000
  C   C60       1.0  0.8158931032033507  0.9847636469464973  0.5885203745081142  1.0000
  N   N1        1.0  0.6910155178283404  0.5434187062149932  0.34054307704740694  1.0000
  N   N2        1.0  0.8089834656932311  0.0434106818722881  0.1594560051782423  1.0000
  N   N3        1.0  0.3089801068895994  0.45658290232675824  0.659456174584939  1.0000
  N   N4        1.0  0.191017089197743  0.9565873166335523  0.8405451889692799  1.0000
  N   N5        1.0  0.8408188255306825  0.8699681149001961  0.30696222362242054  1.0000
  N   N6        1.0  0.659181390534151  0.3699637005934022  0.19303983826102214  1.0000
  N   N7        1.0  0.1591804968170294  0.1300316886236033  0.6930377513583609  1.0000
  N   N8        1.0  0.340819164356823  0.630034297912438  0.8069601822257937  1.0000
  N   N9        1.0  0.7935150477924253  0.939749206619183  0.352994888256859  1.0000
  N   N10       1.0  0.7064876333589254  0.43975291489319807  0.14700433048687964  1.0000
  N   N11       1.0  0.2064842745552937  0.060247889377677714  0.6470062603846358  1.0000
  N   N12       1.0  0.2935129215320487  0.5602450836126422  0.8529951031695832  1.0000
  N   N13       1.0  0.7889238241525405  0.7125109834338659  0.054587043018514705  1.0000
  N   N14       1.0  0.7110714617392588  0.212506569127072  0.44541131585869215  1.0000
  N   N15       1.0  0.2110791958249507  0.287491527616865  0.9454118948196568  1.0000
  N   N16       1.0  0.2889229304354259  0.7874932343967203  0.554589063928326  1.0000
  N   N17       1.0  0.5238259549141375  0.7610388912150087  0.135264108841433  1.0000
  N   N18       1.0  0.976174261150689  0.2610389894531053  0.3647344320598905  1.0000
  N   N19       1.0  0.4761733674335744  0.2389609123087908  0.8647358661393483  1.0000
  N   N20       1.0  0.0238201310239887  0.7389599115617075  0.6352665345574877  1.0000
  N   N21       1.0  0.0249392803031867  0.5958833581609326  0.14510263945746266  1.0000
  N   N22       1.0  0.4750616134139278  0.09587984636311832  0.3548947528023731  1.0000
  N   N23       1.0  0.9750612745877874  0.4041164453628596  0.8548991415204128  1.0000
  N   N24       1.0  0.5249364763905291  0.9041172496337425  0.6451063503330944  1.0000
  N   N25       1.0  0.8947906623002879  0.8016147923854007  0.2621363878940528  1.0000
  N   N26       1.0  0.6052132513943178  0.3016175981504432  0.2378622895253528  1.0000
  N   N27       1.0  0.105207427504169  0.19838410862941203  0.737862954750348  1.0000
  N   N28       1.0  0.3947860709533941  0.6983813028643766  0.7621388591161349  1.0000
  O   O1        1.0  0.5919079469131034  0.5973869381193353  0.2886271623114283  1.0000
  O   O2        1.0  0.9080898040652059  0.0973843288305005  0.21137070074748013  1.0000
  O   O3        1.0  0.4080901428913535  0.4026119628954775  0.711371006672266  1.0000
  O   O4        1.0  0.0919107508257682  0.9026127671663603  0.7886304934000351  1.0000
  O   O5        1.0  0.6358000449103756  0.5000233669953431  0.4007261203034745  1.0000
  O   O6        1.0  0.8642051013274923  1.8050179591e-06  0.09927788409515163  1.0000
  O   O7        1.0  0.3642042076103778  0.4999854616182376  0.599272276210371  1.0000
  O   O8        1.0  0.1357966861067439  0.999990778434011  0.9007262897101713  1.0000
  O   O9        1.0  0.8426750356787807  0.5373917512556758  0.3281425644895606  1.0000
  O   O10       1.0  0.6573239478427908  0.03738823945786151  0.17185417041466883  1.0000
  O   O11       1.0  0.1573242866689384  0.46261075979505517  0.6718544763394547  1.0000
  O   O12       1.0  0.3426753745049211  0.9626124665749103  0.8281463913964657  1.0000
