data_image0
_chemical_formula_structural       Ag4H40C26N20O8
_chemical_formula_sum              "Ag4 H40 C26 N20 O8"
_cell_length_a       7.152861698279668
_cell_length_b       11.636843629511693
_cell_length_c       12.698150334587993
_cell_angle_alpha    62.82650898717339
_cell_angle_beta     74.25448156484978
_cell_angle_gamma    75.93126906104223

_space_group_name_H-M_alt    "P 1"
_space_group_IT_number       1

loop_
  _space_group_symop_operation_xyz
  'x, y, z'

loop_
  _atom_site_type_symbol
  _atom_site_label
  _atom_site_symmetry_multiplicity
  _atom_site_fract_x
  _atom_site_fract_y
  _atom_site_fract_z
  _atom_site_occupancy
  Ag  Ag1       1.0  0.0328616862489994  0.45916704391345314  0.6735900086220427  1.0000
  Ag  Ag2       1.0  0.9671384951618048  0.5408332054830042  0.32640912061751953  1.0000
  Ag  Ag3       1.0  0.24873547769477258  0.5933761600318448  0.43922606901119116  1.0000
  Ag  Ag4       1.0  0.751263695251438  0.4066221235786997  0.5607732562137927  1.0000
  H   H1        1.0  0.9175969508503952  0.2816983238827008  0.2871455350826508  1.0000
  H   H2        1.0  0.08240176620869019  0.7183019282876159  0.712855388810013  1.0000
  H   H3        1.0  0.000553389160543798  0.1180512409252259  0.3005265005609061  1.0000
  H   H4        1.0  0.9994436528285033  0.8819499834743215  0.6994750521505608  1.0000
  H   H5        1.0  0.7467197273980871  0.1831690180805694  0.3082131646169799  1.0000
  H   H6        1.0  0.25327876516248427  0.8168322154047305  0.6917881655758933  1.0000
  H   H7        1.0  0.544160967768569  0.8003971495333174  0.8179761259678601  1.0000
  H   H8        1.0  0.4558389960338188  0.19960407524831683  0.18202262350465057  1.0000
  H   H9        1.0  0.35760720155341363  0.9341815450065881  0.8203530562736104  1.0000
  H   H10       1.0  0.6423934081841335  0.06581675954933532  0.17964761856730155  1.0000
  H   H11       1.0  0.603805965184314  0.9389802203024832  0.8207601978730776  1.0000
  H   H12       1.0  0.39619175030026793  0.061018060152108  0.17924013593776073  1.0000
  H   H13       1.0  0.8590103263522052  0.9615366043974448  0.5106451548593185  1.0000
  H   H14       1.0  0.1409891884531547  0.0384665830141557  0.48935440721361806  1.0000
  H   H15       1.0  0.6665121144536668  0.8711659749388473  0.611308903959433  1.0000
  H   H16       1.0  0.3334921941732105  0.1288352830298862  0.3886899640245574  1.0000
  H   H17       1.0  0.5946739648435437  0.0237560448169276  0.4033499507183649  1.0000
  H   H18       1.0  0.40532788474720854  0.9762432382801194  0.5966493357696477  1.0000
  H   H19       1.0  0.7879001662738075  0.934216353209223  0.3409535115266991  1.0000
  H   H20       1.0  0.21210290249986483  0.065783926218387  0.6590467448101904  1.0000
  H   H21       1.0  0.4277621372258833  0.8165825015369638  0.5248849461029792  1.0000
  H   H22       1.0  0.5722411353760178  0.18341681436508853  0.4751172621354699  1.0000
  H   H23       1.0  0.4505545636000289  0.8815377903231084  0.3671742255443676  1.0000
  H   H24       1.0  0.5494489335003789  0.11846054426396795  0.6328275763938721  1.0000
  H   H25       1.0  0.17979019153418815  0.19680128302771044  0.8076622912621119  1.0000
  H   H26       1.0  0.820208743133314  0.803197993757436  0.19233901239759638  1.0000
  H   H27       1.0  0.22053279969997414  0.067995941962856  0.9496464557078639  1.0000
  H   H28       1.0  0.7794675993192539  0.9320033320484313  0.050353053298742616  1.0000
  H   H29       1.0  0.6744471756764977  0.5921930054242709  0.9489917106109685  1.0000
  H   H30       1.0  0.32554909612665733  0.4078052600147472  0.05100805965119557  1.0000
  H   H31       1.0  0.7682417038785869  0.5837489025010429  0.8068586776708101  1.0000
  H   H32       1.0  0.2317545541443734  0.41624937479760143  0.19314266472586897  1.0000
  H   H33       1.0  0.6624444637690344  0.46862514608140776  0.173379396263087  1.0000
  H   H34       1.0  0.33755470228707907  0.5313731434589499  0.8266207150291508  1.0000
  H   H35       1.0  0.5366724088184609  0.46793789454186197  0.31586729157068316  1.0000
  H   H36       1.0  0.4633277657022531  0.5320623607844083  0.684132623736133  1.0000
  H   H37       1.0  0.12052404203859608  0.9940635551013061  0.17034013340654047  1.0000
  H   H38       1.0  0.879476567698951  0.005934749454624498  0.8296605414343646  1.0000
  H   H39       1.0  0.1343804199168517  0.8583436156362012  0.31314759131873177  1.0000
  H   H40       1.0  0.8656228733553347  0.1416556824764186  0.6868522587179484  1.0000
  C   C1        1.0  0.04777833995743918  0.23458320623515047  0.9554194064828466  1.0000
  C   C2        1.0  0.952220377101646  0.7654170459351733  0.044581517409817285  1.0000
  C   C3        1.0  0.9181948549129968  0.2567248184557371  0.13137842863962135  1.0000
  C   C4        1.0  0.08180509510920327  0.7432764181855234  0.8686218929674042  1.0000
  C   C5        1.0  0.8497485164472349  0.42323511068301667  0.9544755986153532  1.0000
  C   C6        1.0  0.1502479591841492  0.5767621912304506  0.04552612354837759  1.0000
  C   C7        1.0  0.8963275838868725  0.20597327902128626  0.26477561908578917  1.0000
  C   C8        1.0  0.10367091556379646  0.7940279485342148  0.7352249250398302  1.0000
  C   C9        1.0  0.2948256314217872  0.8282708948574112  0.16459007421535432  1.0000
  C   C10       1.0  0.7051762250590626  0.17172838230982992  0.8354084262053973  1.0000
  C   C11       1.0  0.4507412416877371  0.8134433159992653  0.9881403504481271  1.0000
  C   C12       1.0  0.5492595856582267  0.18655401317148804  0.011860704159822396  1.0000
  C   C13       1.0  0.4901058939658326  0.6384994277139598  0.16657219001596246  1.0000
  C   C14       1.0  0.5098945050533955  0.3614998462973277  0.833427318990644  1.0000
  C   C15       1.0  0.491188439853708  0.8746854759270164  0.853455481892155  1.0000
  C   C16       1.0  0.5088088404140477  0.1253147552979144  0.14654409238458044  1.0000
  C   C17       1.0  0.9150233395832856  0.7584011461561105  0.5485408867737789  1.0000
  C   C18       1.0  0.08498076521536288  0.24160107533816697  0.4514560293086518  1.0000
  C   C19       1.0  0.7760221919577289  0.884475014671615  0.5287208717351746  1.0000
  C   C20       1.0  0.22398066609761705  0.11552623421135172  0.4712782187674094  1.0000
  C   C21       1.0  0.6757757256744196  0.9259096527100613  0.4217150131435047  1.0000
  C   C22       1.0  0.3242258994178257  0.0740906117019691  0.5782846796447174  1.0000
  C   C23       1.0  0.5348681448989507  0.8355767283298691  0.44063339555233944  1.0000
  C   C24       1.0  0.4651322403400824  0.16442255754103743  0.559367685588775  1.0000
  C   C25       1.0  0.639006555118655  0.7059945470444617  0.4394701002242273  1.0000
  C   C26       1.0  0.3609952669117149  0.2940047597718305  0.5605323305328156  1.0000
  N   N1        1.0  0.9640570902935152  0.35674753909974294  0.8899819855942611  1.0000
  N   N2        1.0  0.035940407582657485  0.6432517167400178  0.11001796844952591  1.0000
  N   N3        1.0  0.026389758768729597  0.18003672400998744  0.07818767497387573  1.0000
  N   N4        1.0  0.9736101912534703  0.8199645126312659  0.92181264663315  1.0000
  N   N5        1.0  0.8246844645935453  0.37617810926087003  0.0764767962027122  1.0000
  N   N6        1.0  0.17531157582099854  0.6238211434229444  0.9235241664269224  1.0000
  N   N7        1.0  0.15907101370039814  0.16145977640969988  0.8994047335355972  1.0000
  N   N8        1.0  0.840927927857201  0.8385394944456339  0.10059578405684995  1.0000
  N   N9        1.0  0.7548319137147171  0.5417664410699176  0.8982582763931078  1.0000
  N   N10       1.0  0.24516145694538238  0.4582318061975741  0.10174193890624397  1.0000
  N   N11       1.0  0.36595331780802787  0.7027753814145328  0.23050523723824065  1.0000
  N   N12       1.0  0.6340483141743076  0.2972248770676913  0.7694936694827277  1.0000
  N   N13       1.0  0.33490787547594875  0.8876643592412139  0.042285904673576555  1.0000
  N   N14       1.0  0.6650910729717479  0.11233490568430679  0.9577138268516165  1.0000
  N   N15       1.0  0.5331902539220438  0.6907498268893448  0.04382845563452528  1.0000
  N   N16       1.0  0.466812030885549  0.30924750543735513  0.9561715903875765  1.0000
  N   N17       1.0  0.5766628218091793  0.5174087317560563  0.22452905974783016  1.0000
  N   N18       1.0  0.42333779481846523  0.4825895668700611  0.7754708290258208  1.0000
  N   N19       1.0  0.17882634309357556  0.9000111856356838  0.2213992342457305  1.0000
  N   N20       1.0  0.8211740421454575  0.0999881002352225  0.7786018468953914  1.0000
  O   O1        1.0  0.07999968170380356  0.7653127079285085  0.4776563268787156  1.0000
  O   O2        1.0  0.9200073104577126  0.23468954359691446  0.5223417163010424  1.0000
  O   O3        1.0  0.8539948983920096  0.6542500900695103  0.6333407465852475  1.0000
  O   O4        1.0  0.14601088836678136  0.34575115326573785  0.36665475461111896  1.0000
  O   O5        1.0  0.7913547526154755  0.7105848144241095  0.35810015071356815  1.0000
  O   O6        1.0  0.20864830237800894  0.2894154768631196  0.6419016777578291  1.0000
  O   O7        1.0  0.5678068395591181  0.6031350857668089  0.5176028991317311  1.0000
  O   O8        1.0  0.4321935387898178  0.3968642060339108  0.48239896807664445  1.0000
