data_image0
_chemical_formula_structural       ZnH12C12O8F4
_chemical_formula_sum              "Zn1 H12 C12 O8 F4"
_cell_length_a       5.082494579680886
_cell_length_b       8.815368816704796
_cell_length_c       9.360018263016448
_cell_angle_alpha    116.19964755485593
_cell_angle_beta     95.60638794977149
_cell_angle_gamma    93.72634586911146

_space_group_name_H-M_alt    "P 1"
_space_group_IT_number       1

loop_
  _space_group_symop_operation_xyz
  'x, y, z'

loop_
  _atom_site_type_symbol
  _atom_site_label
  _atom_site_symmetry_multiplicity
  _atom_site_fract_x
  _atom_site_fract_y
  _atom_site_fract_z
  _atom_site_occupancy
  Zn  Zn1       1.0  1.3178660437998141e-06  7.977739215994027e-07  0.5000003099088844  1.0000
  H   H1        1.0  0.6088173129608663  0.19880497460263064  0.3684009406990186  1.0000
  H   H2        1.0  0.39118288879837587  0.8011941745494938  0.6315984403105973  1.0000
  H   H3        1.0  0.6140710548628049  0.07142128641979895  0.15801277967011634  1.0000
  H   H4        1.0  0.3859293773129266  0.9285791363548128  0.84198714510012  1.0000
  H   H5        1.0  0.10212744234402038  0.0782877284772781  0.202355295515467  1.0000
  H   H6        1.0  0.8978712419737392  0.9217139610059064  0.7976450647330467  1.0000
  H   H7        1.0  0.017825912089691094  0.2916451246591762  0.2859709599214498  1.0000
  H   H8        1.0  0.9821762679440126  0.708354031406863  0.7140285293705092  1.0000
  H   H9        1.0  0.5259749534357283  0.9174962327609323  0.3169389685188905  1.0000
  H   H10       1.0  0.47402920615338934  0.08250293254985051  0.6830595617204623  1.0000
  H   H11       1.0  0.08585603264932472  0.29805185239319343  0.5402860078756505  1.0000
  H   H12       1.0  0.9141443995264069  0.7019485703814184  0.45971391689458607  1.0000
  C   C1        1.0  0.196221034407678  0.6725231535895515  0.266005080829231  1.0000
  C   C2        1.0  0.8037793952061492  0.3274772645233739  0.733996978610918  1.0000
  C   C3        1.0  0.3496995934251572  0.5827057398411457  0.12813056800482775  1.0000
  C   C4        1.0  0.6502968809206918  0.417294666774815  0.8718702075356647  1.0000
  C   C5        1.0  0.4809468871656932  0.4437766406463552  0.11528662423847184  1.0000
  C   C6        1.0  0.5190495884611083  0.5562237683004413  0.8847130839670642  1.0000
  C   C7        1.0  0.627922510438097  0.36348159268209207  0.9904269828455342  1.0000
  C   C8        1.0  0.37207594346317313  0.6365188231786121  0.009572833642344842  1.0000
  C   C9        1.0  0.7142906623935302  0.10409346637445079  0.2792801480947062  1.0000
  C   C10       1.0  0.28570954064667126  0.8959056851085168  0.7207181655799461  1.0000
  C   C11       1.0  0.0031210527226833026  0.17210281537286679  0.29614526947615627  1.0000
  C   C12       1.0  0.9968813577275029  0.8278976143156529  0.7038547635764304  1.0000
  O   O1        1.0  0.24482590316499409  0.8359538215892643  0.33780090106486693  1.0000
  O   O2        1.0  0.7551767389826409  0.16404788405257884  0.6621986084133837  1.0000
  O   O3        1.0  0.03568033749821358  0.5839678877253792  0.3008170810863577  1.0000
  O   O4        1.0  0.9643198642610284  0.41603126142674546  0.6991822999232511  1.0000
  O   O5        1.0  0.71077893235163  0.9531464296995369  0.3034021043347296  1.0000
  O   O6        1.0  0.28922324896303314  0.046852728697338406  0.6965963176222729  1.0000
  O   O7        1.0  0.14774695872448262  0.19820560473772997  0.44815244846291336  1.0000
  O   O8        1.0  0.852253473451249  0.801794818036882  0.551847476307323  1.0000
  F   F1        1.0  0.4755416339500727  0.3886956050462302  0.22882839010938485  1.0000
  F   F2        1.0  0.5244546125411986  0.6113035326089147  0.7711697070005599  1.0000
  F   F3        1.0  0.7559461580954832  0.23214073827584517  0.9878129196287446  1.0000
  F   F4        1.0  0.24405206410834526  0.7678584016315285  0.012187420433477364  1.0000
