data_image0
_chemical_formula_structural       Cd4H40C36N8Cl8O12
_chemical_formula_sum              "Cd4 H40 C36 N8 Cl8 O12"
_cell_length_a       6.996995222281039
_cell_length_b       12.690536727011814
_cell_length_c       14.111488202911573
_cell_angle_alpha    90.00013739340504
_cell_angle_beta     94.0668458176649
_cell_angle_gamma    89.99991570495979

_space_group_name_H-M_alt    "P 1"
_space_group_IT_number       1

loop_
  _space_group_symop_operation_xyz
  'x, y, z'

loop_
  _atom_site_type_symbol
  _atom_site_label
  _atom_site_symmetry_multiplicity
  _atom_site_fract_x
  _atom_site_fract_y
  _atom_site_fract_z
  _atom_site_occupancy
  Cd  Cd1       1.0  0.8388121787343366  0.1597284950623603  0.2766538594404225  1.0000
  Cd  Cd2       1.0  0.6611857903938015  0.6597300790888523  0.7233467619054251  1.0000
  Cd  Cd3       1.0  0.16118749584711617  0.8402703223234981  0.7233455519004082  1.0000
  Cd  Cd4       1.0  0.3388081640384542  0.34026952628970253  0.276653876424092  1.0000
  H   H1        1.0  0.4656195262541941  0.777539656735598  0.4723619719154827  1.0000
  H   H2        1.0  0.0343791690022996  0.2775397772222448  0.5276402567843448  1.0000
  H   H3        1.0  0.5343787265227532  0.22246152461886473  0.5276388094202886  1.0000
  H   H4        1.0  0.9656190892648836  0.7224614041331632  0.4723612333817685  1.0000
  H   H5        1.0  0.4839150175840388  0.005146482830106399  0.24468039096647942  1.0000
  H   H6        1.0  0.0160814486045311  0.5051490583155099  0.7553204678440866  1.0000
  H   H7        1.0  0.5160860788000576  0.994851546564611  0.755317650381059  1.0000
  H   H8        1.0  0.983908218461643  0.4948505470664912  0.2446814451415094  1.0000
  H   H9        1.0  0.8679601536329286  0.03445430485720639  0.48022300614214697  1.0000
  H   H10       1.0  0.6320352451865856  0.5344530066962746  0.5197772596861654  1.0000
  H   H11       1.0  0.1320366553804391  0.9655476644846317  0.5197763098655486  1.0000
  H   H12       1.0  0.36795727097511116  0.46554502270438997  0.4802226221431738  1.0000
  H   H13       1.0  0.16949900204157584  0.08257583571613479  0.1511232184312803  1.0000
  H   H14       1.0  0.3305001197764881  0.5825736759278044  0.8488743523697195  1.0000
  H   H15       1.0  0.8305020943388043  0.917425345633525  0.8488748229195339  1.0000
  H   H16       1.0  0.6694966892405959  0.4174251414590914  0.1511249636347003  1.0000
  H   H17       1.0  0.059755752849682195  0.7802326924184227  0.11530591191719  1.0000
  H   H18       1.0  0.44026583312088957  0.2802350085060325  0.8846935409175529  1.0000
  H   H19       1.0  0.9402654134663563  0.21976454898214828  0.8846942144450693  1.0000
  H   H20       1.0  0.5597338414605559  0.7197638088798186  0.11530587042327768  1.0000
  H   H21       1.0  0.008804025329752099  0.8200816863632099  0.9947610522035077  1.0000
  H   H22       1.0  0.49120887002783326  0.32008555933224875  0.005238197384791505  1.0000
  H   H23       1.0  0.9912114043682507  0.17991476704976614  0.0052381746547780035  1.0000
  H   H24       1.0  0.5087879444785557  0.6799140460443238  0.9947618274507946  1.0000
  H   H25       1.0  0.857939355269579  0.8630200002051109  0.0857449210023304  1.0000
  H   H26       1.0  0.6420738843479086  0.36302736612343256  0.9142552292490012  1.0000
  H   H27       1.0  0.14207464714112214  0.1369725132656399  0.9142549670139957  1.0000
  H   H28       1.0  0.357922935648709  0.636972239254085  0.08574550441692709  1.0000
  H   H29       1.0  0.3835195621913954  0.013783436068187898  0.0702238283394934  1.0000
  H   H30       1.0  0.1164797382339131  0.5137785142669669  0.9297757260768336  1.0000
  H   H31       1.0  0.6164844162212617  0.9862201092494585  0.9297764348412016  1.0000
  H   H32       1.0  0.8835170707840942  0.4862195151311893  0.0702235899267762  1.0000
  H   H33       1.0  0.3070183235829873  0.9244230687329985  0.9763147833590438  1.0000
  H   H34       1.0  0.19298715097714583  0.42441777816483023  0.0236830269214607  1.0000
  H   H35       1.0  0.6929899421957514  0.0755804765812087  0.023684205165579897  1.0000
  H   H36       1.0  0.8070082252586843  0.5755802512338448  0.9763162414139401  1.0000
  H   H37       1.0  0.4009180896322491  0.8747430989647712  0.0887210475868514  1.0000
  H   H38       1.0  0.09909036208917851  0.37473867217821777  0.9112760460218041  1.0000
  H   H39       1.0  0.5990916089277434  0.12526123433764977  0.9112779886067983  1.0000
  H   H40       1.0  0.9009050141447971  0.6252609331979356  0.08872322231523101  1.0000
  C   C1        1.0  0.7645333407126953  0.8540037417777525  0.5804715327113784  1.0000
  C   C2        1.0  0.7354641760314494  0.3540026224389763  0.41953020094633336  1.0000
  C   C3        1.0  0.23546490657494704  0.1459966515870335  0.4195285397932338  1.0000
  C   C4        1.0  0.264534082235734  0.6459985589164317  0.5804712892197728  1.0000
  C   C5        1.0  0.6785525390397565  0.8996802085656552  0.48779843820316426  1.0000
  C   C6        1.0  0.8214448645614141  0.3996792658409448  0.5122026814884464  1.0000
  C   C7        1.0  0.321448568321088  0.10032097278588739  0.5122010208083267  1.0000
  C   C8        1.0  0.17855196092451564  0.600321127526243  0.4877987610086408  1.0000
  C   C9        1.0  0.5247986368133652  0.8470173447280586  0.44024567192953173  1.0000
  C   C10       1.0  0.9751988909052896  0.3470171912022407  0.559755338389003  1.0000
  C   C11       1.0  0.4752024705474795  0.1529838366234841  0.5597537870819593  1.0000
  C   C12       1.0  0.024797923599244598  0.6529839901518031  0.4402446864482172  1.0000
  C   C13       1.0  0.4520052579935482  0.8851370011559894  0.3528308234992892  1.0000
  C   C14       1.0  0.04799030712798919  0.3851366407965528  0.6471701156685796  1.0000
  C   C15       1.0  0.547994422075348  0.11486418019701718  0.6471692966743346  1.0000
  C   C16       1.0  0.9520050691050557  0.6148637525683326  0.3528291526692797  1.0000
  C   C17       1.0  0.5353748572727071  0.9732104158596184  0.3134917924069854  1.0000
  C   C18       1.0  0.9646223730284548  0.47320982044784177  0.6865094799976319  1.0000
  C   C19       1.0  0.4646262445997634  0.0267891895135079  0.6865069577725365  1.0000
  C   C20       1.0  0.0353730251683118  0.5267882089546061  0.3134926236591369  1.0000
  C   C21       1.0  0.7510236626867693  0.9892720779533517  0.4454131711819258  1.0000
  C   C22       1.0  0.7489763898319666  0.48927288315854855  0.5545875210881803  1.0000
  C   C23       1.0  0.24897601189189797  0.010729103398709597  0.5545862401613633  1.0000
  C   C24       1.0  0.2510204356530323  0.510728298197378  0.4454139214097239  1.0000
  C   C25       1.0  0.0633864526321872  0.0185840855332629  0.1389855842139696  1.0000
  C   C26       1.0  0.4366156800780274  0.518582659505334  0.8610112401913526  1.0000
  C   C27       1.0  0.9366175038232496  0.9814163078256753  0.8610118436420963  1.0000
  C   C28       1.0  0.5633811344292924  0.4814161578825064  0.1389887846434164  1.0000
  C   C29       1.0  0.005015253826414298  0.8452157204348365  0.069158870532334  1.0000
  C   C30       1.0  0.4949990205682083  0.3452181147461033  0.9308411877530816  1.0000
  C   C31       1.0  0.9950016196333065  0.15478152096823553  0.9308418216556547  1.0000
  C   C32       1.0  0.5049977884488754  0.6547807026407924  0.0691581282513454  1.0000
  C   C33       1.0  0.31452789001884435  0.9377695782876427  0.053415680056751604  1.0000
  C   C34       1.0  0.18547899684532604  0.4377667510240286  0.9465836232741508  1.0000
  C   C35       1.0  0.6854789429777098  0.0622339670270833  0.9465832607996701  1.0000
  C   C36       1.0  0.8145206887147367  0.5622336423411766  0.05341720572899789  1.0000
  N   N1        1.0  0.6823858060968888  0.023719449293196207  0.3595209002660624  1.0000
  N   N2        1.0  0.8176096290014669  0.5237198971271012  0.6404807609298544  1.0000
  N   N3        1.0  0.3176110029174097  0.9762817320599098  0.640478415740816  1.0000
  N   N4        1.0  0.18238290362907608  0.4762797082538555  0.359521247392145  1.0000
  N   N5        1.0  0.1228531525343968  0.9383859083291881  0.0869844848824428  1.0000
  N   N6        1.0  0.3771523000924971  0.4383851993329839  0.9130147720624961  1.0000
  N   N7        1.0  0.8771551242303842  0.06161290905448169  0.913015921297955  1.0000
  N   N8        1.0  0.6228430706530971  0.5616128300647601  0.08698378744256272  1.0000
  Cl  Cl1       1.0  0.26211589344519126  0.8219702447190611  0.29214858150968587  1.0000
  Cl  Cl2       1.0  0.23788269160358763  0.3219714670328245  0.7078530306374661  1.0000
  Cl  Cl3       1.0  0.7378880904632722  0.17802857266711664  0.7078523904964412  1.0000
  Cl  Cl4       1.0  0.7621112628277443  0.6780289263344628  0.2921476076928684  1.0000
  Cl  Cl5       1.0  0.5117856651052292  0.2024437848137239  0.17371979555662162  1.0000
  Cl  Cl6       1.0  0.9882150579342407  0.7024445881936997  0.8262795921782242  1.0000
  Cl  Cl7       1.0  0.4882125821833441  0.7975558205623301  0.8262802769471662  1.0000
  Cl  Cl8       1.0  0.0117831838650275  0.2975542291926772  0.1737197714944045  1.0000
  O   O1        1.0  0.8862670435194318  0.9081622239959516  0.6300536632576764  1.0000
  O   O2        1.0  0.6137232036314088  0.40816107193563766  0.36995077986044583  1.0000
  O   O3        1.0  0.11373120925751577  0.0918389573585117  0.3699471180780947  1.0000
  O   O4        1.0  0.38626649088593706  0.5918385334510674  0.6300546772768527  1.0000
  O   O5        1.0  0.7058980361409651  0.761541189584548  0.5971687190566827  1.0000
  O   O6        1.0  0.7940996820519287  0.261540765954706  0.4028306960780768  1.0000
  O   O7        1.0  0.2941002166350585  0.23846077975865398  0.4028320622799058  1.0000
  O   O8        1.0  0.20589712147121017  0.738461203386194  0.5971679110992767  1.0000
  O   O9        1.0  0.9003693783594356  0.02292087652033809  0.17075339878812912  1.0000
  O   O10       1.0  0.5996331895878909  0.5229235806891949  0.8292442461105693  1.0000
  O   O11       1.0  0.09963601637213058  0.9770763648840769  0.8292447855632048  1.0000
  O   O12       1.0  0.4003636249194286  0.47707523669864565  0.17075577872419964  1.0000
