data_image0
_chemical_formula_structural       Cu4H20C28Br4N8
_chemical_formula_sum              "Cu4 H20 C28 Br4 N8"
_cell_length_a       9.21331632947148
_cell_length_b       9.9303448463585
_cell_length_c       9.930453318913376
_cell_angle_alpha    114.73917492493617
_cell_angle_beta     102.01769061618867
_cell_angle_gamma    102.01709965473724

_space_group_name_H-M_alt    "P 1"
_space_group_IT_number       1

loop_
  _space_group_symop_operation_xyz
  'x, y, z'

loop_
  _atom_site_type_symbol
  _atom_site_label
  _atom_site_symmetry_multiplicity
  _atom_site_fract_x
  _atom_site_fract_y
  _atom_site_fract_z
  _atom_site_occupancy
  Cu  Cu1       1.0  0.8754601207018949  0.818026491269883  0.13466337599936634  1.0000
  Cu  Cu2       1.0  0.3754621149033213  0.13466643886049212  0.818026889994421  1.0000
  Cu  Cu3       1.0  0.12454075844058107  0.18197108721331287  0.8653315246543016  1.0000
  Cu  Cu4       1.0  0.6245417614439573  0.8653335226136462  0.18197461645821994  1.0000
  H   H1        1.0  0.6908181241916864  0.5518323663682523  0.1882640130342565  1.0000
  H   H2        1.0  0.1908174030385155  0.1882636126610251  0.5518324469911491  1.0000
  H   H3        1.0  0.3091820301879977  0.4481664393521925  0.8117372920956073  1.0000
  H   H4        1.0  0.8091817195135036  0.8117387278703063  0.44817010943277324  1.0000
  H   H5        1.0  0.7595585086362248  0.3434197426731984  0.24183452894819618  1.0000
  H   H6        1.0  0.25955816704254886  0.24183583329946862  0.34342223758064705  1.0000
  H   H7        1.0  0.24044165521365096  0.6565790233457207  0.7581617265366917  1.0000
  H   H8        1.0  0.7404427007357057  0.758161792825554  0.6565787226469908  1.0000
  H   H9        1.0  0.027377197112045303  0.3221801847326802  0.25297926219002426  1.0000
  H   H10       1.0  0.5273780872542558  0.25298015593155293  0.32218319521717836  1.0000
  H   H11       1.0  0.9726229686318674  0.6778185733459311  0.7470159833658699  1.0000
  H   H12       1.0  0.4726223836604931  0.7470163025137212  0.6778182134498537  1.0000
  H   H13       1.0  0.2175327159721903  0.5115020785540239  0.2154234669035874  1.0000
  H   H14       1.0  0.7175331757561167  0.2154239174891828  0.5115031246493089  1.0000
  H   H15       1.0  0.7824656988633832  0.4885014177518058  0.7845764046355725  1.0000
  H   H16       1.0  0.2824651492808243  0.7845761035632535  0.488502348511368  1.0000
  H   H17       1.0  0.11552612317814939  0.9859716566776695  0.018894491360938903  1.0000
  H   H18       1.0  0.6155256373316362  0.018896673970345997  0.9859709300789564  1.0000
  H   H19       1.0  0.8844759351906076  0.0140294724866266  0.9811051235485523  1.0000
  H   H20       1.0  0.3844764096728994  0.9811045028357841  0.014034744404504878  1.0000
  C   C1        1.0  0.8092179617590745  0.5445782774500786  0.20437413459161752  1.0000
  C   C2        1.0  0.3092175819094222  0.20437401921616064  0.5445779098932917  1.0000
  C   C3        1.0  0.19077918594562251  0.45541818498094955  0.7956256143842497  1.0000
  C   C4        1.0  0.6907811475671721  0.7956271377548063  0.4554230751120301  1.0000
  C   C5        1.0  0.8469398003046678  0.4271501765073822  0.23072636672127803  1.0000
  C   C6        1.0  0.34694037816022666  0.23072765494730868  0.42715268537534007  1.0000
  C   C7        1.0  0.15306217962969274  0.57284742976168  0.7692727902357606  1.0000
  C   C8        1.0  0.6530620751779992  0.7692746498370513  0.5728474910237652  1.0000
  C   C9        1.0  0.99713936051657  0.4168462987902402  0.2385194877860712  1.0000
  C   C10       1.0  0.49713944381971226  0.23852193484769663  0.416849012476689  1.0000
  C   C11       1.0  0.0028619079132638954  0.5831524791339362  0.7614790041441992  1.0000
  C   C12       1.0  0.5028614986048652  0.761479230053176  0.5831544255613891  1.0000
  C   C13       1.0  0.1041186561522309  0.5242043009693161  0.22104498197533928  1.0000
  C   C14       1.0  0.6041187910019162  0.2210461361115534  0.5242052221137783  1.0000
  C   C15       1.0  0.8958800752184004  0.4757968480613429  0.7789549931009818  1.0000
  C   C16       1.0  0.39588254639213005  0.7789562044093755  0.47579877741391396  1.0000
  C   C17       1.0  0.06227178035763368  0.6467167379450205  0.206884833983736  1.0000
  C   C18       1.0  0.5622723617021492  0.20688596077908264  0.6467158756164153  1.0000
  C   C19       1.0  0.9377269529070418  0.3532844031453378  0.7931141311635914  1.0000
  C   C20       1.0  0.4377256543758818  0.7931163757872993  0.35328545429112523  1.0000
  C   C21       1.0  0.16692013305218006  0.7675243628490234  0.1894920351205512  1.0000
  C   C22       1.0  0.666920548404306  0.1894925279176505  0.767522932885349  1.0000
  C   C23       1.0  0.8330789186415898  0.23247442302585597  0.8105060236349433  1.0000
  C   C24       1.0  0.3330792837582095  0.8105086488988816  0.23248129849434204  1.0000
  C   C25       1.0  0.17340869993022073  0.9248893612013162  0.06976093937299765  1.0000
  C   C26       1.0  0.6734109460926446  0.0697616084234483  0.9248863453823262  1.0000
  C   C27       1.0  0.8265904283039163  0.0751129555090984  0.9302385872639364  1.0000
  C   C28       1.0  0.32659332711813954  0.9302395207304456  0.07511471263093475  1.0000
  Br  Br1       1.0  0.8789666098605623  0.0813278972979674  0.3079459971023368  1.0000
  Br  Br2       1.0  0.378964755437437  0.3079434583978369  0.08132256141577446  1.0000
  Br  Br3       1.0  0.1210323520345824  0.9186674133235115  0.6920576632746818  1.0000
  Br  Br4       1.0  0.6210328827174649  0.6920576310857315  0.9186691176412012  1.0000
  N   N1        1.0  0.9153872397608964  0.6552124623079436  0.19764240587556264  1.0000
  N   N2        1.0  0.4153880807197439  0.19764324658103763  0.6552121861871429  1.0000
  N   N3        1.0  0.08460919833331099  0.3447851638378836  0.8023556681445356  1.0000
  N   N4        1.0  0.5846099391463611  0.8023590741047356  0.3447871238624032  1.0000
  N   N5        1.0  0.09191274391710634  0.8378485808392923  0.11943558959345069  1.0000
  N   N6        1.0  0.5919148604187114  0.11943652151343542  0.8378485677773571  1.0000
  N   N7        1.0  0.9080840929346435  0.1621502050459895  0.8805610260582741  1.0000
  N   N8        1.0  0.4080879018784315  0.8805634677569714  0.16215575187488443  1.0000
