data_image0
_chemical_formula_structural       Ag2P2H40C42O6
_chemical_formula_sum              "Ag2 P2 H40 C42 O6"
_cell_length_a       7.822887440663909
_cell_length_b       10.99575195048792
_cell_length_c       10.9956045251487
_cell_angle_alpha    84.83484396484685
_cell_angle_beta     87.59978106013065
_cell_angle_gamma    87.59952877661033

_space_group_name_H-M_alt    "P 1"
_space_group_IT_number       1

loop_
  _space_group_symop_operation_xyz
  'x, y, z'

loop_
  _atom_site_type_symbol
  _atom_site_label
  _atom_site_symmetry_multiplicity
  _atom_site_fract_x
  _atom_site_fract_y
  _atom_site_fract_z
  _atom_site_occupancy
  Ag  Ag1       1.0  0.42242601103369287  0.8448870315261984  0.6269796742024882  1.0000
  Ag  Ag2       1.0  0.922421786833269  0.6269860216912663  0.8448878145779024  1.0000
  P   P1        1.0  0.5331775854453725  0.03720956371503091  0.6137941258479389  1.0000
  P   P2        1.0  0.033183132804786915  0.613791480778346  0.03720756043132673  1.0000
  H   H1        1.0  0.5157934680108127  0.4200763308365795  0.726438262096082  1.0000
  H   H2        1.0  0.015789562544355804  0.7264469626677582  0.42007387386031086  1.0000
  H   H3        1.0  0.7173464944640318  0.4522429366478775  0.6513531324262946  1.0000
  H   H4        1.0  0.2173444517718437  0.6513614941835401  0.45223599372971546  1.0000
  H   H5        1.0  0.5630805375313982  0.5344025568968719  0.9561322898572019  1.0000
  H   H6        1.0  0.0630774538638263  0.9561381676511261  0.5344020925578834  1.0000
  H   H7        1.0  0.692459201949653  0.41016118691864994  0.022352695455992912  1.0000
  H   H8        1.0  0.19245596641541604  0.022355846192390103  0.41015787326293934  1.0000
  H   H9        1.0  0.506778131534411  0.38001701633272933  0.9406572167639314  1.0000
  H   H10       1.0  0.006774413698543906  0.940660652807928  0.3800149779093333  1.0000
  H   H11       1.0  0.5340477654209936  0.9551630350580995  0.37212917751229935  1.0000
  H   H12       1.0  0.03404934285641302  0.372130841349275  0.9551567321447936  1.0000
  H   H13       1.0  0.6938612045828522  0.016456333385484405  0.17722978996596347  1.0000
  H   H14       1.0  0.1938581111667759  0.17723111969296212  0.016455410075799606  1.0000
  H   H15       1.0  0.9119660960561974  0.176883771273296  0.1713045116965476  1.0000
  H   H16       1.0  0.41197274267602796  0.1713068881564368  0.1768797405044823  1.0000
  H   H17       1.0  0.9764542010455348  0.2693167570320086  0.361061048272589  1.0000
  H   H18       1.0  0.47646634268368626  0.36106291577335276  0.2693085057963601  1.0000
  H   H19       1.0  0.82033317843635  0.2062884917580873  0.5561357983725446  1.0000
  H   H20       1.0  0.32034783840295245  0.5561357918621539  0.20627751897555419  1.0000
  H   H21       1.0  0.5087072575020603  0.2950280665512608  0.4976888259621931  1.0000
  H   H22       1.0  0.008727156981620998  0.4976799550149594  0.2950414276872381  1.0000
  H   H23       1.0  0.29073844926620757  0.4615249863764959  0.521305678083593  1.0000
  H   H24       1.0  0.7907500794166539  0.5212998679447767  0.461532602246841  1.0000
  H   H25       1.0  0.03289082405331101  0.42697766707492957  0.6558353302337638  1.0000
  H   H26       1.0  0.532900915963069  0.6558252523824918  0.4269772679651569  1.0000
  H   H27       1.0  0.9909554832348707  0.22093523711883026  0.7683113907378358  1.0000
  H   H28       1.0  0.4909790513438781  0.7683055173738182  0.22093299802283195  1.0000
  H   H29       1.0  0.20893405986731756  0.05303781448635191  0.7448017832266915  1.0000
  H   H30       1.0  0.7089657533901178  0.744793275633974  0.05304167740705881  1.0000
  H   H31       1.0  0.541964339127354  0.20640103293683862  0.8138571641143105  1.0000
  H   H32       1.0  0.04194901594855342  0.8138649803105127  0.20639612899838522  1.0000
  H   H33       1.0  0.7237191502059305  0.19979009096738315  0.9936111680224262  1.0000
  H   H34       1.0  0.22371172147381913  0.9936135654202336  0.19978538119865877  1.0000
  H   H35       1.0  0.9583014349859554  0.03929762672566991  0.022436696762689213  1.0000
  H   H36       1.0  0.4583005379152142  0.022429816162919305  0.03929772326257112  1.0000
  H   H37       1.0  0.012711779436806086  0.8891493852409131  0.8666377904896624  1.0000
  H   H38       1.0  0.512711915879713  0.8666278124065696  0.8891495687169813  1.0000
  H   H39       1.0  0.8275506770050002  0.89232528359004  0.6914997224503882  1.0000
  H   H40       1.0  0.32755079815493815  0.691491765262171  0.892331595798105  1.0000
  C   C1        1.0  0.5788655459854867  0.6098254604310541  0.7111218952198191  1.0000
  C   C2        1.0  0.07886709184074193  0.7111244155206435  0.6098237150832164  1.0000
  C   C3        1.0  0.6314287665865806  0.4736089435833933  0.7288461800213571  1.0000
  C   C4        1.0  0.13142824264999584  0.7288527241385623  0.4736064272524916  1.0000
  C   C5        1.0  0.6140617190038643  0.44128787343177595  0.9443958411208445  1.0000
  C   C6        1.0  0.1140577880652742  0.9444009740018732  0.4412864903436715  1.0000
  C   C7        1.0  0.6628177548968779  0.07958433712321522  0.4758617393509754  1.0000
  C   C8        1.0  0.16283102222381982  0.47586217782652795  0.07957586144924994  1.0000
  C   C9        1.0  0.6292265425162074  0.025457295574163704  0.3689466027860534  1.0000
  C   C10       1.0  0.12923396198972634  0.36894888159189787  0.02545179949554211  1.0000
  C   C11       1.0  0.7185756365181889  0.060297060253063306  0.259609359623795  1.0000
  C   C12       1.0  0.21857935386417893  0.25961088856680453  0.060291268803219104  1.0000
  C   C13       1.0  0.8414355871182978  0.14937320397960013  0.2562689610852687  1.0000
  C   C14       1.0  0.34144577528837067  0.2562709585047145  0.14936703396828935  1.0000
  C   C15       1.0  0.877772181498827  0.20189263442091496  0.36297722394428444  1.0000
  C   C16       1.0  0.3777858849667411  0.36297659065345306  0.20188452624746844  1.0000
  C   C17       1.0  0.7895152356910703  0.16672348007172388  0.4726348449362593  1.0000
  C   C18       1.0  0.2895314579495152  0.4726335938561876  0.16671492644395877  1.0000
  C   C19       1.0  0.3750194125061485  0.1632934158377708  0.6213106158465964  1.0000
  C   C20       1.0  0.875040671894432  0.6212983791200771  0.1633025459564409  1.0000
  C   C21       1.0  0.39520425464754544  0.27802765964300147  0.5567234529303138  1.0000
  C   C22       1.0  0.8952179973968201  0.5567143649015095  0.2780352616653944  1.0000
  C   C23       1.0  0.2710436874272304  0.37156743712427004  0.5688696537510796  1.0000
  C   C24       1.0  0.7710603579375434  0.5688603706731641  0.37157675889302794  1.0000
  C   C25       1.0  0.1260994005773242  0.3517746063932705  0.645493589965675  1.0000
  C   C26       1.0  0.6261109943559904  0.6454871269733716  0.351775182484616  1.0000
  C   C27       1.0  0.10444960550177033  0.23713606681950952  0.7090580531807834  1.0000
  C   C28       1.0  0.6044725154335994  0.70904908452453  0.23713979140781313  1.0000
  C   C29       1.0  0.2274569811025416  0.14304749493955882  0.6965858335400201  1.0000
  C   C30       1.0  0.7274761573302727  0.6965786031114904  0.14305128646268636  1.0000
  C   C31       1.0  0.6734589575756335  0.05082791161219549  0.7396675705308697  1.0000
  C   C32       1.0  0.17345576159188172  0.7396657090182899  0.05083010710528415  1.0000
  C   C33       1.0  0.6450527181453581  0.13704038940897334  0.825433967530721  1.0000
  C   C34       1.0  0.14504440922206638  0.8254359536817689  0.137038025706275  1.0000
  C   C35       1.0  0.7473899634459685  0.13275686098849354  0.9270300080711144  1.0000
  C   C36       1.0  0.24738350215696422  0.9270288860355508  0.13275490212579658  1.0000
  C   C37       1.0  0.8788215120302713  0.04360300714261461  0.9430112774689623  1.0000
  C   C38       1.0  0.37882038044182326  0.9430044799754074  0.0436029399555977  1.0000
  C   C39       1.0  0.9095941331706148  0.9586572186853388  0.8564547099559269  1.0000
  C   C40       1.0  0.4095959135928454  0.8564472090239548  0.9586583753285685  1.0000
  C   C41       1.0  0.8068163872637515  0.9617585414643628  0.7559070243384983  1.0000
  C   C42       1.0  0.3068167365559304  0.7559004195374257  0.9617630354701425  1.0000
  O   O1        1.0  0.4733324131097092  0.6386216055763115  0.6271913219530065  1.0000
  O   O2        1.0  0.9733463630805945  0.6271856235384803  0.638618929713026  1.0000
  O   O3        1.0  0.6398296459310234  0.6840684762359929  0.777923299895861  1.0000
  O   O4        1.0  0.1398157537021731  0.7779300697647147  0.6840661947393303  1.0000
  O   O5        1.0  0.722816232961428  0.4381666588972806  0.8365505756748138  1.0000
  O   O6        1.0  0.22281264150738891  0.8365554170698318  0.43816578678397644  1.0000
