data_image0
_chemical_formula_structural       Cd6H48C36N28
_chemical_formula_sum              "Cd6 H48 C36 N28"
_cell_length_a       8.819685649441533
_cell_length_b       11.34926997639156
_cell_length_c       13.179181493013674
_cell_angle_alpha    90.00014615364556
_cell_angle_beta     89.99988835181352
_cell_angle_gamma    105.10148107979951

_space_group_name_H-M_alt    "P 1"
_space_group_IT_number       1

loop_
  _space_group_symop_operation_xyz
  'x, y, z'

loop_
  _atom_site_type_symbol
  _atom_site_label
  _atom_site_symmetry_multiplicity
  _atom_site_fract_x
  _atom_site_fract_y
  _atom_site_fract_z
  _atom_site_occupancy
  Cd  Cd1       1.0  0.5265454291212424  0.7943545544823254  0.2152832422774154  1.0000
  Cd  Cd2       1.0  0.4734572983108265  0.7056470005269305  0.715281605699893  1.0000
  Cd  Cd3       1.0  0.4734534697594271  0.20564712778485722  0.7847170852872125  1.0000
  Cd  Cd4       1.0  0.5265461374466869  0.29435468642788726  0.28471872186177904  1.0000
  Cd  Cd5       1.0  1.611317302145087e-07  0.5000003255889923  0.9999996752076968  1.0000
  Cd  Cd6       1.0  6.225117913999999e-07  6.406780315000002e-07  0.49999994335792763  1.0000
  H   H1        1.0  0.8197972169441741  0.6314843198948736  0.8199638234247005  1.0000
  H   H2        1.0  0.18020324848773586  0.868514763829829  0.31996379882272663  1.0000
  H   H3        1.0  0.18020303685896272  0.36851462682589914  0.180036504136055  1.0000
  H   H4        1.0  0.819795041383074  0.13148509317623078  0.6800357699678444  1.0000
  H   H5        1.0  0.6622823008707855  0.5489560067241683  0.8977023511977791  1.0000
  H   H6        1.0  0.3377188351590519  0.9510423643974731  0.3977007837794987  1.0000
  H   H7        1.0  0.33771764842625634  0.45104202736749954  0.1022987351346387  1.0000
  H   H8        1.0  0.6622794547125396  0.048957492607620216  0.6022980262386142  1.0000
  H   H9        1.0  0.8366801396355542  0.6921871981422143  0.1346352789620013  1.0000
  H   H10       1.0  0.16332192315464075  0.8078150620265208  0.6346342714952654  1.0000
  H   H11       1.0  0.16332041867290312  0.3078126612086295  0.8653650485995499  1.0000
  H   H12       1.0  0.8366786351545841  0.19218479732335683  0.3653652972938276  1.0000
  H   H13       1.0  0.6723077421299594  0.5847901228799657  0.08086182318927371  1.0000
  H   H14       1.0  0.32769412622001687  0.9152110871048933  0.5808608359252858  1.0000
  H   H15       1.0  0.3276931206830369  0.4152106491019295  0.9191392631455388  1.0000
  H   H16       1.0  0.6723052978700039  0.0847887710730788  0.4191387328645462  1.0000
  H   H17       1.0  0.7365910142913992  0.9593847752076387  0.027597881824981102  1.0000
  H   H18       1.0  0.2634098288615761  0.5406162973548592  0.5275969173660471  1.0000
  H   H19       1.0  0.2634092395125123  0.04061417151216771  0.972401686963309  1.0000
  H   H20       1.0  0.7365910339537507  0.459384474624123  0.4724018926513836  1.0000
  H   H21       1.0  0.8745852872040131  0.9093893328067182  0.1043346723860807  1.0000
  H   H22       1.0  0.12541539888150768  0.590611936050763  0.6043339977792926  1.0000
  H   H23       1.0  0.1254152711052186  0.09061052654315921  0.8956648964030054  1.0000
  H   H24       1.0  0.8745846342199287  0.40938974738638484  0.3956648122396801  1.0000
  H   H25       1.0  0.8578203685857775  0.8459104032334893  0.791749838006048  1.0000
  H   H26       1.0  0.14217819066269752  0.654089518604863  0.2917493937251265  1.0000
  H   H27       1.0  0.14217761677894467  0.15408854114346582  0.20825048955618541  1.0000
  H   H28       1.0  0.8578204037134399  0.345911251031275  0.7082501750662402  1.0000
  H   H29       1.0  0.7278789799017249  0.9239835465016172  0.8484932894902997  1.0000
  H   H30       1.0  0.2721185496869509  0.5760137825972294  0.34849250441971696  1.0000
  H   H31       1.0  0.2721187009576767  0.07601448524526691  0.1515070380711379  1.0000
  H   H32       1.0  0.7278811789083903  0.423986988210821  0.651507064370918  1.0000
  H   H33       1.0  0.4879984065046942  0.6544367591010456  0.976692311505147  1.0000
  H   H34       1.0  0.5120017381319358  0.8455627255374267  0.4766910441049888  1.0000
  H   H35       1.0  0.5120015427931293  0.3455612749896559  0.023308016054812704  1.0000
  H   H36       1.0  0.48799829496950053  0.15443895789972834  0.5233077659139768  1.0000
  H   H37       1.0  0.5144542656237832  0.8134487182309869  0.9546827554243081  1.0000
  H   H38       1.0  0.4855456195568877  0.6865497974769853  0.4546819332966977  1.0000
  H   H39       1.0  0.4855456836740331  0.1865493158597076  0.04531757213564451  1.0000
  H   H40       1.0  0.5144541090392353  0.31345097333009164  0.545316876721472  1.0000
  H   H41       1.0  0.04723665660868901  0.8025096546085139  0.028396389370364306  1.0000
  H   H42       1.0  0.9527653191265487  0.6974914211716623  0.5283979021716405  1.0000
  H   H43       1.0  0.9527653404258489  0.19749111854238072  0.9716024206463203  1.0000
  H   H44       1.0  0.047232970743486605  0.30250843583537085  0.4716024253913886  1.0000
  H   H45       1.0  0.041313649934203174  0.7764598619213389  0.8945017451029074  1.0000
  H   H46       1.0  0.9586858332164071  0.7235403239325889  0.3945026616980912  1.0000
  H   H47       1.0  0.9586857741565994  0.22353999625565998  0.1054970649144593  1.0000
  H   H48       1.0  0.041313590873613706  0.27645953424538305  0.605496907091741  1.0000
  C   C1        1.0  0.7490098954408568  0.6371625034244135  0.8874885549274298  1.0000
  C   C2        1.0  0.2509892975579789  0.8628367518610889  0.3874907016691295  1.0000
  C   C3        1.0  0.25098808992618876  0.3628364409496286  0.1125094963174149  1.0000
  C   C4        1.0  0.7490070283774061  0.13716401543413784  0.6125111434411112  1.0000
  C   C5        1.0  0.7594677969856747  0.6721960500623824  0.0680067388167487  1.0000
  C   C6        1.0  0.24053326796188657  0.8278060384978969  0.5680064329400168  1.0000
  C   C7        1.0  0.24053276132277554  0.3278038092884685  0.9319935887448099  1.0000
  C   C8        1.0  0.7594656309203459  0.1721956437673455  0.4319923770796948  1.0000
  C   C9        1.0  0.7978385290129354  0.8872866554513267  0.0376606032775797  1.0000
  C   C10       1.0  0.2021605503117173  0.6127126164220443  0.5376613942626066  1.0000
  C   C11       1.0  0.20216059057177205  0.11271229009656741  0.9623389655114495  1.0000
  C   C12       1.0  0.7978397034914197  0.3872863302987213  0.46233893329814196  1.0000
  C   C13       1.0  0.7884252664529825  0.8519960060949642  0.8596448500065251  1.0000
  C   C14       1.0  0.2115757267690129  0.6480050043952448  0.35964506045120004  1.0000
  C   C15       1.0  0.2115755963623442  0.1480047658840249  0.1403539600109056  1.0000
  C   C16       1.0  0.788424001827103  0.3519957664118324  0.6403537495669696  1.0000
  C   C17       1.0  0.5759063967441733  0.7417905463687048  0.9650816134257383  1.0000
  C   C18       1.0  0.4240923329331281  0.7582079947672257  0.46508026973074124  1.0000
  C   C19       1.0  0.42409241833365735  0.25820748655105064  0.0349194729074185  1.0000
  C   C20       1.0  0.5759062614437839  0.2417927748679389  0.5349185402881602  1.0000
  C   C21       1.0  0.9703881817084011  0.7830963214314649  0.9616320211540952  1.0000
  C   C22       1.0  0.029613736982014475  0.7169049511168596  0.4616326203158395  1.0000
  C   C23       1.0  0.029612681106144092  0.21690445054849047  0.038367547635793614  1.0000
  C   C24       1.0  0.9703868213272174  0.2830949082330179  0.5383669484732536  1.0000
  C   C25       1.0  0.5234931030844266  0.49487939842054374  0.29853694865891367  1.0000
  C   C26       1.0  0.47650761005933634  0.005122452308967201  0.7985333515869754  1.0000
  C   C27       1.0  0.47651290561525883  0.5051232035101096  0.701464896447007  1.0000
  C   C28       1.0  0.5234884113652924  0.994877402362981  0.20147380492970512  1.0000
  C   C29       1.0  0.23478113129379355  0.6314965650651558  0.8008727319146942  1.0000
  C   C30       1.0  0.7652173254807337  0.8684997307599716  0.3008711836821902  1.0000
  C   C31       1.0  0.7652176837809322  0.36850146785847937  0.1991313895083096  1.0000
  C   C32       1.0  0.2347840625408395  0.13149921713367974  0.6991299026502844  1.0000
  C   C33       1.0  0.6959109273196306  0.30295566546745073  0.8731299725233158  1.0000
  C   C34       1.0  0.30408728090053944  0.19704272438550416  0.3731301693691124  1.0000
  C   C35       1.0  0.3040876670580488  0.6970451041667474  0.1268680787231347  1.0000
  C   C36       1.0  0.695911922486232  0.8029598705107902  0.6268693994238606  1.0000
  N   N1        1.0  0.6778223656813012  0.7697659222042789  0.055924965053805  1.0000
  N   N2        1.0  0.3221781149845099  0.7302343101909228  0.5559250976213477  1.0000
  N   N3        1.0  0.32217705840871963  0.23023393597369332  0.9440746037360274  1.0000
  N   N4        1.0  0.6778216136108314  0.2697664606171202  0.4440744711692873  1.0000
  N   N5        1.0  0.8546996612909865  0.6619016003830823  0.9772846812629441  1.0000
  N   N6        1.0  0.14530305507564384  0.8380988007461384  0.47728463570597063  1.0000
  N   N7        1.0  0.14530316545588562  0.33809826131158627  0.0227156462971294  1.0000
  N   N8        1.0  0.8546963690136025  0.16190105743280012  0.5227156918563197  1.0000
  N   N9        1.0  0.6671233020853152  0.7337751038512507  0.8725712475806378  1.0000
  N   N10       1.0  0.3328775808771597  0.7662222903557563  0.3725707994555023  1.0000
  N   N11       1.0  0.3328774769256172  0.26622201878224433  0.1274298387502384  1.0000
  N   N12       1.0  0.6671210134989779  0.23377847928038162  0.6274287693358644  1.0000
  N   N13       1.0  0.8918149339171535  0.8802807190171719  0.9476419322168967  1.0000
  N   N14       1.0  0.10818587918893029  0.6197205165728191  0.447642974685536  1.0000
  N   N15       1.0  0.1081856243928527  0.119719140331739  0.0523568777997312  1.0000
  N   N16       1.0  0.8918149836248404  0.3802802554081097  0.5523573528768182  1.0000
  N   N17       1.0  0.8120942015889699  0.3581896479540206  0.9119897299447643  1.0000
  N   N18       1.0  0.18790536581715864  0.1418097551042123  0.4119891990018445  1.0000
  N   N19       1.0  0.18790749093869155  0.6418102125687355  0.08801059761604793  1.0000
  N   N20       1.0  0.8120954969973937  0.8581910168757433  0.5880103697880443  1.0000
  N   N21       1.0  0.5355879067147882  0.5975154979299476  0.27861168821610965  1.0000
  N   N22       1.0  0.4644112046345797  0.9024825662114824  0.7786104943511704  1.0000
  N   N23       1.0  0.46441348130677806  0.4024834499636967  0.721389398116365  1.0000
  N   N24       1.0  0.5355877780473791  0.097522765405067  0.2213905919898664  1.0000
  N   N25       1.0  0.1314939213181817  0.5762796713871554  0.8518189984694333  1.0000
  N   N26       1.0  0.8685145022450482  0.9237231513794836  0.3518219887112721  1.0000
  N   N27       1.0  0.8685169287698714  0.42372384785344513  0.14817677645462624  1.0000
  N   N28       1.0  0.13148522634951834  0.0762776194295256  0.648178338851821  1.0000
