data_image0
_chemical_formula_structural       Mg6H36C54N6O24
_chemical_formula_sum              "Mg6 H36 C54 N6 O24"
_cell_length_a       6.860303467729261
_cell_length_b       28.84521616143364
_cell_length_c       28.84092619289658
_cell_angle_alpha    119.39457159491845
_cell_angle_beta     94.54282571146906
_cell_angle_gamma    94.53522730847142

_space_group_name_H-M_alt    "P 1"
_space_group_IT_number       1

loop_
  _space_group_symop_operation_xyz
  'x, y, z'

loop_
  _atom_site_type_symbol
  _atom_site_label
  _atom_site_symmetry_multiplicity
  _atom_site_fract_x
  _atom_site_fract_y
  _atom_site_fract_z
  _atom_site_occupancy
  Mg  Mg1       1.0  0.41062758387226245  0.6796303653078082  0.30523004461318237  1.0000
  Mg  Mg2       1.0  0.6447666723944893  0.3242438015256184  0.6975747841223667  1.0000
  Mg  Mg3       1.0  0.10532898720874337  0.694671553420676  0.37447571616396413  1.0000
  Mg  Mg4       1.0  0.9472316855151705  0.30250863096441793  0.626504080829264  1.0000
  Mg  Mg5       1.0  0.7310795212448584  0.6254574202387956  0.3202482920248145  1.0000
  Mg  Mg6       1.0  0.32057315252169616  0.3736213220097183  0.6759096752495212  1.0000
  H   H1        1.0  0.6330775274751872  0.037393821417253996  0.4824165425774113  1.0000
  H   H2        1.0  0.874161768080704  0.1689131159846937  0.5936750732887361  1.0000
  H   H3        1.0  0.1674311925875429  0.15360692661555217  0.528556771319316  1.0000
  H   H4        1.0  0.340786103727048  0.07276223982692188  0.48804112324402393  1.0000
  H   H5        1.0  0.9776458960781298  0.0036617293883907  0.46090870370431963  1.0000
  H   H6        1.0  0.81323762035872  0.9730237240373114  0.48421097141122976  1.0000
  H   H7        1.0  0.07413640840436411  0.9884160118792523  0.5581198751844172  1.0000
  H   H8        1.0  0.23452316552277352  0.025900526653437304  0.5407557829086613  1.0000
  H   H9        1.0  0.4054870085693098  0.9542993904183491  0.5427509459535431  1.0000
  H   H10       1.0  0.1827783272429642  0.8309257826673926  0.420609373162236  1.0000
  H   H11       1.0  0.8864237838600321  0.8401977783088129  0.48373462587329646  1.0000
  H   H12       1.0  0.7131867066172719  0.9202817514111529  0.5315137025205702  1.0000
  H   H13       1.0  0.1508262688642149  0.5177234043770512  0.5549694843801235  1.0000
  H   H14       1.0  0.2801154479851179  0.4064705952377778  0.5752424133934612  1.0000
  H   H15       1.0  0.6384221278379627  0.4716079566216109  0.6249577879301783  1.0000
  H   H16       1.0  0.8525488169493158  0.5121296751610416  0.5847106846433335  1.0000
  H   H17       1.0  0.5170244482860866  0.5391540968328385  0.5427632495398171  1.0000
  H   H18       1.0  0.3296132682453319  0.5157773110208267  0.48872934404364804  1.0000
  H   H19       1.0  0.5169354846693752  0.4418345195087667  0.43038368099614394  1.0000
  H   H20       1.0  0.6945308039493343  0.45933419961634314  0.48532043860731033  1.0000
  H   H21       1.0  0.8637382826005578  0.4572034187025054  0.4116710720352685  1.0000
  H   H22       1.0  0.7626019258520673  0.5791919544094739  0.41028836971437965  1.0000
  H   H23       1.0  0.4034080539201527  0.5162440548405343  0.3564871695442592  1.0000
  H   H24       1.0  0.18266924594782102  0.46842926027753146  0.38877849429810857  1.0000
  H   H25       1.0  0.5957030248188248  0.4448817186421932  0.9626643155140755  1.0000
  H   H26       1.0  0.7049169541606021  0.4246945952794121  0.8311336316416488  1.0000
  H   H27       1.0  0.013520545934490326  0.375037195943456  0.8464999326652248  1.0000
  H   H28       1.0  0.26783648870017635  0.4151612175259203  0.927282687404322  1.0000
  H   H29       1.0  0.9739670847861747  0.4572704410693476  0.9964438814546314  1.0000
  H   H30       1.0  0.8405474342121408  0.511328679651953  0.02705413113214652  1.0000
  H   H31       1.0  0.08628114181986045  0.5695856188365127  0.011421986219851073  1.0000
  H   H32       1.0  0.2088486549446601  0.5146244121117789  0.9739548833390544  1.0000
  H   H33       1.0  0.4516729037478128  0.5883726809668345  0.04561524469721683  1.0000
  H   H34       1.0  0.35228584544584873  0.5895777300036541  0.16896908908685043  1.0000
  H   H35       1.0  0.046583555237283754  0.6434432741996332  0.1597433611848658  1.0000
  H   H36       1.0  0.7934187883188671  0.611188608032478  0.07966948227745273  1.0000
  C   C1        1.0  0.884307190098447  0.059523726952910694  0.5353925954216194  1.0000
  C   C2        1.0  0.6186934059338471  0.1157605625032403  0.5391180777583173  1.0000
  C   C3        1.0  0.7199094209180927  0.16518819605899177  0.5788983298854121  1.0000
  C   C4        1.0  0.6248606628489172  0.2114477786585311  0.6010184652134498  1.0000
  C   C5        1.0  0.41955662767966834  0.20669893196354389  0.5829187277174981  1.0000
  C   C6        1.0  0.3229135643375757  0.1562572701340983  0.5420243223419378  1.0000
  C   C7        1.0  0.41875812131011264  0.11138472328011767  0.5197729464291144  1.0000
  C   C8        1.0  0.3036883684790511  0.251850079571355  0.6047155084644658  1.0000
  C   C9        1.0  0.9402423796223758  0.004598156478969899  0.4977949943979354  1.0000
  C   C10       1.0  0.11403428986168518  0.9920569268796413  0.5236899137024764  1.0000
  C   C11       1.0  0.1850644937355881  0.9404650171808836  0.48344584896629766  1.0000
  C   C12       1.0  0.4367888460248468  0.8807743504598592  0.4782785424877505  1.0000
  C   C13       1.0  0.33659645155469786  0.8334269817266885  0.4349487699225066  1.0000
  C   C14       1.0  0.4309528912971317  0.7874673424688721  0.4086175427050875  1.0000
  C   C15       1.0  0.6355866733483568  0.7905892648192888  0.4262045070696772  1.0000
  C   C16       1.0  0.7316091682317422  0.8389092883185612  0.470678902341426  1.0000
  C   C17       1.0  0.6357886742880865  0.8833702568469874  0.4970487645152275  1.0000
  C   C18       1.0  0.7505448830826679  0.7456357282911767  0.4005080414150514  1.0000
  C   C19       1.0  0.34909547551853143  0.46471079858780223  0.5241884003423182  1.0000
  C   C20       1.0  0.07937123594311403  0.4610478094939126  0.5766328727630211  1.0000
  C   C21       1.0  0.14064242319052775  0.4212649959571095  0.5862745450321115  1.0000
  C   C22       1.0  0.02337450235726379  0.3991522291034642  0.6103814240585593  1.0000
  C   C23       1.0  0.836117383844197  0.4172336923963511  0.6236909745805903  1.0000
  C   C24       1.0  0.7804919831660088  0.45815000147733537  0.614187454826471  1.0000
  C   C25       1.0  0.8987720719985931  0.4804116358606478  0.5916151601770778  1.0000
  C   C26       1.0  0.6986587642948692  0.39540548786995783  0.6470118363391109  1.0000
  C   C27       1.0  0.442895053953528  0.5022401572263675  0.5068199455914809  1.0000
  C   C28       1.0  0.5910870248121398  0.47631807009236843  0.4684475672946817  1.0000
  C   C29       1.0  0.7022969566490005  0.5165097220725912  0.45704401505193465  1.0000
  C   C30       1.0  0.9592512461993297  0.5216080663897742  0.4024982376067357  1.0000
  C   C31       1.0  0.9021413701505668  0.5648917407483792  0.398445521392226  1.0000
  C   C32       1.0  0.02264475410459011  0.5912556710308793  0.37884418771820805  1.0000
  C   C33       1.0  0.20978410326404173  0.5737186174942507  0.3644088975496302  1.0000
  C   C34       1.0  0.261591845726528  0.5292713006211471  0.36825600716557727  1.0000
  C   C35       1.0  0.13961709206213868  0.5028929791150246  0.38635745683505723  1.0000
  C   C36       1.0  0.35038010624845856  0.5994546317637983  0.34521128992356154  1.0000
  C   C37       1.0  0.824654755726968  0.47575276832410657  0.94050208163862  1.0000
  C   C38       1.0  0.5027869635040574  0.42326874862420993  0.8843110373732657  1.0000
  C   C39       1.0  0.5544186344350522  0.41368169530598903  0.8348866157596576  1.0000
  C   C40       1.0  0.41303789957120773  0.38967420986109147  0.788663789477937  1.0000
  C   C41       1.0  0.21249424459628596  0.3763712264340242  0.7934326591838713  1.0000
  C   C42       1.0  0.16637478297854363  0.3858052594257371  0.8438403990350877  1.0000
  C   C43       1.0  0.3072116490385284  0.408301290777807  0.8886709306827427  1.0000
  C   C44       1.0  0.0516286562786235  0.3531321791462501  0.7482922692026791  1.0000
  C   C45       1.0  0.9357564002280513  0.4931836011176641  0.9954276895068264  1.0000
  C   C46       1.0  0.1223586468432743  0.5315226760093452  0.007845077201146489  1.0000
  C   C47       1.0  0.24501084276506202  0.5429176547477895  0.05944804049390483  1.0000
  C   C48       1.0  0.556440535727731  0.5974127775315238  0.11913544402674592  1.0000
  C   C49       1.0  0.5035622116588456  0.6014177369447679  0.16647798377550768  1.0000
  C   C50       1.0  0.6437922024349235  0.6210261876519424  0.212437185306655  1.0000
  C   C51       1.0  0.8452874676603274  0.6354780266291868  0.2093208999407495  1.0000
  C   C52       1.0  0.8930428801607138  0.6316911376406223  0.16103272111932648  1.0000
  C   C53       1.0  0.752866510138773  0.6136154667006153  0.11657119032010861  1.0000
  C   C54       1.0  0.005067184825563276  0.6547155441793819  0.25426851025548564  1.0000
  N   N1        1.0  0.7095443500151859  0.06896489838971581  0.5163999100449246  1.0000
  N   N2        1.0  0.3425711755435047  0.9266505072271657  0.5048689892132644  1.0000
  N   N3        1.0  0.1931637010441278  0.48373821203742295  0.5525752170897392  1.0000
  N   N4        1.0  0.8385759241504973  0.4950644963502527  0.42184252904788644  1.0000
  N   N5        1.0  0.6405543423641974  0.4472797042164274  0.9310823984385481  1.0000
  N   N6        1.0  0.41633835907157396  0.5781525189755782  0.07326281940905228  1.0000
  O   O1        1.0  0.9310797447783301  0.7496489340838081  0.4180974707438097  1.0000
  O   O2        1.0  0.6642620178332521  0.7015980438672286  0.35874047487407523  1.0000
  O   O3        1.0  0.3217517819838991  0.7429534270023268  0.36853859291233704  1.0000
  O   O4        1.0  0.12248484523726694  0.2461288275489935  0.5866109915366238  1.0000
  O   O5        1.0  0.3897934551186637  0.2978879113053665  0.643669268929756  1.0000
  O   O6        1.0  0.7339686379666971  0.25777383112847463  0.6379832458585498  1.0000
  O   O7        1.0  0.987308653747256  0.0922517141543864  0.5779512562664095  1.0000
  O   O8        1.0  0.10901394314361572  0.9136970077902117  0.43622296416166506  1.0000
  O   O9        1.0  0.5134462617574158  0.5819066762583558  0.33169282777861747  1.0000
  O   O10       1.0  0.30562133141798864  0.6411800054483905  0.3428978169867988  1.0000
  O   O11       1.0  0.9533736965991862  0.631324697221622  0.3744221156893985  1.0000
  O   O12       1.0  0.5356209805905863  0.41353392385416027  0.6594785920844757  1.0000
  O   O13       1.0  0.745907837632039  0.356400959956616  0.6539907868422574  1.0000
  O   O14       1.0  0.09559228625172278  0.36219451405708725  0.6197343625956648  1.0000
  O   O15       1.0  0.4093843651961322  0.42215702428647717  0.514404967606886  1.0000
  O   O16       1.0  0.6731458840082214  0.5637072550655517  0.47742167482496717  1.0000
  O   O17       1.0  0.1815943230366203  0.6682481385259604  0.2502349227744458  1.0000
  O   O18       1.0  0.9626657411707742  0.6570625236180945  0.29832770690980237  1.0000
  O   O19       1.0  0.5789552703823163  0.625434627924271  0.25693097683712546  1.0000
  O   O20       1.0  0.8760924724109458  0.3407653887143312  0.7539835727025661  1.0000
  O   O21       1.0  0.09186259490542888  0.3461064292904155  0.7022820388731362  1.0000
  O   O22       1.0  0.47590022033774915  0.3803973875896887  0.7423582955146344  1.0000
  O   O23       1.0  0.8946639336848536  0.4855909909064096  0.90775494849607  1.0000
  O   O24       1.0  0.19577782419435158  0.522489025426367  0.08623410401922636  1.0000
