data_image0
_chemical_formula_structural       Cu4H36C48S4N16O4
_chemical_formula_sum              "Cu4 H36 C48 S4 N16 O4"
_cell_length_a       7.040486041
_cell_length_b       9.901583551
_cell_length_c       18.555
_cell_angle_alpha    90.0
_cell_angle_beta     90.0
_cell_angle_gamma    90.0

_space_group_name_H-M_alt    "P 1"
_space_group_IT_number       1

loop_
  _space_group_symop_operation_xyz
  'x, y, z'

loop_
  _atom_site_type_symbol
  _atom_site_label
  _atom_site_symmetry_multiplicity
  _atom_site_fract_x
  _atom_site_fract_y
  _atom_site_fract_z
  _atom_site_occupancy
  Cu  Cu1       1.0  0.2961542694435693  0.0799690267644166  0.11924440851522179  1.0000
  Cu  Cu2       1.0  0.7961609422073153  0.9200255649087553  0.8807609808676914  1.0000
  Cu  Cu3       1.0  0.2961627915824749  0.5799839965416425  0.3807647534357343  1.0000
  Cu  Cu4       1.0  0.7961538404248927  0.42001463488938373  0.6192374023174381  1.0000
  H   H1        1.0  0.6168125289519324  0.298099792300583  0.0976416060361061  1.0000
  H   H2        1.0  0.11679449333631452  0.7018867198568586  0.9023567771490164  1.0000
  H   H3        1.0  0.6168011661000605  0.7981087024410272  0.4023583939638939  1.0000
  H   H4        1.0  0.1167888119103822  0.2018919488689406  0.5976437617892785  1.0000
  H   H5        1.0  0.7894398153242508  0.4563845749242432  0.1794157908919445  1.0000
  H   H6        1.0  0.289426040778082  0.543605976991067  0.8205820533548902  1.0000
  H   H7        1.0  0.78944549675019  0.95638439560949  0.3205831312314729  1.0000
  H   H8        1.0  0.2894331425605046  0.0436192855188651  0.6794184855833976  1.0000
  H   H9        1.0  0.7085206860649436  0.45627348158302544  0.3113958501751526  1.0000
  H   H10       1.0  0.2085125929447145  0.5437241399085408  0.6886014551333872  1.0000
  H   H11       1.0  0.7085320489168225  0.9562682525709434  0.18860307194826478  1.0000
  H   H12       1.0  0.2085154336576878  0.0437303788600829  0.8113996227431954  1.0000
  H   H13       1.0  0.4600378412993749  0.2971342901714848  0.3557413096200506  1.0000
  H   H14       1.0  0.9600260494288193  0.7028572716832926  0.6442576125033668  1.0000
  H   H15       1.0  0.4600406820123411  0.7971381506145931  0.1442586903799494  1.0000
  H   H16       1.0  0.9600260494288193  0.2028625006953675  0.8557434653732159  1.0000
  H   H17       1.0  0.2053665033322929  0.932704344959781  0.3767809215844764  1.0000
  H   H18       1.0  0.7053504503922952  0.0672952964107125  0.6232201562921063  1.0000
  H   H19       1.0  0.2053594015498703  0.4327065441534614  0.12321800053894089  1.0000
  H   H20       1.0  0.7053603928876842  0.5672961270354264  0.8767776879547283  1.0000
  H   H21       1.0  0.0216860028002159  0.9610200177565532  0.49067744543249603  1.0000
  H   H22       1.0  0.5216713702166942  0.0389816434928747  0.509322554567504  1.0000
  H   H23       1.0  0.0216746399483441  0.4610242368291679  0.0093220156292091  1.0000
  H   H24       1.0  0.5216770516426337  0.538985503935983  0.9906769064942081  1.0000
  H   H25       1.0  0.8616521593356268  0.1872619657703893  0.5148752357855031  1.0000
  H   H26       1.0  0.3616383847894653  0.8127386855395713  0.4851226084613316  1.0000
  H   H27       1.0  0.8616379557707887  0.6872658262134976  0.9851253031527917  1.0000
  H   H28       1.0  0.3616383847894653  0.3127459344305876  0.0148752357855031  1.0000
  H   H29       1.0  0.902761537056783  0.3709335967405991  0.4249172729722446  1.0000
  H   H30       1.0  0.40274634215413846  0.6290660446298943  0.5750789544597126  1.0000
  H   H31       1.0  0.9027473334919449  0.8709374571837146  0.0750854217192156  1.0000
  H   H32       1.0  0.4027562846495272  0.1290682438235748  0.92492212341687  1.0000
  H   H33       1.0  0.0670422464090237  0.8732168905575506  0.2003217461600642  1.0000
  H   H34       1.0  0.5670361359644076  0.1267766911761541  0.7996755591484757  1.0000
  H   H35       1.0  0.0670422464090237  0.3732190897512311  0.2996734033953103  1.0000
  H   H36       1.0  0.5670318748949583  0.626777521800868  0.700325518728107  1.0000
  C   C1        1.0  0.46229620810919414  0.9093626240310471  0.9978183777957454  1.0000
  C   C2        1.0  0.9623128233683289  0.0906602459471557  0.0021805443276719  1.0000
  C   C3        1.0  0.462294787752711  0.4093345250407623  0.5021864726488801  1.0000
  C   C4        1.0  0.9623028808729401  0.5906681461481327  0.49781406628940766  1.0000
  C   C5        1.0  0.5824484241740748  0.3031727182362474  0.1548585286984618  1.0000
  C   C6        1.0  0.0824318089149401  0.6968148038606614  0.845138776610078  1.0000
  C   C7        1.0  0.5824413223916524  0.8031806184372244  0.3451403934249555  1.0000
  C   C8        1.0  0.08242754784548371  0.1968220527516706  0.6548606844516272  1.0000
  C   C9        1.0  0.6794843384591829  0.3904749154603167  0.2006343303691693  1.0000
  C   C10       1.0  0.1794705639130143  0.6095196762128481  0.7993651306925358  1.0000
  C   C11       1.0  0.6794829181026998  0.8904747361455633  0.2993662085691184  1.0000
  C   C12       1.0  0.17947624533895382  0.10952692510386439  0.7006359471840468  1.0000
  C   C13       1.0  0.6357004294783479  0.3890044435984166  0.2740258690379918  1.0000
  C   C14       1.0  0.1356923363581188  0.6109871182563538  0.7259703583939654  1.0000
  C   C15       1.0  0.6357075312607634  0.8890052742231305  0.2259714362705481  1.0000
  C   C16       1.0  0.135695177071085  0.1110004267841589  0.7740301805443294  1.0000
  C   C17       1.0  0.49665605181760253  0.3007316945479133  0.2987981676098102  1.0000
  C   C18       1.0  0.9966414192340878  0.6992628971252515  0.7012018323901898  1.0000
  C   C19       1.0  0.4966503703916629  0.8007325251726272  0.2012034492050674  1.0000
  C   C20       1.0  0.996644259947054  0.1992661062583991  0.7987997844246806  1.0000
  C   C21       1.0  0.400141408362181  0.219245738706185  0.2492541094044753  1.0000
  C   C22       1.0  0.9001281961351424  0.7807427933301909  0.7507437348423593  1.0000
  C   C23       1.0  0.4001371472927246  0.7192526289676948  0.250744812718942  1.0000
  C   C24       1.0  0.9001239350656931  0.280749032281733  0.7492562651576405  1.0000
  C   C25       1.0  0.2504571402785629  0.1254910382364542  0.2708509835623829  1.0000
  C   C26       1.0  0.7504467687644976  0.8745015335577832  0.729149555375912  1.0000
  C   C27       1.0  0.2504542995655967  0.6254948986795625  0.229149555375912  1.0000
  C   C28       1.0  0.7504425076950485  0.3745067625698582  0.770850444624088  1.0000
  C   C29       1.0  0.1512580230680669  0.1367508533383273  0.3412293182430588  1.0000
  C   C30       1.0  0.6512448108410354  0.8632437383348376  0.6587690649420637  1.0000
  C   C31       1.0  0.1512566027115838  0.6367547137814356  0.1587696038803585  1.0000
  C   C32       1.0  0.6512476515540015  0.3632459375285251  0.8412325518728139  1.0000
  C   C33       1.0  0.1382177301869589  0.0287347976749928  0.3896453786041505  1.0000
  C   C34       1.0  0.6382045179599274  0.9712608039376462  0.6103524656426842  1.0000
  C   C35       1.0  0.1382134691175096  0.5287386581181011  0.11035300458097198  1.0000
  C   C36       1.0  0.6382087790293767  0.4712640130707939  0.8896459175424382  1.0000
  C   C37       1.0  0.034817198496313  0.0453190136394568  0.45315009431420344  1.0000
  C   C38       1.0  0.5348054066257646  0.9546806277310367  0.5468504446240913  1.0000
  C   C39       1.0  0.0348086763574074  0.545321864143105  0.0468509835623792  1.0000
  C   C40       1.0  0.5348054066257646  0.4546868666825858  0.9531500943142035  1.0000
  C   C41       1.0  0.9467684420056344  0.1689648924722817  0.46678577202910526  1.0000
  C   C42       1.0  0.4467532471029899  0.8310347488982189  0.5332109943411467  1.0000
  C   C43       1.0  0.9467542384407963  0.66896875291539  0.0332136890326069  1.0000
  C   C44       1.0  0.44675466745947295  0.3310389679708337  0.9667873888439757  1.0000
  C   C45       1.0  0.9677016558692416  0.2722170636764218  0.4164651037456224  1.0000
  C   C46       1.0  0.4676893016795631  0.7277835876335388  0.5835322015629245  1.0000
  C   C47       1.0  0.9676917133738528  0.7722189042406029  0.08353651306925508  1.0000
  C   C48       1.0  0.4676907220360462  0.22778780670615362  0.916469415251953  1.0000
  S   S1        1.0  0.5197538889630735  0.8245115498899622  0.9252789005658854  1.0000
  S   S2        1.0  0.0197727826160445  0.175507280330379  0.0747189436809492  1.0000
  S   S3        1.0  0.5197439464676847  0.3244945602338021  0.5747243330638625  1.0000
  S   S4        1.0  0.0197671011901122  0.6755131606524145  0.4252832120722161  1.0000
  N   N1        1.0  0.4150963417839435  0.9710022594344494  0.0495144165993011  1.0000
  N   N2        1.0  0.9151001738347162  0.0290135409674903  0.9504839665858285  1.0000
  N   N3        1.0  0.4150878196450378  0.47098526977828936  0.4504850444624111  1.0000
  N   N4        1.0  0.9150831295569049  0.5290052821370139  0.5495187281056317  1.0000
  N   N5        1.0  0.443054638818225  0.22075862802564217  0.177569388305038  1.0000
  N   N6        1.0  0.943035745165254  0.7792319238896681  0.8224300727566671  1.0000
  N   N7        1.0  0.4430432759663532  0.720766528226612  0.322430611694962  1.0000
  N   N8        1.0  0.9430314840957976  0.2792321032044214  0.6775704661816206  1.0000
  N   N9        1.0  0.2071987631968639  0.0344904426893962  0.22216491511721873  1.0000
  N   N10       1.0  0.7071954934652211  0.9655051589232428  0.7778334680679038  1.0000
  N   N11       1.0  0.2071987631968639  0.5344953130719716  0.2778345459444864  1.0000
  N   N12       1.0  0.7071912323957719  0.4655073581169233  0.7221665319320962  1.0000
  N   N13       1.0  0.0673618266179616  0.2566710654825854  0.3554147130153567  1.0000
  N   N14       1.0  0.5673457736779568  0.7433265560089808  0.6445809754783056  1.0000
  N   N15       1.0  0.067353304479056  0.7566729060467665  0.1445842091080607  1.0000
  N   N16       1.0  0.5673500347474061  0.24332673532373408  0.8554195634599822  1.0000
  O   O1        1.0  0.0646375828813319  0.9485331262039836  0.24047803826461941  1.0000
  O   O2        1.0  0.5646357335061722  0.051463485348115505  0.7595192670439204  1.0000
  O   O3        1.0  0.0646375828813319  0.44853835521606555  0.2595198059822152  1.0000
  O   O4        1.0  0.564632892793206  0.551468355730691  0.7404818108326623  1.0000
