data_image0
_chemical_formula_structural       Mn6H100C128N8O38
_chemical_formula_sum              "Mn6 H100 C128 N8 O38"
_cell_length_a       16.53491981719138
_cell_length_b       17.93974758554365
_cell_length_c       17.93935215236412
_cell_angle_alpha    67.63248431358487
_cell_angle_beta     73.01390389387585
_cell_angle_gamma    73.0139028874576

_space_group_name_H-M_alt    "P 1"
_space_group_IT_number       1

loop_
  _space_group_symop_operation_xyz
  'x, y, z'

loop_
  _atom_site_type_symbol
  _atom_site_label
  _atom_site_symmetry_multiplicity
  _atom_site_fract_x
  _atom_site_fract_y
  _atom_site_fract_z
  _atom_site_occupancy
  Mn  Mn1       1.0  8.663967356861439e-06  0.49998609726928583  0.9999924791555229  1.0000
  Mn  Mn2       1.0  0.49997343822300183  4.278536490429981e-05  0.5000055475595745  1.0000
  Mn  Mn3       1.0  0.04336941909639339  0.321263009490103  0.14591130956793558  1.0000
  Mn  Mn4       1.0  0.4566356573330524  0.8540982876679238  0.6787254055280271  1.0000
  Mn  Mn5       1.0  0.9566340711154028  0.6787202123189359  0.8541153650620147  1.0000
  Mn  Mn6       1.0  0.5433767548277686  0.14589486432920043  0.32125056476627356  1.0000
  H   H1        1.0  0.9603934827898614  0.1867122531984151  0.7450494919559033  1.0000
  H   H2        1.0  0.5396053372747859  0.2549564252116242  0.813281429018282  1.0000
  H   H3        1.0  0.03960603650664742  0.8132900929280709  0.25495205018167866  1.0000
  H   H4        1.0  0.46039660874691885  0.7450496308407111  0.18670915112029007  1.0000
  H   H5        1.0  0.8487051876208013  0.2332995277933918  0.7727450165905481  1.0000
  H   H6        1.0  0.6512955324964836  0.2272597393172973  0.7666988428108396  1.0000
  H   H7        1.0  0.15129470720768273  0.7667040517420105  0.22725484534615245  1.0000
  H   H8        1.0  0.348706371138995  0.7727463045640166  0.23329844245083797  1.0000
  H   H9        1.0  0.9982091147583035  0.3344507433139583  0.5807823289442164  1.0000
  H   H10       1.0  0.5017946358785964  0.4192210009190235  0.6655469248222798  1.0000
  H   H11       1.0  0.0017944177990684808  0.6655534435924864  0.4192202450411813  1.0000
  H   H12       1.0  0.49820892846845055  0.5807831951156928  0.3344506203207871  1.0000
  H   H13       1.0  0.9737948775162412  0.2913011865982114  0.5162537472287878  1.0000
  H   H14       1.0  0.5262065680691351  0.48374607845154577  0.708700701329533  1.0000
  H   H15       1.0  0.026202915599043256  0.7087091618993002  0.48374689859710424  1.0000
  H   H16       1.0  0.47379510259897023  0.5162581192625455  0.2912967857439737  1.0000
  H   H17       1.0  0.8106658482622962  0.18002196489624114  0.6743613958750173  1.0000
  H   H18       1.0  0.6893337871151742  0.32563702896582214  0.8199837527855959  1.0000
  H   H19       1.0  0.18933375166135133  0.8199859240106236  0.3256374726829492  1.0000
  H   H20       1.0  0.3106683937642174  0.6743647004727651  0.1800173196561089  1.0000
  H   H21       1.0  0.9226866961075687  0.1297344238890474  0.6591744884983299  1.0000
  H   H22       1.0  0.5773108515956409  0.34082557029222477  0.8702677687195646  1.0000
  H   H23       1.0  0.07731342462391659  0.8702709997850707  0.3408262891470739  1.0000
  H   H24       1.0  0.42268779255417854  0.659178013743599  0.12973019196990493  1.0000
  H   H25       1.0  0.8158383595064154  0.3481644659603802  0.5573098551801294  1.0000
  H   H26       1.0  0.6841679054872288  0.44268989307251166  0.6518369625548955  1.0000
  H   H27       1.0  0.18416555211511818  0.651840955369238  0.4426904798441312  1.0000
  H   H28       1.0  0.31583425501997897  0.5573149171781823  0.3481618360107532  1.0000
  H   H29       1.0  0.8429347857983487  0.39230038969014913  0.6192668332298226  1.0000
  H   H30       1.0  0.6570718269003706  0.38073600264641533  0.6076971481193779  1.0000
  H   H31       1.0  0.15706773964427606  0.6077056509266969  0.3807319614157335  1.0000
  H   H32       1.0  0.3429327347857978  0.6192694235327496  0.39230022620669297  1.0000
  H   H33       1.0  0.9164628971663547  0.19423486629154504  0.8812755438003492  1.0000
  H   H34       1.0  0.5835370100963858  0.11873560491618923  0.8057567400999942  1.0000
  H   H35       1.0  0.08353199330558414  0.8057625574503436  0.11872796602263223  1.0000
  H   H36       1.0  0.4164641193917048  0.8812741388427485  0.19423656401001915  1.0000
  H   H37       1.0  0.9582688771101148  0.20025494788141174  0.0011091750433250612  1.0000
  H   H38       1.0  0.541722728861494  0.9989097485516967  0.799739675327565  1.0000
  H   H39       1.0  0.04172528973442973  0.7997369302590442  0.9988988515369356  1.0000
  H   H40       1.0  0.4582668226334335  0.0011036836401317003  0.20026086628195822  1.0000
  H   H41       1.0  0.04608241303525769  0.42484387225548664  0.8516174952590134  1.0000
  H   H42       1.0  0.4539120624513373  0.1483996840958071  0.5751446767795301  1.0000
  H   H43       1.0  0.9539232576265562  0.5751442961527927  0.14839502778717417  1.0000
  H   H44       1.0  0.5460751019933737  0.8516131362245505  0.4248550540285478  1.0000
  H   H45       1.0  0.003586707845286671  0.42036146562400495  0.7305867026545342  1.0000
  H   H46       1.0  0.4964161198708154  0.2694250664454928  0.5796273115831027  1.0000
  H   H47       1.0  0.9964190089427378  0.5796353223197386  0.26942310797702607  1.0000
  H   H48       1.0  0.5035852806177559  0.7305834477398251  0.4203652707898511  1.0000
  H   H49       1.0  0.17619950310368893  0.09305395057775462  0.6375707865286415  1.0000
  H   H50       1.0  0.3237996285335213  0.36242361433287584  0.9069414101271889  1.0000
  H   H51       1.0  0.8237894953781293  0.906944725018164  0.36242377189831393  1.0000
  H   H52       1.0  0.6762087167705176  0.6375732011230896  0.09305208762953025  1.0000
  H   H53       1.0  0.3258527383132872  0.0803108445497855  0.5541622613949426  1.0000
  H   H54       1.0  0.17414456614775986  0.4458270862878493  0.9196815356571192  1.0000
  H   H55       1.0  0.6741366623161299  0.9196828987738499  0.44583739962428814  1.0000
  H   H56       1.0  0.8258618499476926  0.554161114354784  0.08031294016388553  1.0000
  H   H57       1.0  0.24771590155287984  0.30857113116002927  0.36904142399609435  1.0000
  H   H58       1.0  0.2522827827336016  0.6309530030969981  0.6914272134076852  1.0000
  H   H59       1.0  0.7522822490178528  0.6914232329747562  0.6309512324927481  1.0000
  H   H60       1.0  0.7477128446735436  0.36904688340570874  0.30857517105457777  1.0000
  H   H61       1.0  0.09939885321066544  0.32433099455462877  0.4536460942287944  1.0000
  H   H62       1.0  0.40060239183618046  0.5463531669972498  0.6756666755776947  1.0000
  H   H63       1.0  0.9005972478087115  0.6756670668584377  0.5463445911829651  1.0000
  H   H64       1.0  0.5993982363953237  0.4536528742847211  0.3243326197585644  1.0000
  H   H65       1.0  0.7827353197881166  0.08324788843326303  0.652816456185924  1.0000
  H   H66       1.0  0.7172583861933788  0.3471803734178848  0.9167605176580904  1.0000
  H   H67       1.0  0.2172658398477765  0.9167556906587182  0.34718307195698356  1.0000
  H   H68       1.0  0.2827356220674915  0.6528182862048411  0.08324052823729026  1.0000
  H   H69       1.0  0.6834603001894737  0.03937754509176732  0.6046748098324599  1.0000
  H   H70       1.0  0.8165389476176657  0.3953190449062163  0.9606285133774148  1.0000
  H   H71       1.0  0.31654113669033984  0.9606217195574942  0.3953285054904824  1.0000
  H   H72       1.0  0.18346283986102205  0.6046728397020047  0.03937248159773073  1.0000
  H   H73       1.0  0.7561917544593302  0.19998264643599842  0.35921209724274655  1.0000
  H   H74       1.0  0.7438159798258326  0.6407748631537586  0.8000208721760415  1.0000
  H   H75       1.0  0.24382129491456786  0.8000098530252873  0.6407840194157043  1.0000
  H   H76       1.0  0.25619332314236243  0.3592200843922769  0.19998422756413692  1.0000
  H   H77       1.0  0.8547602876219073  0.2470352222773898  0.4061291034741287  1.0000
  H   H78       1.0  0.6452404949041795  0.5938665286951094  0.7529675700562278  1.0000
  H   H79       1.0  0.1452469001174777  0.7529609707211692  0.5938688372899249  1.0000
  H   H80       1.0  0.3547635451532186  0.4061382758191954  0.2470335216200255  1.0000
  H   H81       1.0  0.2122379795501672  0.23595307918891714  0.24549833563654738  1.0000
  H   H82       1.0  0.287763419769277  0.7545147295230025  0.764042431925219  1.0000
  H   H83       1.0  0.7877667567387334  0.7640393967840214  0.7545144784483282  1.0000
  H   H84       1.0  0.7122377265588112  0.2454919324095855  0.2359537048211138  1.0000
  H   H85       1.0  0.1981502552406269  0.10571913914580483  0.3927261218909237  1.0000
  H   H86       1.0  0.3018459246900562  0.6072787371385289  0.8942653754861638  1.0000
  H   H87       1.0  0.8018425281362552  0.8942702723985293  0.6072854319879821  1.0000
  H   H88       1.0  0.6981533109113088  0.3927224019495982  0.10572331908555538  1.0000
  H   H89       1.0  0.9689616192364527  0.17593026269729967  0.2997800857631175  1.0000
  H   H90       1.0  0.5310400995149962  0.7002116718875513  0.8240699861190278  1.0000
  H   H91       1.0  0.031043630339652826  0.824063486240391  0.7002092564707851  1.0000
  H   H92       1.0  0.468957403910153  0.2997882078645233  0.17593525021409556  1.0000
  H   H93       1.0  0.09492533711823369  0.07330106189549922  0.519940509659868  1.0000
  H   H94       1.0  0.405069657866214  0.4800594226475284  0.9266963743073333  1.0000
  H   H95       1.0  0.9050656410921577  0.9266969830347093  0.4800615686117382  1.0000
  H   H96       1.0  0.5949268870738535  0.5199392381168619  0.07330288647993645  1.0000
  H   H97       1.0  0.028146625760115146  0.9672542816093714  0.638910638268072  1.0000
  H   H98       1.0  0.47184640582597154  0.36109286447257455  0.03274434776972149  1.0000
  H   H99       1.0  0.9718433586433407  0.032742534190632  0.3610910520602744  1.0000
  H   H100      1.0  0.5281483358379191  0.6389082568967198  0.9672561315252108  1.0000
  C   C1        1.0  0.8986991527224931  0.2615429332659858  0.6409066119725395  1.0000
  C   C2        1.0  0.6013016607348476  0.3590950948527977  0.7384572066266414  1.0000
  C   C3        1.0  0.10130120804073067  0.7384643386038547  0.3590928463405162  1.0000
  C   C4        1.0  0.39869938106174635  0.6409091040972613  0.2615398885834991  1.0000
  C   C5        1.0  0.9101012301073936  0.24254535682509734  0.7285688548094243  1.0000
  C   C6        1.0  0.5899005195701008  0.2714369934744383  0.7574502219013937  1.0000
  C   C7        1.0  0.08989827152819166  0.7574569842301315  0.2714354811294512  1.0000
  C   C8        1.0  0.4101044556811503  0.7285665903728074  0.2425449522985659  1.0000
  C   C9        1.0  0.9819172128436406  0.2801160506584496  0.578602301189285  1.0000
  C   C10       1.0  0.5180866937939258  0.4214000407784368  0.7198825091999764  1.0000
  C   C11       1.0  0.01808453763067054  0.7198906029384134  0.4213981387422193  1.0000
  C   C12       1.0  0.48191674564943554  0.5786047730858428  0.28011372053084216  1.0000
  C   C13       1.0  0.8754992623970638  0.18644043669674915  0.6366793260762051  1.0000
  C   C14       1.0  0.6244993473564762  0.36331902325640203  0.813560734191192  1.0000
  C   C15       1.0  0.12450051459210695  0.8135637626967238  0.3633181029277353  1.0000
  C   C16       1.0  0.37550156247205996  0.6366857914947134  0.18643616312721883  1.0000
  C   C17       1.0  0.8258726829384387  0.33715880473297233  0.6192345720223996  1.0000
  C   C18       1.0  0.6741320347685902  0.38076727167585017  0.6628417633015146  1.0000
  C   C19       1.0  0.1741303394076539  0.6628478504489763  0.38076441659479326  1.0000
  C   C20       1.0  0.32587099464187463  0.6192393855346056  0.33715610779515254  1.0000
  C   C21       1.0  0.9575142454403079  0.3076990625744854  0.7985362654223279  1.0000
  C   C22       1.0  0.5424880810478427  0.2014743342301628  0.6922919653154408  1.0000
  C   C23       1.0  0.04248631193969024  0.6922983520722498  0.20146965365037053  1.0000
  C   C24       1.0  0.457514452280087  0.7985347953128042  0.30770008537199084  1.0000
  C   C25       1.0  0.9447759142877034  0.2448283378974097  0.8742541394428827  1.0000
  C   C26       1.0  0.5552234507762323  0.1257558635331506  0.7551650204208398  1.0000
  C   C27       1.0  0.05522225957425766  0.755168465892112  0.12575041006810025  1.0000
  C   C28       1.0  0.44477527753290486  0.8742532642973091  0.24482970792875827  1.0000
  C   C29       1.0  0.9684041105700845  0.2479341781480359  0.9414041272933031  1.0000
  C   C30       1.0  0.5315894361829763  0.05861099285584001  0.7520601158344531  1.0000
  C   C31       1.0  0.031592450389041474  0.7520583138923982  0.058603592567891265  1.0000
  C   C32       1.0  0.46840241195940996  0.9414005922819302  0.2479399599993001  1.0000
  C   C33       1.0  0.004964186936831468  0.31238868048879453  0.9337873905767609  1.0000
  C   C34       1.0  0.49502913131950504  0.06622883074338402  0.6876053330815423  1.0000
  C   C35       1.0  0.9950325192981563  0.6876001129099694  0.06622391857273864  1.0000
  C   C36       1.0  0.5049605619190984  0.9337809017925242  0.31239935657654866  1.0000
  C   C37       1.0  0.017968994264066375  0.3745974219649285  0.8572097131328391  1.0000
  C   C38       1.0  0.48202784236590906  0.1428053199097619  0.6253940918572098  1.0000
  C   C39       1.0  0.9820337508787631  0.6253925947333626  0.14280288382576592  1.0000
  C   C40       1.0  0.51796503761652  0.8572044186173713  0.37460585199456614  1.0000
  C   C41       1.0  0.994280746088819  0.3724982504278174  0.7902603666364385  1.0000
  C   C42       1.0  0.5057202288626997  0.2097526092179862  0.6274913096713632  1.0000
  C   C43       1.0  0.005722211649199866  0.627496693249789  0.2097497546342806  1.0000
  C   C44       1.0  0.4942790069464635  0.7902571362203333  0.3725019363690903  1.0000
  C   C45       1.0  0.02746988130747498  0.31706644359236696  0.005461697590490538  1.0000
  C   C46       1.0  0.4725241612631946  0.9945606134390772  0.6829264103182807  1.0000
  C   C47       1.0  0.9725276023992748  0.6829100445928376  0.9945484824816759  1.0000
  C   C48       1.0  0.5274683629463085  0.005450330319625599  0.31708766551677303  1.0000
  C   C49       1.0  0.12865392871965745  0.20858429960086516  0.5507283518854891  1.0000
  C   C50       1.0  0.37134554770614875  0.4492693436784236  0.7914137046944704  1.0000
  C   C51       1.0  0.871340747266778  0.7914143699426718  0.4492669395104087  1.0000
  C   C52       1.0  0.6286565498348511  0.5507299288631416  0.20858497364949344  1.0000
  C   C53       1.0  0.19277889139895876  0.13980396183644936  0.5784994844108482  1.0000
  C   C54       1.0  0.3072188885324961  0.4214946026096272  0.8601925614322071  1.0000
  C   C55       1.0  0.8072130290696509  0.8601928644552076  0.42149555886395246  1.0000
  C   C56       1.0  0.6927835180420842  0.578500364617483  0.13980487524946025  1.0000
  C   C57       1.0  0.2760332652968814  0.1329455920315041  0.5316453463454138  1.0000
  C   C58       1.0  0.2239647627831616  0.4683453920818295  0.8670497578398723  1.0000
  C   C59       1.0  0.7239594054147461  0.8670506141803714  0.46835196296525083  1.0000
  C   C60       1.0  0.776037452389346  0.5316446542514796  0.1329468019681172  1.0000
  C   C61       1.0  0.2962824511594421  0.19354609699583142  0.45534748717027174  1.0000
  C   C62       1.0  0.20371806093217507  0.5446419134233907  0.8064515968065178  1.0000
  C   C63       1.0  0.7037127491670105  0.8064501083292087  0.5446491545528003  1.0000
  C   C64       1.0  0.7962822323039093  0.4553481264752791  0.1935493750139869  1.0000
  C   C65       1.0  0.23170321031084734  0.2617841895610412  0.4281978001356208  1.0000
  C   C66       1.0  0.2682961779587813  0.571795656321932  0.7382135674914991  1.0000
  C   C67       1.0  0.7682927685161048  0.7382114037982391  0.57179663754124  1.0000
  C   C68       1.0  0.7317029134361022  0.4281999217292737  0.2617878583444905  1.0000
  C   C69       1.0  0.14826082797463164  0.27040094383122687  0.475603187276853  1.0000
  C   C70       1.0  0.35173954231358806  0.524393499738359  0.729596622965161  1.0000
  C   C71       1.0  0.8517341296088288  0.7295964991814473  0.5243897061012103  1.0000
  C   C72       1.0  0.6482624197271747  0.47560638759001966  0.27040241624734307  1.0000
  C   C73       1.0  0.38437366053187816  0.18548405137621427  0.40362967270083044  1.0000
  C   C74       1.0  0.11562862816042943  0.5963574819942326  0.8145179127915156  1.0000
  C   C75       1.0  0.615621888097799  0.8145250724915273  0.5963686839345569  1.0000
  C   C76       1.0  0.884369510992812  0.40363379220018913  0.18548204641571434  1.0000
  C   C77       1.0  0.8238916849948767  0.1691837151806723  0.5323366421480031  1.0000
  C   C78       1.0  0.6761066607446438  0.46766025573704445  0.8308221080796584  1.0000
  C   C79       1.0  0.1761124001600009  0.8308180156212971  0.4676628120824943  1.0000
  C   C80       1.0  0.32389300111647396  0.5323414776311354  0.16917795566887137  1.0000
  C   C81       1.0  0.7772594629051215  0.10945655896494341  0.5884603545892232  1.0000
  C   C82       1.0  0.7227371158168836  0.411535484087132  0.8905505048353886  1.0000
  C   C83       1.0  0.22274373297431527  0.8905464056893567  0.41153775323419933  1.0000
  C   C84       1.0  0.27726168067316337  0.5884644033355431  0.10944992762185977  1.0000
  C   C85       1.0  0.7222010307466677  0.08391816006632523  0.56137244585107  1.0000
  C   C86       1.0  0.7777975070635679  0.438620568893434  0.916088403523183  1.0000
  C   C87       1.0  0.2778008028582306  0.916082344077367  0.4386258367094412  1.0000
  C   C88       1.0  0.22220473928548054  0.561375006020725  0.08391330534882976  1.0000
  C   C89       1.0  0.7137082571313728  0.1163276392302279  0.47906269198288226  1.0000
  C   C90       1.0  0.786293176564648  0.5209262899015104  0.8836755166599559  1.0000
  C   C91       1.0  0.2862977844608423  0.8836710212512884  0.5209323890701254  1.0000
  C   C92       1.0  0.2137099731885783  0.47906805521732576  0.116325303578094  1.0000
  C   C93       1.0  0.7628659879558769  0.17452302213904863  0.42325576612099497  1.0000
  C   C94       1.0  0.7371379894757621  0.5767371646956932  0.8254804782759632  1.0000
  C   C95       1.0  0.23714398980224866  0.8254719373562979  0.5767424615991814  1.0000
  C   C96       1.0  0.26286713729478356  0.42325963564078256  0.17452279412938748  1.0000
  C   C97       1.0  0.8176503783683488  0.20085894080892794  0.4490889199308156  1.0000
  C   C98       1.0  0.6823510739606463  0.5509067335020887  0.7991453351730653  1.0000
  C   C99       1.0  0.18235679524229198  0.7991372481326237  0.5509112558742686  1.0000
  C   C100      1.0  0.31765263213006995  0.4490937628767072  0.20085635801856222  1.0000
  C   C101      1.0  0.6505016429406965  0.0930953856318837  0.4513638008493217  1.0000
  C   C102      1.0  0.8495025034991954  0.5486148911039734  0.9069133805078379  1.0000
  C   C103      1.0  0.3495100886023579  0.9069180519854144  0.54862363548537  1.0000
  C   C104      1.0  0.15049942654409426  0.45137638074594827  0.0930861360782558  1.0000
  C   C105      1.0  0.16002405386799273  0.20330126522001282  0.2783950452748769  1.0000
  C   C106      1.0  0.3399760732189563  0.7216135228414868  0.7966921793687686  1.0000
  C   C107      1.0  0.8399789764040545  0.7966875259616727  0.7216145949056311  1.0000
  C   C108      1.0  0.6600271058204897  0.2783925236391624  0.20330309581833447  1.0000
  C   C109      1.0  0.15395689046187036  0.13940774190143657  0.35113257398593584  1.0000
  C   C110      1.0  0.3460405190667473  0.6488701761531245  0.8605835030652569  1.0000
  C   C111      1.0  0.8460399485621083  0.8605835225938847  0.6488733066176805  1.0000
  C   C112      1.0  0.6539590496803597  0.35113218417288994  0.13941021642870052  1.0000
  C   C113      1.0  0.0343580954115765  0.17347210566916263  0.30249854700860357  1.0000
  C   C114      1.0  0.4656426113674001  0.697500558334376  0.8265247159399175  1.0000
  C   C115      1.0  0.9656442305358723  0.826517318777576  0.6975015632526718  1.0000
  C   C116      1.0  0.5343559947493047  0.30250610144229034  0.17347376467478873  1.0000
  C   C117      1.0  0.0372718459289274  0.05911291155481991  0.43361513435954174  1.0000
  C   C118      1.0  0.46272168630387955  0.566383719139914  0.9408824015256981  1.0000
  C   C119      1.0  0.9627211924293704  0.9408814391398509  0.5663872387083799  1.0000
  C   C120      1.0  0.5372741048609913  0.43361556069000073  0.059115151985970595  1.0000
  C   C121      1.0  0.054280520122191006  0.0404267643153489  0.511242382822921  1.0000
  C   C122      1.0  0.44571397522634026  0.48875765295304063  0.9595705028821583  1.0000
  C   C123      1.0  0.9457112189277767  0.9595706635778286  0.48876028520377435  1.0000
  C   C124      1.0  0.5542823332141751  0.5112391606298772  0.04042951847719671  1.0000
  C   C125      1.0  0.01672396178072682  0.981164648862432  0.577769267996281  1.0000
  C   C126      1.0  0.4832693412084907  0.4222326170384535  0.018832349270915854  1.0000
  C   C127      1.0  0.9832667869944844  0.018831550914804006  0.42223245332689163  1.0000
  C   C128      1.0  0.5167259459885399  0.5777660461978585  0.9811661277896346  1.0000
  N   N1        1.0  0.0850866281620384  0.2240220766941121  0.2489740643132166  1.0000
  N   N2        1.0  0.4149168927816191  0.7510300917893318  0.7759764920466165  1.0000
  N   N3        1.0  0.9149217464688777  0.7759654871972971  0.7510312839140026  1.0000
  N   N4        1.0  0.5850871410323394  0.24897779759407263  0.22402009071254256  1.0000
  N   N5        1.0  0.07381190052709029  0.12057332220061313  0.365609033080311  1.0000
  N   N6        1.0  0.4261868442199911  0.6343889944209453  0.879419914498385  1.0000
  N   N7        1.0  0.9261860995937284  0.8794185657663648  0.634391845755708  1.0000
  N   N8        1.0  0.5738114420587763  0.36561336127722666  0.12057693259065863  1.0000
  O   O1        1.0  0.7500020295477512  0.32025469861748956  0.6797468251700423  1.0000
  O   O2        1.0  0.25000112476639913  0.6797513407634029  0.3202523613388805  1.0000
  O   O3        1.0  0.9358765306002326  0.3117872676386781  0.729010836040068  1.0000
  O   O4        1.0  0.5641306707911725  0.2709968270161625  0.68820319804761  1.0000
  O   O5        1.0  0.06412475311841338  0.6882126067261328  0.27099563395270104  1.0000
  O   O6        1.0  0.43587974275388325  0.7290079894805856  0.3117884020160274  1.0000
  O   O7        1.0  0.048864081261641004  0.2094117210188529  0.6011194176515531  1.0000
  O   O8        1.0  0.4511385855370874  0.3988809110379422  0.7905879875496281  1.0000
  O   O9        1.0  0.9511342989520699  0.7905930946190909  0.39887814725446424  1.0000
  O   O10       1.0  0.548866514617842  0.6011220549797401  0.20940850206257966  1.0000
  O   O11       1.0  0.8769284566080132  0.20153899912577342  0.5520996272886619  1.0000
  O   O12       1.0  0.6230701752513214  0.44789850114696617  0.7984634363470561  1.0000
  O   O13       1.0  0.12307107328505394  0.7984633500434698  0.44790023856813815  1.0000
  O   O14       1.0  0.37693098791676505  0.5521050789592722  0.20153553303559582  1.0000
  O   O15       1.0  0.013931949318120496  0.2625054536384114  0.07630797019852757  1.0000
  O   O16       1.0  0.48606366642784604  0.9237164890468891  0.7374887257301025  1.0000
  O   O17       1.0  0.9860701075191686  0.7374790276009762  0.9237035559147769  1.0000
  O   O18       1.0  0.5139279452149881  0.07629324890940839  0.26251211067573615  1.0000
  O   O19       1.0  0.06041132287528939  0.3777299562354274  0.996427394339875  1.0000
  O   O20       1.0  0.43958149154327947  0.0035894691278884018  0.6222641599361012  1.0000
  O   O21       1.0  0.9395947850481647  0.6222446836928911  0.003580092227266974  1.0000
  O   O22       1.0  0.5604036944500452  0.9964233285298008  0.37774892304862817  1.0000
  O   O23       1.0  0.4465106801148977  0.12951902617325572  0.4357923335427287  1.0000
  O   O24       1.0  0.05349824194540528  0.5641844768693006  0.8704874884420235  1.0000
  O   O25       1.0  0.5534949535018966  0.8705048641500428  0.5642022389383783  1.0000
  O   O26       1.0  0.9465017349849345  0.43580125996513175  0.1295112910925623  1.0000
  O   O27       1.0  0.4005364968335457  0.2313287174085161  0.32964401574563607  1.0000
  O   O28       1.0  0.0994660077390747  0.6703445600122395  0.7686760246594772  1.0000
  O   O29       1.0  0.5994585823292127  0.7686767131105299  0.6703553032736663  1.0000
  O   O30       1.0  0.900539417468494  0.3296479319670313  0.23132768236435902  1.0000
  O   O31       1.0  0.6078278824466777  0.0395850997991971  0.5035536543688508  1.0000
  O   O32       1.0  0.8921759944184727  0.49643484086048056  0.9604272719905678  1.0000
  O   O33       1.0  0.3921795155922467  0.960436318762426  0.4964458459674431  1.0000
  O   O34       1.0  0.10782284967250177  0.5035502806163095  0.03957203922954016  1.0000
  O   O35       1.0  0.6429859831854544  0.13040008779926637  0.37623742231255614  1.0000
  O   O36       1.0  0.8570149886342975  0.6237402129281051  0.8695960626805997  1.0000
  O   O37       1.0  0.3570222584080227  0.8695973515717769  0.6237514074703582  1.0000
  O   O38       1.0  0.14298871995986676  0.37624859121714843  0.13040614671964326  1.0000
