data_image0
_chemical_formula_structural       La2Cu2H28C32N4O26
_chemical_formula_sum              "La2 Cu2 H28 C32 N4 O26"
_cell_length_a       8.239284018645035
_cell_length_b       11.090380497802268
_cell_length_c       12.163820390291471
_cell_angle_alpha    107.92929806535702
_cell_angle_beta     103.60706684038267
_cell_angle_gamma    95.48635542332853

_space_group_name_H-M_alt    "P 1"
_space_group_IT_number       1

loop_
  _space_group_symop_operation_xyz
  'x, y, z'

loop_
  _atom_site_type_symbol
  _atom_site_label
  _atom_site_symmetry_multiplicity
  _atom_site_fract_x
  _atom_site_fract_y
  _atom_site_fract_z
  _atom_site_occupancy
  La  La1       1.0  0.06313427670947647  0.7753865432062385  0.08611599700115147  1.0000
  La  La2       1.0  0.9368652889086134  0.22462137147522296  0.9138716437727509  1.0000
  Cu  Cu1       1.0  0.004504409641036489  0.7344857811769574  0.5434536337996718  1.0000
  Cu  Cu2       1.0  0.995498080088275  0.2655084489477986  0.4565411513222911  1.0000
  H   H1        1.0  0.03933105521006299  0.8504469575402427  0.8438352907901036  1.0000
  H   H2        1.0  0.9606398805651042  0.1495592310663412  0.15616816949287934  1.0000
  H   H3        1.0  0.878564014010159  0.8801295986088821  0.8861021831475425  1.0000
  H   H4        1.0  0.12140884088795191  0.11988812110738682  0.1139098463437804  1.0000
  H   H5        1.0  0.8146879555697026  0.540781653391072  0.9636280305268413  1.0000
  H   H6        1.0  0.18533283118269137  0.45919578845900594  0.03637362646299641  1.0000
  H   H7        1.0  0.803376159760795  0.596027130349363  0.85759958731677  1.0000
  H   H8        1.0  0.1966373519724556  0.40394656193144146  0.1423982590347066  1.0000
  H   H9        1.0  0.2449155870552673  0.6211096097225735  0.2506750156897368  1.0000
  H   H10       1.0  0.7550843628090718  0.3788760549805731  0.7493062145786807  1.0000
  H   H11       1.0  0.36132340079586817  0.6351658150491206  0.1679084532434203  1.0000
  H   H12       1.0  0.6386595206978568  0.3648220730433992  0.8320659706125184  1.0000
  H   H13       1.0  0.5442005448418213  0.9834248260648836  0.28743050886209426  1.0000
  H   H14       1.0  0.4558031765831387  0.01657316810825191  0.7125745974578022  1.0000
  H   H15       1.0  0.4422094946075888  0.879709748293266  0.41913212927322263  1.0000
  H   H16       1.0  0.557784980854251  0.12027676329306299  0.5808690938886512  1.0000
  H   H17       1.0  0.6464709571925198  0.7754285851189952  0.5362110242573265  1.0000
  H   H18       1.0  0.3535293570222962  0.22454723661667228  0.4637846664144263  1.0000
  H   H19       1.0  0.4535957035742229  0.5162310430779871  0.8358897769633414  1.0000
  H   H20       1.0  0.5464356423864274  0.4837869089981911  0.1641211058015273  1.0000
  H   H21       1.0  0.5643533578207637  0.5983164073335488  0.6928410694001242  1.0000
  H   H22       1.0  0.4356457394858139  0.40170196266148395  0.30716927544154515  1.0000
  H   H23       1.0  0.36404116926509283  0.6831000077521595  0.5544887307958746  1.0000
  H   H24       1.0  0.6359611626831948  0.31690668676125  0.4455211656695752  1.0000
  H   H25       1.0  0.5656434326757562  0.08913643104271071  0.1325979733841365  1.0000
  H   H26       1.0  0.43436623834009674  0.9108788320633254  0.8674187884561063  1.0000
  H   H27       1.0  0.4011187018801508  0.11301689578065323  0.024685449307234816  1.0000
  H   H28       1.0  0.5988257751286739  0.8869957165505157  0.9752904737861099  1.0000
  C   C1        1.0  0.8934162370507862  0.8660429163396658  0.38773274498174704  1.0000
  C   C2        1.0  0.10657070236456428  0.13393510862234592  0.6122533848548456  1.0000
  C   C3        1.0  0.7910891118801687  0.928100513185392  0.3220086056252569  1.0000
  C   C4        1.0  0.2089151614047324  0.07190423531468332  0.6779993678622345  1.0000
  C   C5        1.0  0.6277105793493476  0.9348948670148405  0.3359171679189146  1.0000
  C   C6        1.0  0.3722857833101614  0.06509456676249671  0.6640802502311444  1.0000
  C   C7        1.0  0.5708766025367779  0.8788800349255939  0.4110587344285791  1.0000
  C   C8        1.0  0.42912433254113586  0.12111220377421011  0.5889434644984917  1.0000
  C   C9        1.0  0.6805945214193798  0.8196423949787931  0.47436257476621085  1.0000
  C   C10       1.0  0.3193997471540441  0.1803345113481569  0.5256292477426001  1.0000
  C   C11       1.0  0.07229004083040275  0.8511656036146961  0.3851172679731434  1.0000
  C   C12       1.0  0.9277068415659003  0.14883437438490432  0.6148923368282198  1.0000
  C   C13       1.0  0.8475614499627752  0.9832711087811247  0.23493805153752578  1.0000
  C   C14       1.0  0.1524357947850561  0.01672708020139171  0.7650554638508921  1.0000
  C   C15       1.0  0.09333142936385735  0.583000864478592  0.6827858891573583  1.0000
  C   C16       1.0  0.9066977904643778  0.4169765685763169  0.3172055011359944  1.0000
  C   C17       1.0  0.1955215329937658  0.5377244297676642  0.7646094870484673  1.0000
  C   C18       1.0  0.8045085490270195  0.4622741655032528  0.23539887139207144  1.0000
  C   C19       1.0  0.36817636559284483  0.5457369568733983  0.7697536830983153  1.0000
  C   C20       1.0  0.6318496958694697  0.4542655878019987  0.23025276173279968  1.0000
  C   C21       1.0  0.4316246968433929  0.5945430307136733  0.6926475069309105  1.0000
  C   C22       1.0  0.5683887804930734  0.40548668569305596  0.3073740191058575  1.0000
  C   C23       1.0  0.32236838094964076  0.6404892940909407  0.615103366350958  1.0000
  C   C24       1.0  0.6776515657913151  0.35953645400474005  0.38491878554347636  1.0000
  C   C25       1.0  0.9060857816042756  0.5815469150705965  0.6660278088662038  1.0000
  C   C26       1.0  0.0939372298468086  0.4184392233503973  0.33397423825640254  1.0000
  C   C27       1.0  0.12896232579189607  0.4848908042994681  0.8490211362865097  1.0000
  C   C28       1.0  0.8710601683613604  0.5151031024392909  0.15098062551741984  1.0000
  C   C29       1.0  0.3383536186050477  0.9530856813200544  0.07810999353198167  1.0000
  C   C30       1.0  0.6616071007808272  0.046948763010810524  0.9218935903021757  1.0000
  C   C31       1.0  0.4631049520660185  0.038005619159911005  0.04907282959474199  1.0000
  C   C32       1.0  0.5368592654278787  0.9620401992843883  0.9509534898827496  1.0000
  N   N1        1.0  0.8372711783989999  0.8145444741638247  0.462091084769412  1.0000
  N   N2        1.0  0.1627281849664755  0.18545169503389053  0.5379079127964772  1.0000
  N   N3        1.0  0.1586740091857166  0.635674848931963  0.6124017944946941  1.0000
  N   N4        1.0  0.8413466076793481  0.36432582284347603  0.3876049450236322  1.0000
  O   O1        1.0  0.9686355322109176  0.8261421321487887  0.8925508463783981  1.0000
  O   O2        1.0  0.03132007751868571  0.17385851846977127  0.10744380334480749  1.0000
  O   O3        1.0  0.15020110765611608  0.7965804772526756  0.45612095219511417  1.0000
  O   O4        1.0  0.849781429151342  0.2034032943277212  0.5438785306499625  1.0000
  O   O5        1.0  0.7892394073173675  0.6163415990497471  0.939556018361415  1.0000
  O   O6        1.0  0.21077186992878438  0.38363309208466506  0.06044178776482312  1.0000
  O   O7        1.0  0.13744886872220974  0.8924339617872479  0.3170840962898041  1.0000
  O   O8        1.0  0.8625366096975355  0.10755656980401804  0.6829144975859618  1.0000
  O   O9        1.0  0.8790555929563268  0.10450192814806063  0.26331516739765687  1.0000
  O   O10       1.0  0.120928944402486  0.895499255480729  0.7366863834647218  1.0000
  O   O11       1.0  0.28651179426596934  0.6785072844352629  0.21131866286145856  1.0000
  O   O12       1.0  0.7134961006648055  0.32148883498311426  0.7886741819831968  1.0000
  O   O13       1.0  0.8485377642822983  0.9029219714773976  0.13485252007833287  1.0000
  O   O14       1.0  0.1514577091373184  0.09707431624531183  0.8651393583696672  1.0000
  O   O15       1.0  0.8382418462263601  0.6442415264498609  0.600018454466884  1.0000
  O   O16       1.0  0.16178315091185877  0.35574749317798654  0.3999839016191514  1.0000
  O   O17       1.0  0.8251797982537352  0.520208078467512  0.7137543916290595  1.0000
  O   O18       1.0  0.17482102359156929  0.47978905302712604  0.2862434568790134  1.0000
  O   O19       1.0  0.081494241126812  0.36462016342097325  0.8156369077521217  1.0000
  O   O20       1.0  0.9185198868337423  0.635372086048342  0.18434668940962234  1.0000
  O   O21       1.0  0.1368794189652007  0.5647352405875311  0.9520221048848112  1.0000
  O   O22       1.0  0.8631618677353218  0.4352739531722209  0.04797865780832215  1.0000
  O   O23       1.0  0.33814765099164373  0.8320255955936985  0.047468813352182275  1.0000
  O   O24       1.0  0.6618685049308155  0.1680141977192663  0.9525099912120749  1.0000
  O   O25       1.0  0.23370444850088748  0.0027249521841810017  0.13464202635506686  1.0000
  O   O26       1.0  0.7662567805912345  0.9972909664890397  0.8653710488177068  1.0000
