data_image0
_chemical_formula_structural       K4Zn2H20C8N36O8
_chemical_formula_sum              "K4 Zn2 H20 C8 N36 O8"
_cell_length_a       8.505557563661574
_cell_length_b       9.39209120800001
_cell_length_c       10.738712714341025
_cell_angle_alpha    89.99999483133882
_cell_angle_beta     98.54920496903355
_cell_angle_gamma    90.00000058970136

_space_group_name_H-M_alt    "P 1"
_space_group_IT_number       1

loop_
  _space_group_symop_operation_xyz
  'x, y, z'

loop_
  _atom_site_type_symbol
  _atom_site_label
  _atom_site_symmetry_multiplicity
  _atom_site_fract_x
  _atom_site_fract_y
  _atom_site_fract_z
  _atom_site_occupancy
  K   K1        1.0  0.509857257067942  0.2961693944857444  0.12205957058968404  1.0000
  K   K2        1.0  0.9901425701469861  0.7961730203499185  0.8779331606819197  1.0000
  K   K3        1.0  0.4901436321340284  0.7038272365097382  0.8779357769798181  1.0000
  K   K4        1.0  0.0098571623203227  0.2038268048222349  0.12206485259423518  1.0000
  Zn  Zn1       1.0  0.5000022493168998  0.5000015096744618  0.4999997360425539  1.0000
  Zn  Zn2       1.0  9.213989998008541e-07  0.9999987809423627  0.5000011331130025  1.0000
  H   H1        1.0  0.5730201320545588  0.9631710060048138  0.18794961184403997  1.0000
  H   H2        1.0  0.9269797907218162  0.4631715724284859  0.8120514980189241  1.0000
  H   H3        1.0  0.426979643252089  0.03682881916714819  0.8120521311663252  1.0000
  H   H4        1.0  0.07301996316515871  0.5368293174691773  0.18794838012428974  1.0000
  H   H5        1.0  0.7443450111384208  0.013543301128471796  0.24227101307786816  1.0000
  H   H6        1.0  0.7556549138647239  0.5135437427327217  0.7577301326223489  1.0000
  H   H7        1.0  0.2556547534583871  0.9864565240435395  0.7577297974989463  1.0000
  H   H8        1.0  0.2443448507320838  0.4864560824392897  0.24227067795446539  1.0000
  H   H9        1.0  0.3132563755409734  0.9879471733774781  0.11242754463818729  1.0000
  H   H10       1.0  0.18674322864211482  0.4879466648012424  0.8875729306964144  1.0000
  H   H11       1.0  0.6867433890558344  0.012052651794533598  0.8875732659386271  1.0000
  H   H12       1.0  0.81325652524486  0.5120531603708188  0.11242694744684197  1.0000
  H   H13       1.0  0.29804223232624594  0.03576301991961369  0.9723510474655156  1.0000
  H   H14       1.0  0.201958562960435  0.5357635360541552  0.027649595503937998  1.0000
  H   H15       1.0  0.7019587104248969  0.9642368052524471  0.027648962271626894  1.0000
  H   H16       1.0  0.7980423905005407  0.4642373538434652  0.9723513466667126  1.0000
  H   H17       1.0  0.3128104754411751  0.932862516003482  0.3737031685009313  1.0000
  H   H18       1.0  0.18718913972456622  0.4328609695791029  0.6262982436577431  1.0000
  H   H19       1.0  0.6871893105753056  0.0671373091684302  0.6262995069429849  1.0000
  H   H20       1.0  0.8128094252982478  0.5671377908673562  0.3737015028916701  1.0000
  C   C1        1.0  0.4131380667746356  0.7525746623222034  0.31238887156940354  1.0000
  C   C2        1.0  0.08686270601862839  0.25257523799599807  0.6876098892521225  1.0000
  C   C3        1.0  0.5868640541308422  0.24742516284990054  0.687610337328067  1.0000
  C   C4        1.0  0.9131346594301774  0.7474267166273236  0.3123887932697328  1.0000
  C   C5        1.0  0.2800344522687439  0.767077279672641  0.4957592747533893  1.0000
  C   C6        1.0  0.21996752002669948  0.26707574614412277  0.504240548939741  1.0000
  C   C7        1.0  0.7199676793465597  0.23292361022502206  0.5042408665775966  1.0000
  C   C8        1.0  0.7800334227244505  0.7329230143023365  0.49575946079744426  1.0000
  N   N1        1.0  0.4501631405654293  0.6128198439003898  0.3189921934570208  1.0000
  N   N2        1.0  0.0498364547656323  0.11282041986697067  0.6810073793432351  1.0000
  N   N3        1.0  0.5498354244573773  0.3871799812716716  0.6810075530923567  1.0000
  N   N4        1.0  0.9501644986953366  0.8871815347562518  0.31899356282737296  1.0000
  N   N5        1.0  0.5134322904731903  0.5859057158942774  0.21157478648979827  1.0000
  N   N6        1.0  0.9865676234617524  0.08590522064405802  0.7884254210093073  1.0000
  N   N7        1.0  0.48656866298777857  0.41409517400334284  0.7884261556808525  1.0000
  N   N8        1.0  0.013429752696893598  0.9140946045280032  0.21157419394618418  1.0000
  N   N9        1.0  0.5142930735133576  0.7027157007159416  0.1465478816077166  1.0000
  N   N10       1.0  0.9857056402690886  0.2027151987686082  0.8534512525537039  1.0000
  N   N11       1.0  0.4857066696637843  0.29728412445616925  0.853451064101989  1.0000
  N   N12       1.0  0.0142953131918944  0.7972835616778012  0.14654968961703924  1.0000
  N   N13       1.0  0.4523731886260193  0.8119437677101827  0.20717414231449988  1.0000
  N   N14       1.0  0.047628794157056085  0.31194326742728157  0.7928266102360906  1.0000
  N   N15       1.0  0.5476289429892844  0.1880560574618784  0.7928259990165215  1.0000
  N   N16       1.0  0.9523697708657579  0.6880565577447797  0.20717313631328685  1.0000
  N   N17       1.0  0.34190697962495875  0.8277538678426808  0.3979299914863929  1.0000
  N   N18       1.0  0.15809498166014893  0.32775338833223344  0.6020688949369556  1.0000
  N   N19       1.0  0.6580951412805189  0.17224595732942297  0.6020692174110776  1.0000
  N   N20       1.0  0.8419071392453217  0.6722464368398776  0.39793031396051487  1.0000
  N   N21       1.0  0.17180776809021836  0.8298353972913404  0.5578289198218584  1.0000
  N   N22       1.0  0.32819301503025144  0.32983600072732594  0.4421707672752148  1.0000
  N   N23       1.0  0.8281931746609245  0.17016442788071368  0.4421710899152842  1.0000
  N   N24       1.0  0.6718091272948925  0.6701648891702946  0.5578303064893217  1.0000
  N   N25       1.0  0.14170179715497966  0.7343678359057718  0.6457448759832402  1.0000
  N   N26       1.0  0.3582990078579655  0.2343663192469592  0.35425668359019363  1.0000
  N   N27       1.0  0.8582979567319953  0.26563305399189113  0.3542550021599736  1.0000
  N   N28       1.0  0.6417007674486824  0.7656345706506116  0.645745059420129  1.0000
  N   N29       1.0  0.2270038422679903  0.6203666014709269  0.6370833939263392  1.0000
  N   N30       1.0  0.2729933752973679  0.1203672124824919  0.3629159150846348  1.0000
  N   N31       1.0  0.7729959223288247  0.37963322370109137  0.36291741665046817  1.0000
  N   N32       1.0  0.7270051790156058  0.8796336774152208  0.6370828990311422  1.0000
  N   N33       1.0  0.3162546253589723  0.6369848440017378  0.5435166184223659  1.0000
  N   N34       1.0  0.1837461801362537  0.13698331500715  0.4564849489129017  1.0000
  N   N35       1.0  0.6837451392378355  0.3630160458958826  0.45648419215439867  1.0000
  N   N36       1.0  0.8162547733247223  0.8630154454392593  0.5435159932578343  1.0000
  O   O1        1.0  0.6568982230531617  0.03382100331729279  0.17450503707622284  1.0000
  O   O2        1.0  0.8431016911397221  0.5338225035897465  0.825495174574179  1.0000
  O   O3        1.0  0.34310153083381306  0.9661777571291591  0.8254948410670762  1.0000
  O   O4        1.0  0.15689806274725268  0.4661773215823147  0.17450470356907738  1.0000
  O   O5        1.0  0.2834598901175553  0.0698002150613632  0.057339945091157994  1.0000
  O   O6        1.0  0.21653970542656958  0.5697995725113358  0.9426596311379922  1.0000
  O   O7        1.0  0.7165398637694266  0.9301996101106977  0.9426599330520984  1.0000
  O   O8        1.0  0.7834600484604124  0.4302002526607255  0.057340247005271267  1.0000
