data_image0
_chemical_formula_structural       Cu2H18C22I2N6O2
_chemical_formula_sum              "Cu2 H18 C22 I2 N6 O2"
_cell_length_a       8.58250629313295
_cell_length_b       8.93129993333044
_cell_length_c       9.151255065380868
_cell_angle_alpha    70.09562196962092
_cell_angle_beta     69.58858739160965
_cell_angle_gamma    85.25798887193764

_space_group_name_H-M_alt    "P 1"
_space_group_IT_number       1

loop_
  _space_group_symop_operation_xyz
  'x, y, z'

loop_
  _atom_site_type_symbol
  _atom_site_label
  _atom_site_symmetry_multiplicity
  _atom_site_fract_x
  _atom_site_fract_y
  _atom_site_fract_z
  _atom_site_occupancy
  Cu  Cu1       1.0  0.43445553305343765  0.3893038883052711  0.1360013221619383  1.0000
  Cu  Cu2       1.0  0.5655423598045317  0.6106948933083062  0.8639982961312428  1.0000
  H   H1        1.0  0.22603735258841337  0.37616036007061376  0.46670105066837664  1.0000
  H   H2        1.0  0.7739647621894861  0.6238503502800724  0.5332942611880115  1.0000
  H   H3        1.0  0.24322552213516965  0.2963037540975081  0.7492418903294153  1.0000
  H   H4        1.0  0.7567766422635102  0.703708141881073  0.2507519129815209  1.0000
  H   H5        1.0  0.5176550874241598  0.2139657162887545  0.787519738547502  1.0000
  H   H6        1.0  0.4823431978738384  0.7860426241124827  0.21248090113221002  1.0000
  H   H7        1.0  0.7252107729462479  0.29897376176703727  0.261208320628171  1.0000
  H   H8        1.0  0.274785827003889  0.701023832605074  0.7387932128504391  1.0000
  H   H9        1.0  0.03970784180551589  0.13481040543943834  0.7014787189977342  1.0000
  H   H10       1.0  0.9602925376265433  0.8651883794012676  0.29852008601550745  1.0000
  H   H11       1.0  0.0555862939833176  0.8676553812278271  0.9093339481302395  1.0000
  H   H12       1.0  0.9444152798693821  0.13234220730446822  0.09066377716345643  1.0000
  H   H13       1.0  0.8482306598299659  0.6499503684996385  0.9818279690844353  1.0000
  H   H14       1.0  0.1517734005968308  0.35004722325978577  0.01816894292932147  1.0000
  H   H15       1.0  0.6155257684047369  0.9414409952985564  0.6670223958740494  1.0000
  H   H16       1.0  0.3844720255888491  0.0585554089121842  0.33297914869753253  1.0000
  H   H17       1.0  0.03696642681713771  0.48840852986548094  0.2780881210277713  1.0000
  H   H18       1.0  0.9630303204866024  0.5115926459784816  0.7219132500645317  1.0000
  C   C1        1.0  0.34267282457303583  0.338848346184065  0.48785962930052335  1.0000
  C   C2        1.0  0.657327798436711  0.6611564405606032  0.5121447227355987  1.0000
  C   C3        1.0  0.35314953706593133  0.2932231794354507  0.6451665751517341  1.0000
  C   C4        1.0  0.6468512836725752  0.7067863621148903  0.35483392432760746  1.0000
  C   C5        1.0  0.5050036214714382  0.24752991498014862  0.6660539879392221  1.0000
  C   C6        1.0  0.4949956124063988  0.7524712640909499  0.3339465698731346  1.0000
  C   C7        1.0  0.6441084128749636  0.2513079790691323  0.5265180037703134  1.0000
  C   C8        1.0  0.3558933079541546  0.7486931970820548  0.47348064994959327  1.0000
  C   C9        1.0  0.6220601420726056  0.2965201149609201  0.37313316506009636  1.0000
  C   C10       1.0  0.3779440153326377  0.7034798849365343  0.6268672747378262  1.0000
  C   C11       1.0  0.8100174403121443  0.20981513935868182  0.5421180575737594  1.0000
  C   C12       1.0  0.1899827402596017  0.790178909117472  0.4578878724338012  1.0000
  C   C13       1.0  0.8263708910189396  0.058951387069441794  0.6668355017611561  1.0000
  C   C14       1.0  0.1736282443717059  0.94104740845178  0.3331658915170835  1.0000
  C   C15       1.0  0.9518146697340696  0.0368516371418437  0.7370727764180887  1.0000
  C   C16       1.0  0.048181930970443376  0.9631459449361865  0.2629265754355005  1.0000
  C   C17       1.0  0.9599718259079565  0.8898608554297242  0.8520413858040713  1.0000
  C   C18       1.0  0.0400296502119204  0.11013433725861428  0.14795499333047965  1.0000
  C   C19       1.0  0.8442210047485617  0.7680474799187564  0.8944347630489631  1.0000
  C   C20       1.0  0.15578285870384428  0.2319453447409145  0.10556381989655254  1.0000
  C   C21       1.0  0.7149211314459337  0.9304874221420716  0.717958679240802  1.0000
  C   C22       1.0  0.28507919761097616  0.0695101893648129  0.2820438159429203  1.0000
  I   I1        1.0  0.27840129640316036  0.6571674213109093  0.074915814043102  1.0000
  I   I2        1.0  0.7215965468340216  0.3428301746747664  0.9250853127955381  1.0000
  N   N1        1.0  0.4745619056153245  0.33894372518739874  0.3533214746922583  1.0000
  N   N2        1.0  0.5254436439393118  0.661059833207311  0.6466740328293384  1.0000
  N   N3        1.0  0.7230578762049972  0.7875406485713654  0.8283547742887764  1.0000
  N   N4        1.0  0.27694364727254595  0.2124557666271087  0.17164664117539982  1.0000
  N   N5        1.0  0.9458808810499945  0.2972751334547112  0.4539261201324935  1.0000
  N   N6        1.0  0.05411586663093711  0.7027260362422182  0.5460741601472991  1.0000
  O   O1        1.0  0.9228494316244706  0.4390924133395443  0.3406051831983704  1.0000
  O   O2        1.0  0.0771446313764201  0.5609040044716167  0.6594008537306594  1.0000
