data_image0
_chemical_formula_structural       Cu12H24C96N36
_chemical_formula_sum              "Cu12 H24 C96 N36"
_cell_length_a       35.374623872665225
_cell_length_b       35.77641967380052
_cell_length_c       35.767373401858386
_cell_angle_alpha    89.99842020922344
_cell_angle_beta     89.99324540035165
_cell_angle_gamma    89.9918061712448

_space_group_name_H-M_alt    "P 1"
_space_group_IT_number       1

loop_
  _space_group_symop_operation_xyz
  'x, y, z'

loop_
  _atom_site_type_symbol
  _atom_site_label
  _atom_site_symmetry_multiplicity
  _atom_site_fract_x
  _atom_site_fract_y
  _atom_site_fract_z
  _atom_site_occupancy
  Cu  Cu1       1.0  0.3750529673505199  0.5906959780226656  0.6597654668112584  1.0000
  Cu  Cu2       1.0  0.3383018591969815  0.6263611709685006  0.5873031292876334  1.0000
  Cu  Cu3       1.0  0.41182339551263414  0.6633296241091171  0.6241409270380773  1.0000
  Cu  Cu4       1.0  0.6247501728962277  0.910055417750179  0.15940512335261306  1.0000
  Cu  Cu5       1.0  0.6614364672755002  0.874351300509616  0.0869302537933336  1.0000
  Cu  Cu6       1.0  0.5878705905836127  0.8377116042522771  0.1236211333060382  1.0000
  Cu  Cu7       1.0  0.8747733486008896  0.40938334805858284  0.8401745781262592  1.0000
  Cu  Cu8       1.0  0.8377767325391189  0.3735780066870617  0.9126003215165284  1.0000
  Cu  Cu9       1.0  0.9114756231644137  0.3367299234547544  0.8758565174349542  1.0000
  Cu  Cu10      1.0  0.12501868522974746  0.08989284995949019  0.3404722601237538  1.0000
  Cu  Cu11      1.0  0.161979183517893  0.12569992701309465  0.41301217749897035  1.0000
  Cu  Cu12      1.0  0.088244314200054  0.16228129417173415  0.3762456891524125  1.0000
  H   H1        1.0  0.31987085330276704  0.5219305620924003  0.6734768080530174  1.0000
  H   H2        1.0  0.26929862984442104  0.5700794571759502  0.5740776538590282  1.0000
  H   H3        1.0  0.4807027079694349  0.676616235946497  0.6802093702218459  1.0000
  H   H4        1.0  0.4303733464524129  0.5771167057569782  0.7283606026121137  1.0000
  H   H5        1.0  0.32520714648949683  0.6819311678750208  0.5190871871653755  1.0000
  H   H6        1.0  0.42498734076779954  0.7315830594036042  0.5689241313193989  1.0000
  H   H7        1.0  0.680094534224537  0.978425474022444  0.17325261372757694  1.0000
  H   H8        1.0  0.7305119371790668  0.9302370132302679  0.0737521712804465  1.0000
  H   H9        1.0  0.5188258726069604  0.8246384769837077  0.17975874513079765  1.0000
  H   H10       1.0  0.5695886305702587  0.9238460014371199  0.22803824517281873  1.0000
  H   H11       1.0  0.6746324788593085  0.8191532153266861  0.018631513064022404  1.0000
  H   H12       1.0  0.5746103202345766  0.7695741429974701  0.06814781663767633  1.0000
  H   H13       1.0  0.8194750877315755  0.47809860294919554  0.826505151498182  1.0000
  H   H14       1.0  0.7687378562213494  0.42976835683534625  0.9257348794580835  1.0000
  H   H15       1.0  0.9806084614303431  0.3235318731475373  0.8198680674513384  1.0000
  H   H16       1.0  0.9303595178754804  0.423046139041844  0.7716692251576875  1.0000
  H   H17       1.0  0.8245181590416379  0.31802041268434783  0.9807214538660746  1.0000
  H   H18       1.0  0.9244852032246627  0.2684224032014838  0.931149551957141  1.0000
  H   H19       1.0  0.18044296223220607  0.021468488404906297  0.32671783624467576  1.0000
  H   H20       1.0  0.23100401433048756  0.06975321675822238  0.4260486320355242  1.0000
  H   H21       1.0  0.0189777033192868  0.17525157052117626  0.320145582029106  1.0000
  H   H22       1.0  0.0696746874439569  0.0759702093713202  0.2719199125868101  1.0000
  H   H23       1.0  0.1752448708581014  0.1810088596272975  0.4811868666768079  1.0000
  H   H24       1.0  0.07516922783811  0.23055612697865505  0.43177012873863424  1.0000
  C   C1        1.0  0.3123497735148391  0.5385939702746895  0.6492679117511744  1.0000
  C   C2        1.0  0.28223293052356974  0.5335584859029368  0.6238941561163643  1.0000
  C   C3        1.0  0.2864881995669961  0.5632311868022412  0.5982258218907576  1.0000
  C   C4        1.0  0.46354448333092796  0.6524589969865104  0.687070894814454  1.0000
  C   C5        1.0  0.4678356380935186  0.626799163148732  0.7167112290072737  1.0000
  C   C6        1.0  0.43779912331879706  0.6013601457095629  0.7117143279836357  1.0000
  C   C7        1.0  0.3494584978319253  0.6891487206810183  0.5361589188606786  1.0000
  C   C8        1.0  0.37508608628120044  0.7190272494774063  0.5317936583543955  1.0000
  C   C9        1.0  0.4007179794505333  0.7145516336430118  0.5616497158169339  1.0000
  C   C10       1.0  0.687579500084567  0.961777672330342  0.149022906425337  1.0000
  C   C11       1.0  0.7176746586846862  0.9666981472520457  0.1236271965570737  1.0000
  C   C12       1.0  0.7133373802329147  0.9371252744319916  0.09790083247781213  1.0000
  C   C13       1.0  0.536102982356546  0.8487165451476953  0.18660366946271986  1.0000
  C   C14       1.0  0.5319267772468735  0.8743719901714753  0.21625797900713917  1.0000
  C   C15       1.0  0.5620646456847993  0.8996808929839091  0.21131965992869792  1.0000
  C   C16       1.0  0.6502949950262503  0.8119451716606246  0.0355996923932835  1.0000
  C   C17       1.0  0.6246058157845056  0.7821446257254222  0.031101786827470307  1.0000
  C   C18       1.0  0.5989220476621924  0.7865680896128494  0.06094286659492809  1.0000
  C   C19       1.0  0.811923259073012  0.46138921442859976  0.8506752479614621  1.0000
  C   C20       1.0  0.7817537069764741  0.46634980689513833  0.876009815423501  1.0000
  C   C21       1.0  0.7859963765702033  0.43665343813366037  0.9016432940640159  1.0000
  C   C22       1.0  0.9634434955888479  0.34768782835844547  0.812994495209374  1.0000
  C   C23       1.0  0.9678274665342671  0.373367637962417  0.7833725427138774  1.0000
  C   C24       1.0  0.9377539604049688  0.3988002756021913  0.7883317645665856  1.0000
  C   C25       1.0  0.8488382901114163  0.3108021876755913  0.9637357870136116  1.0000
  C   C26       1.0  0.8744903189707857  0.28094359055895507  0.9682052236219505  1.0000
  C   C27       1.0  0.900197453839489  0.28544528880443915  0.9383957883839856  1.0000
  C   C28       1.0  0.18792128534868618  0.03817146262620948  0.3509065832353002  1.0000
  C   C29       1.0  0.21806427868190784  0.03328113355708949  0.3762433215160074  1.0000
  C   C30       1.0  0.2137741998134999  0.06287400816251677  0.40194294250478185  1.0000
  C   C31       1.0  0.036231310074050796  0.15116112113831545  0.3132790236685069  1.0000
  C   C32       1.0  0.031969818623196  0.1254544439309555  0.2836534748794436  1.0000
  C   C33       1.0  0.062165038206416084  0.1001807434563773  0.2885874069955109  1.0000
  C   C34       1.0  0.150883003435041  0.18821449608847018  0.46424576512632854  1.0000
  C   C35       1.0  0.1252090678791973  0.21804095267989954  0.4687465084664666  1.0000
  C   C36       1.0  0.0994836405508082  0.21355003988913518  0.4389473931694711  1.0000
  C   C37       1.0  0.8490368575193017  0.0983639712169548  0.1250695798875157  1.0000
  C   C38       1.0  0.8750440780136088  0.15025120590728847  0.09933524652063142  1.0000
  C   C39       1.0  0.9010007531433217  0.12454277892441472  0.15132846711413353  1.0000
  C   C40       1.0  0.15127723986624628  0.401138951989445  0.6251600265187847  1.0000
  C   C41       1.0  0.125381700485697  0.34908465088919627  0.5995448596313366  1.0000
  C   C42       1.0  0.0993121177138434  0.37484874507341454  0.6514647241884434  1.0000
  C   C43       1.0  0.3493815242976837  0.9015259581214039  0.3750363293050328  1.0000
  C   C44       1.0  0.3754418810852441  0.8496607300759108  0.400746222926017  1.0000
  C   C45       1.0  0.4013113886589109  0.8753131376575636  0.34873316059751164  1.0000
  C   C46       1.0  0.6509228242962805  0.5988854809968698  0.8750062763783009  1.0000
  C   C47       1.0  0.5990403114550489  0.6252398856677529  0.8486782275299803  1.0000
  C   C48       1.0  0.6250434031143398  0.6509535960969399  0.9005912830610968  1.0000
  C   C49       1.0  0.7454206078218988  0.9945406788000568  0.123900146188916  1.0000
  C   C50       1.0  0.7696764726475676  0.019051834447850493  0.12417830495171243  1.0000
  C   C51       1.0  0.7964036286176537  0.045839869160026595  0.12450273689652391  1.0000
  C   C52       1.0  0.820790063363752  0.07014932663961558  0.1248463931288626  1.0000
  C   C53       1.0  0.2545714065883757  0.5055374422160738  0.6241466378327659  1.0000
  C   C54       1.0  0.23041611969420467  0.4808949353285143  0.6243797082449449  1.0000
  C   C55       1.0  0.2037617014857034  0.4539549568223436  0.6246866570921554  1.0000
  C   C56       1.0  0.17948565741242817  0.4294929928098056  0.6249084262162797  1.0000
  C   C57       1.0  0.2458434682022883  0.005472396810333199  0.37594472007415913  1.0000
  C   C58       1.0  0.2701082329753532  0.9809706160718503  0.3757114897206222  1.0000
  C   C59       1.0  0.29682303843850383  0.9541483802000668  0.3754415962736033  1.0000
  C   C60       1.0  0.3211615722826622  0.9297851756878257  0.3752210274423291  1.0000
  C   C61       1.0  0.7540690257684516  0.49434882766326627  0.8757884209382498  1.0000
  C   C62       1.0  0.7298857524798094  0.5189666159598331  0.8754948958887  1.0000
  C   C63       1.0  0.7032752978568411  0.545956508007606  0.8753152597712772  1.0000
  C   C64       1.0  0.6790726596294263  0.570492147478994  0.8752235962743599  1.0000
  C   C65       1.0  0.0042406168929645  0.12506729414782566  0.2557352008774103  1.0000
  C   C66       1.0  0.9799580784853461  0.12473659999533025  0.2312163630881514  1.0000
  C   C67       1.0  0.9533284799524254  0.124645799787551  0.20426365181832307  1.0000
  C   C68       1.0  0.9291480286497276  0.12467208389948328  0.17971203078887044  1.0000
  C   C69       1.0  0.49551358600201206  0.6265434247969848  0.7446452421034169  1.0000
  C   C70       1.0  0.5198100798151727  0.6262490974483651  0.7691332485680108  1.0000
  C   C71       1.0  0.5465179359832179  0.6258909955168122  0.7959784572891806  1.0000
  C   C72       1.0  0.5708507255621953  0.6255133636097624  0.8203652949444944  1.0000
  C   C73       1.0  0.995615509763965  0.3736390057191698  0.7554983925316636  1.0000
  C   C74       1.0  0.019978005548765103  0.3739525410397349  0.7310511381752534  1.0000
  C   C75       1.0  0.04673899621833041  0.37431221650308527  0.7042107141800287  1.0000
  C   C76       1.0  0.0710682710957116  0.374620133639034  0.6797911941793374  1.0000
  C   C77       1.0  0.5042880221083835  0.8746856829468044  0.24420901195833983  1.0000
  C   C78       1.0  0.48009664936294183  0.8749891117238631  0.2687889976745411  1.0000
  C   C79       1.0  0.45354908231541197  0.875140727441419  0.2957765387023557  1.0000
  C   C80       1.0  0.4294273407449367  0.8751543135199282  0.32036165910740527  1.0000
  C   C81       1.0  0.8744846916198198  0.2532358073586776  0.9958346659203914  1.0000
  C   C82       1.0  0.8745832869951897  0.22897102537357478  0.0201004461836192  1.0000
  C   C83       1.0  0.8747575470935444  0.20241696512362484  0.0468273035279339  1.0000
  C   C84       1.0  0.8749861099089599  0.17834183373611265  0.07120774916187142  1.0000
  C   C85       1.0  0.3751547568531421  0.7467084908823836  0.5041701364255646  1.0000
  C   C86       1.0  0.3752819283666824  0.7709723770584844  0.4799204714905443  1.0000
  C   C87       1.0  0.3754073337230608  0.7974923884683703  0.4531882388698349  1.0000
  C   C88       1.0  0.37546961704250487  0.8215921742660653  0.42884657532459164  1.0000
  C   C89       1.0  0.6246438486465563  0.75450533637251  0.0034431308396350004  1.0000
  C   C90       1.0  0.6247187158478056  0.730214706886599  0.9792219146498767  1.0000
  C   C91       1.0  0.6248374894369205  0.7034854256990142  0.9526918304873748  1.0000
  C   C92       1.0  0.6250198920669164  0.6791474958306765  0.9285856281686764  1.0000
  C   C93       1.0  0.12528918902666672  0.245719673682018  0.4964016054579831  1.0000
  C   C94       1.0  0.12536732565444453  0.26999673771929616  0.5206505897868468  1.0000
  C   C95       1.0  0.12539718821935247  0.2966640076303051  0.5472741708217371  1.0000
  C   C96       1.0  0.1254247610768005  0.3209091931289763  0.571490693754683  1.0000
  N   N1        1.0  0.3166125946537903  0.5840539228548776  0.6077624089576474  1.0000
  N   N2        1.0  0.3326546843269541  0.5687395797451912  0.6393105342600265  1.0000
  N   N3        1.0  0.4174383830451447  0.6112938736979601  0.6815989919622751  1.0000
  N   N4        1.0  0.4334213134880683  0.6428566990529986  0.6663035707523337  1.0000
  N   N5        1.0  0.39091557410188216  0.6844905548404725  0.5819850711082852  1.0000
  N   N6        1.0  0.35923153176273814  0.6686938948053296  0.5661669973181491  1.0000
  N   N7        1.0  0.6831342377439071  0.9164469452067221  0.1074332250706931  1.0000
  N   N8        1.0  0.6671600970474855  0.9317630775863245  0.13898541374889825  1.0000
  N   N9        1.0  0.5823618533886402  0.8896801383596225  0.1811923303412186  1.0000
  N   N10       1.0  0.5662725044727921  0.8582041744266177  0.16583932744351423  1.0000
  N   N11       1.0  0.6087548316933679  0.8165318632044957  0.0813989304213791  1.0000
  N   N12       1.0  0.6404980642220224  0.8322749563261809  0.0656648253643084  1.0000
  N   N13       1.0  0.8161714045722448  0.41588462946403126  0.8921249393258108  1.0000
  N   N14       1.0  0.8322652947025374  0.43125661888362277  0.8606256205409865  1.0000
  N   N15       1.0  0.9172965009518351  0.38884622618030557  0.8183899618958963  1.0000
  N   N16       1.0  0.9332446528066498  0.3572554754271521  0.833705544060763  1.0000
  N   N17       1.0  0.8904268366029626  0.31548950135744747  0.9180036540967863  1.0000
  N   N18       1.0  0.8586719602678698  0.3312523566873366  0.9337431366253313  1.0000
  N   N19       1.0  0.1835551673607796  0.08355849240346197  0.3924467394232352  1.0000
  N   N20       1.0  0.1675102779424762  0.06821745101001399  0.3609327709994972  1.0000
  N   N21       1.0  0.0825334649344427  0.1102199437732665  0.3186613290682914  1.0000
  N   N22       1.0  0.06645736470544959  0.14172714924126237  0.3340144157142433  1.0000
  N   N23       1.0  0.1092604035935381  0.18353269498762606  0.4185064888226863  1.0000
  N   N24       1.0  0.1410412509639869  0.1678197746038705  0.4342345314248774  1.0000
  N   N25       1.0  0.8474709379798853  0.1242082621663556  0.09758420319820262  1.0000
  N   N26       1.0  0.9025923129599391  0.15198753096805714  0.1254324910144078  1.0000
  N   N27       1.0  0.8749907362868683  0.09694874182064689  0.15271937819817086  1.0000
  N   N28       1.0  0.1528987005076701  0.3752083672413917  0.5977459642056504  1.0000
  N   N29       1.0  0.0978217770900187  0.3473372116158373  0.6256370901691781  1.0000
  N   N30       1.0  0.12526132144470378  0.40252537372203523  0.6527885208444602  1.0000
  N   N31       1.0  0.3478728902690876  0.8757143929218711  0.40254778189786583  1.0000
  N   N32       1.0  0.4029546363103265  0.8478826492048198  0.3746213375219867  1.0000
  N   N33       1.0  0.3752942665866428  0.9029013834348301  0.34734378870410154  1.0000
  N   N34       1.0  0.6249449627542277  0.597530446547573  0.8473628423094084  1.0000
  N   N35       1.0  0.5975186193414787  0.6527547999684414  0.8744875327601848  1.0000
  N   N36       1.0  0.6525333462550832  0.6248032172773533  0.9024206504751221  1.0000
