data_image0
_chemical_formula_structural       Li8H12C28N4O16
_chemical_formula_sum              "Li8 H12 C28 N4 O16"
_cell_length_a       8.395145953336804
_cell_length_b       8.395134467734971
_cell_length_c       11.208414516429873
_cell_angle_alpha    77.71530516424106
_cell_angle_beta     77.7153988629801
_cell_angle_gamma    81.68986519873282

_space_group_name_H-M_alt    "P 1"
_space_group_IT_number       1

loop_
  _space_group_symop_operation_xyz
  'x, y, z'

loop_
  _atom_site_type_symbol
  _atom_site_label
  _atom_site_symmetry_multiplicity
  _atom_site_fract_x
  _atom_site_fract_y
  _atom_site_fract_z
  _atom_site_occupancy
  Li  Li1       1.0  0.4513394244424874  0.5895085748618669  0.12436418991126172  1.0000
  Li  Li2       1.0  0.4104915266805947  0.5486612143661347  0.37563588107207113  1.0000
  Li  Li3       1.0  0.5486619016202214  0.4104910017913356  0.8756356721391326  1.0000
  Li  Li4       1.0  0.5895097993821068  0.4513383622870748  0.6243639809783231  1.0000
  Li  Li5       1.0  0.9553364519248361  0.3467091680676049  0.526810930656829  1.0000
  Li  Li6       1.0  0.6532907443969905  0.0446652278026889  0.9731888711647084  1.0000
  Li  Li7       1.0  0.04466108496809081  0.6532916267498194  0.47319022715272746  1.0000
  Li  Li8       1.0  0.3467103241638442  0.9553368002837528  0.026810646508614956  1.0000
  H   H1        1.0  0.845962125115527  0.4731746930550714  0.20984242255900645  1.0000
  H   H2        1.0  0.5268253374509302  0.15403856120577328  0.29015701128972887  1.0000
  H   H3        1.0  0.15403785326188316  0.5268261080028508  0.7901574588418254  1.0000
  H   H4        1.0  0.473174773293181  0.8459610177522164  0.7098421489688603  1.0000
  H   H5        1.0  0.33144840016107935  0.2118693625287094  0.16419060496068025  1.0000
  H   H6        1.0  0.7881309312118746  0.6685512558396667  0.33580882472856627  1.0000
  H   H7        1.0  0.6685515782163308  0.7881314385292058  0.8358092764401517  1.0000
  H   H8        1.0  0.211870394850834  0.33144832081353565  0.6641910373218279  1.0000
  H   H9        1.0  0.9985389650447304  0.12773721994122414  0.9648547759876961  1.0000
  H   H10       1.0  0.8722634540768229  0.0014625288915795012  0.5351441722409402  1.0000
  H   H11       1.0  0.001461013332679814  0.872263581116691  0.03514510541314314  1.0000
  H   H12       1.0  0.1277365279163476  0.9985382757830268  0.46485481582912047  1.0000
  C   C1        1.0  0.1473743928369728  0.44771074033693037  0.2823406954242245  1.0000
  C   C2        1.0  0.5522881544393742  0.8526257441475735  0.2176586717777126  1.0000
  C   C3        1.0  0.8526270655924293  0.5522876142163399  0.7176584454839271  1.0000
  C   C4        1.0  0.44771099125647856  0.14737137844858952  0.7823419177276986  1.0000
  C   C5        1.0  0.7404118700410082  0.3427987980874505  0.04143738702521921  1.0000
  C   C6        1.0  0.657202186631352  0.25958818817515805  0.45856200784866974  1.0000
  C   C7        1.0  0.2595894560217006  0.6572007785657592  0.9585624750251751  1.0000
  C   C8        1.0  0.34279913943135654  0.7404113884780514  0.5414378542017245  1.0000
  C   C9        1.0  0.9392400981263693  0.38536626224438925  0.16909654073079836  1.0000
  C   C10       1.0  0.6146336593785051  0.060759968982004905  0.330903988687801  1.0000
  C   C11       1.0  0.06076000538621433  0.6146333094802258  0.83090440618934  1.0000
  C   C12       1.0  0.3853652251997135  0.9392396014307068  0.6690971497713106  1.0000
  C   C13       1.0  0.09609578039665934  0.35604392953692343  0.19755892646809764  1.0000
  C   C14       1.0  0.6439559780684692  0.9039036393080977  0.3024413064073172  1.0000
  C   C15       1.0  0.9039031077973262  0.643955644492479  0.8024413186602429  1.0000
  C   C16       1.0  0.35604181271055785  0.0960947004594104  0.6975610891100742  1.0000
  C   C17       1.0  0.20824657337913524  0.23915657798667667  0.1432495454497555  1.0000
  C   C18       1.0  0.7608432626521593  0.7917535465949613  0.3567498084986908  1.0000
  C   C19       1.0  0.7917523148148505  0.7608429960427187  0.8567506996785779  1.0000
  C   C20       1.0  0.23915562554182662  0.2082460274344413  0.6432504366296425  1.0000
  C   C21       1.0  0.02368280935651512  0.19009482044214107  0.033833083816048805  1.0000
  C   C22       1.0  0.8099064677266626  0.9763177008281685  0.46616591500561805  1.0000
  C   C23       1.0  0.9763158213356038  0.8099072050205008  0.9661668169352209  1.0000
  C   C24       1.0  0.19009472958510545  0.023683101541657  0.5338337748562481  1.0000
  C   C25       1.0  0.9029039851125235  0.3036344124046053  0.08331747999175577  1.0000
  C   C26       1.0  0.6963649084088177  0.09709700211897847  0.4166821294417531  1.0000
  C   C27       1.0  0.09709612201582017  0.6963651629366937  0.9166825735976117  1.0000
  C   C28       1.0  0.303635198719526  0.9029025732223275  0.5833179241476144  1.0000
  N   N1        1.0  0.17255111824943012  0.15358673553574684  0.06536866495407169  1.0000
  N   N2        1.0  0.8464138962136264  0.8274492121814915  0.4346305563168186  1.0000
  N   N3        1.0  0.8274476411936221  0.8464140642102721  0.9346314079857334  1.0000
  N   N4        1.0  0.1535873010981419  0.17255159018833416  0.5653691335450473  1.0000
  O   O1        1.0  0.03785612026868534  0.49190018105711875  0.3703964084355746  1.0000
  O   O2        1.0  0.5081017603677297  0.9621451225420399  0.12960223134483329  1.0000
  O   O3        1.0  0.9621437329735516  0.5081018493341034  0.6296024074459508  1.0000
  O   O4        1.0  0.4918995620792118  0.0378544504944784  0.8703985240363393  1.0000
  O   O5        1.0  0.6481847672084131  0.4634053309390111  0.07494470719267098  1.0000
  O   O6        1.0  0.5365952874191039  0.3518160236767755  0.42505541767295796  1.0000
  O   O7        1.0  0.35181521116899717  0.5365954701189112  0.9250551742081612  1.0000
  O   O8        1.0  0.46340481970923986  0.6481835516645303  0.5749446359164094  1.0000
  O   O9        1.0  0.29597398152117904  0.4747815033898632  0.26151739449244343  1.0000
  O   O10       1.0  0.525221002085651  0.7040257917302879  0.23847973843749054  1.0000
  O   O11       1.0  0.7040258789525923  0.5252205342347338  0.7384796347275325  1.0000
  O   O12       1.0  0.47477936977610125  0.2959713394111461  0.7615188728673912  1.0000
  O   O13       1.0  0.7080819448908856  0.2551630985660935  0.9705948415100065  1.0000
  O   O14       1.0  0.7448375395721101  0.29191733041584195  0.5294051472196272  1.0000
  O   O15       1.0  0.29191790473559115  0.7448389282084448  0.029404867702297104  1.0000
  O   O16       1.0  0.2551626963071669  0.7080810192088405  0.47059507855827576  1.0000
