data_image0
_chemical_formula_structural       Cd6H12C12N18Cl6
_chemical_formula_sum              "Cd6 H12 C12 N18 Cl6"
_cell_length_a       11.133769364000157
_cell_length_b       11.60214864982542
_cell_length_c       11.602123808015925
_cell_angle_alpha    120.00011877044359
_cell_angle_beta     89.99998979365502
_cell_angle_gamma    89.99999133977836

_space_group_name_H-M_alt    "P 1"
_space_group_IT_number       1

loop_
  _space_group_symop_operation_xyz
  'x, y, z'

loop_
  _atom_site_type_symbol
  _atom_site_label
  _atom_site_symmetry_multiplicity
  _atom_site_fract_x
  _atom_site_fract_y
  _atom_site_fract_z
  _atom_site_occupancy
  Cd  Cd1       1.0  0.7500091800560326  0.6140241687211089  0.22804976944146926  1.0000
  Cd  Cd2       1.0  0.4166737052176118  0.771952368609533  0.38597380632356254  1.0000
  Cd  Cd3       1.0  0.08334186223048329  0.6140215880641833  0.38597479567477677  1.0000
  Cd  Cd4       1.0  0.2500086711309777  0.38597628869286643  0.7719507786027009  1.0000
  Cd  Cd5       1.0  0.9166733068914256  0.22804704187013414  0.6140261890622583  1.0000
  Cd  Cd6       1.0  0.5833423371926613  0.38597792578812573  0.6140253097772898  1.0000
  H   H1        1.0  0.7649636448448192  0.9522383601448614  0.368392787308153  1.0000
  H   H2        1.0  0.431623711651092  0.631610919235122  0.5838494930606046  1.0000
  H   H3        1.0  0.09829102356202671  0.41615481054989817  0.047759069419285524  1.0000
  H   H4        1.0  0.26496321461373645  0.047761097383094905  0.6316072581724299  1.0000
  H   H5        1.0  0.9316233270449957  0.36838948185823744  0.41615185692629103  1.0000
  H   H6        1.0  0.5982914061115495  0.5838446986663898  0.9522410310965699  1.0000
  H   H7        1.0  0.9017205574172279  0.3683915059297647  0.9522417896927706  1.0000
  H   H8        1.0  0.23504967327289714  0.5838481234187753  0.6316083757956648  1.0000
  H   H9        1.0  0.568387877613077  0.047760638702953905  0.4161473121757027  1.0000
  H   H10       1.0  0.40172103909404916  0.6316079091870324  0.0477582106304411  1.0000
  H   H11       1.0  0.7350492897903111  0.41615134338443477  0.36839081765053544  1.0000
  H   H12       1.0  0.06838821170714482  0.9522388797852488  0.5838519363022103  1.0000
  C   C1        1.0  0.8395313822358118  0.9204054324462168  0.4059035584439813  1.0000
  C   C2        1.0  0.5061932555006337  0.5941008962662337  0.5145010980645921  1.0000
  C   C3        1.0  0.1728596516650853  0.4855017075213369  0.07959778493595597  1.0000
  C   C4        1.0  0.3395318519501629  0.07959599245170781  0.5940965957533493  1.0000
  C   C5        1.0  0.0061927953051607995  0.40589764626153635  0.4854976733245665  1.0000
  C   C6        1.0  0.6728591527360805  0.5144977785698828  0.9204022909574405  1.0000
  C   C7        1.0  0.8271573099084577  0.4058943688443507  0.9203999581861027  1.0000
  C   C8        1.0  0.16048823102970292  0.5145061918594749  0.5941042151976248  1.0000
  C   C9        1.0  0.49382641772609753  0.079601732525802  0.48549261263830357  1.0000
  C   C10       1.0  0.3271577917278847  0.5941050693943312  0.07959920484596239  1.0000
  C   C11       1.0  0.6604878298319649  0.48549429331670535  0.40589636240640214  1.0000
  C   C12       1.0  0.9938259283477748  0.9203986492739915  0.5145069929852609  1.0000
  N   N1        1.0  0.9166751310809219  0.003496125280364  0.5017504090020708  1.0000
  N   N2        1.0  0.5833351531662814  0.4982545552051436  0.5017497921798153  1.0000
  N   N3        1.0  0.25000504928409134  0.4982505758587763  0.9964977667019141  1.0000
  N   N4        1.0  0.4166754737017301  0.9965042804454354  0.4982492220967671  1.0000
  N   N5        1.0  0.08333557373070022  0.5017449586476064  0.4982494513624901  1.0000
  N   N6        1.0  0.7500047183873733  0.5017488863064727  0.0035014218060070083  1.0000
  N   N7        1.0  0.8668914025423361  0.7933749526582049  0.36177510187022943  1.0000
  N   N8        1.0  0.5335532658355433  0.6382260219704963  0.4316010424883744  1.0000
  N   N9        1.0  0.20022143627764416  0.5683970963891414  0.20661872154226307  1.0000
  N   N10       1.0  0.36689094608585304  0.20662447325995  0.6382249099537489  1.0000
  N   N11       1.0  0.0335536957488785  0.36177450256893456  0.5683987151175316  1.0000
  N   N12       1.0  0.7002218715760621  0.43160238121650724  0.7933813453160925  1.0000
  N   N13       1.0  0.7997901332307435  0.36177282309145653  0.7933842024231552  1.0000
  N   N14       1.0  0.13312194008064887  0.43160714897192093  0.6382285650585972  1.0000
  N   N15       1.0  0.4664592085630233  0.20662133866325408  0.5683912916773863  1.0000
  N   N16       1.0  0.2997905851002757  0.638227618884315  0.20661632918314862  1.0000
  N   N17       1.0  0.6331224319811427  0.5683933446909465  0.36177202158165056  1.0000
  N   N18       1.0  0.9664596523741479  0.7933790516235109  0.4316083229826972  1.0000
  Cl  Cl1       1.0  0.9166751211772849  0.4482945446343721  0.22414783441728053  1.0000
  Cl  Cl2       1.0  0.5833441381169138  0.7758534033742779  0.22414826546629749  1.0000
  Cl  Cl3       1.0  0.2500095585295199  0.7758510951023183  0.5517018247190107  1.0000
  Cl  Cl4       1.0  0.41667548360549506  0.5517048658430923  0.7758512990559582  1.0000
  Cl  Cl5       1.0  0.08334455214826869  0.22414710572402904  0.7758514756986373  1.0000
  Cl  Cl6       1.0  0.7500091908259846  0.22414936230988058  0.4482978614130247  1.0000
