data_image0
_chemical_formula_structural       Sr2Cu4H24C20N8O26
_chemical_formula_sum              "Sr2 Cu4 H24 C20 N8 O26"
_cell_length_a       9.103182857222553
_cell_length_b       9.162939632777501
_cell_length_c       11.71003797443095
_cell_angle_alpha    92.12278966373448
_cell_angle_beta     109.99167120801336
_cell_angle_gamma    112.17732984194659

_space_group_name_H-M_alt    "P 1"
_space_group_IT_number       1

loop_
  _space_group_symop_operation_xyz
  'x, y, z'

loop_
  _atom_site_type_symbol
  _atom_site_label
  _atom_site_symmetry_multiplicity
  _atom_site_fract_x
  _atom_site_fract_y
  _atom_site_fract_z
  _atom_site_occupancy
  Sr  Sr1       1.0  0.7699038222623076  0.5072128518260824  0.0639247138432637  1.0000
  Sr  Sr2       1.0  0.23009601822272435  0.49278206825930226  0.9360751208274324  1.0000
  Cu  Cu1       1.0  0.43266527297404184  0.3203460223928758  0.6811953590342698  1.0000
  Cu  Cu2       1.0  0.5673423538680141  0.6796608444903853  0.31882227476744873  1.0000
  Cu  Cu3       1.0  0.31871201983780406  0.1902983722892486  0.33109238964307514  1.0000
  Cu  Cu4       1.0  0.6812844648418449  0.80969178384656  0.66889530904178  1.0000
  H   H1        1.0  0.9561816222176419  0.4961899910988449  0.5782202870196187  1.0000
  H   H2        1.0  0.043817277079135464  0.5038157904958425  0.4217762194475014  1.0000
  H   H3        1.0  0.2011486079970624  0.8801425723325238  0.5693635936238125  1.0000
  H   H4        1.0  0.7988454874842148  0.11984998458670763  0.430634649675632  1.0000
  H   H5        1.0  0.9492803201421015  0.8304824415838397  0.9497888659617576  1.0000
  H   H6        1.0  0.050721146813614795  0.16951608465899426  0.0502098022680144  1.0000
  H   H7        1.0  0.005803404453097066  0.8854800424296912  0.0928245769110703  1.0000
  H   H8        1.0  0.9941974437924088  0.11451968944313509  0.9071756731014489  1.0000
  H   H9        1.0  0.7295342376424189  0.14013823389171876  0.04056481361911322  1.0000
  H   H10       1.0  0.27046490279532526  0.8598603069030161  0.9594349481967441  1.0000
  H   H11       1.0  0.8380865095080311  0.2239450779229131  0.9666344934235697  1.0000
  H   H12       1.0  0.16191262805945433  0.7760534673099571  0.03336355982827402  1.0000
  H   H13       1.0  0.6297684307649051  0.77012166796424  0.04791480123219572  1.0000
  H   H14       1.0  0.3702352072102715  0.22988166279009192  0.95208373554636  1.0000
  H   H15       1.0  0.5588341413767992  0.7138183665965626  0.9022666686410687  1.0000
  H   H16       1.0  0.4411660025160416  0.2861849926428163  0.09773094567059101  1.0000
  H   H17       1.0  0.3666487762006981  0.0363862847926555  0.7778944550906247  1.0000
  H   H18       1.0  0.633350364237046  0.9636122560020797  0.22210530672523285  1.0000
  H   H19       1.0  0.5655209709746958  0.14147072372748679  0.8428373316174245  1.0000
  H   H20       1.0  0.4344764573499021  0.8585266326463525  0.15715937915575043  1.0000
  H   H21       1.0  0.22005996559492055  0.8685312952338647  0.3255094623083394  1.0000
  H   H22       1.0  0.7799339700824603  0.13146608740595409  0.6744871802799537  1.0000
  H   H23       1.0  0.4092436382983494  0.940065583770199  0.32111078902596557  1.0000
  H   H24       1.0  0.5907542575433383  0.05993537937985139  0.6788878649453522  1.0000
  C   C1        1.0  0.6787114827945049  0.36982794173551536  0.4440674850942514  1.0000
  C   C2        1.0  0.3212938644235591  0.6301765778778402  0.5559323941629728  1.0000
  C   C3        1.0  0.8194926356499935  0.44293142505004107  0.5580307869224727  1.0000
  C   C4        1.0  0.18050712493309365  0.5570659078956411  0.4419682473926443  1.0000
  C   C5        1.0  0.7434501011798532  0.4331714285749371  0.6453397372609545  1.0000
  C   C6        1.0  0.2565549383250173  0.5668246585416199  0.35465979950927823  1.0000
  C   C7        1.0  0.6441279253516258  0.3340140429037106  0.3102956210256878  1.0000
  C   C8        1.0  0.35587680889675255  0.6659916734633881  0.6897092571423117  1.0000
  C   C9        1.0  0.7965800482647155  0.47572333106203496  0.7808763682529121  1.0000
  C   C10       1.0  0.2034242825821053  0.5242763900782704  0.21911796997044772  1.0000
  C   C11       1.0  0.9949636595741969  0.8628249361098029  0.6396603032668013  1.0000
  C   C12       1.0  0.005030126345190013  0.13717725671715192  0.3603407185843892  1.0000
  C   C13       1.0  0.067693704461199  0.8496036269750676  0.5533780084917765  1.0000
  C   C14       1.0  0.9323054431521954  0.15039490272434364  0.4466260247341154  1.0000
  C   C15       1.0  0.9263866535485334  0.7894955353811496  0.4398748530099539  1.0000
  C   C16       1.0  0.07361116526146111  0.2105078361910628  0.5601247091698057  1.0000
  C   C17       1.0  0.0543664518707843  0.9155835222538825  0.7738494116555118  1.0000
  C   C18       1.0  0.9456250859974561  0.0844162744837433  0.22615264985532957  1.0000
  C   C19       1.0  0.8896870549709419  0.7374173320935852  0.30907508101368125  1.0000
  C   C20       1.0  0.11030865980537635  0.26257884207841886  0.6909177244348116  1.0000
  N   N1        1.0  0.5700436803407811  0.3584356400625096  0.58439605338814  1.0000
  N   N2        1.0  0.42996557440709193  0.6415748307591402  0.4156212682546681  1.0000
  N   N3        1.0  0.5319471638937757  0.32141135109353053  0.46655248167814284  1.0000
  N   N4        1.0  0.46805311827601787  0.6785872157112324  0.5334339191145716  1.0000
  N   N5        1.0  0.7823791401538501  0.770216985165149  0.46045623779784256  1.0000
  N   N6        1.0  0.2176248299317152  0.2297947403618821  0.5395571642618222  1.0000
  N   N7        1.0  0.8225651781777971  0.8129743646383575  0.5781508162725971  1.0000
  N   N8        1.0  0.1774269525683252  0.1870242664124433  0.4218342863793794  1.0000
  O   O1        1.0  0.6695716275348503  0.4534816157017829  0.8170699643143708  1.0000
  O   O2        1.0  0.3304282871116087  0.5465109003995606  0.1829272535838768  1.0000
  O   O3        1.0  0.9490018498409682  0.5264016200038525  0.8558958985965718  1.0000
  O   O4        1.0  0.05099216860862305  0.473593345337541  0.1441032529113144  1.0000
  O   O5        1.0  0.48030595063367093  0.2538024730168971  0.24023348892149707  1.0000
  O   O6        1.0  0.5196953737397011  0.7462008523177488  0.7597738299812065  1.0000
  O   O7        1.0  0.7600028604312856  0.3786637100530754  0.2683688399064082  1.0000
  O   O8        1.0  0.23999364249147698  0.6213444834203513  0.7316339397652741  1.0000
  O   O9        1.0  0.7276098939989952  0.6802614784592224  0.23544857242233527  1.0000
  O   O10       1.0  0.27238877461627453  0.3197334622165045  0.7645466833493657  1.0000
  O   O11       1.0  0.0023989309155964646  0.7425251491099871  0.2687134887668848  1.0000
  O   O12       1.0  0.9976106118672234  0.2574757190899106  0.7312882400940738  1.0000
  O   O13       1.0  0.9327481142914779  0.902005870606139  0.8135344172691036  1.0000
  O   O14       1.0  0.06725390869404892  0.09799383623821711  0.18647212020643175  1.0000
  O   O15       1.0  0.2117790036989433  0.9717482282111118  0.8434559290393013  1.0000
  O   O16       1.0  0.7882177346242685  0.028252733338625498  0.15654668885309056  1.0000
  O   O17       1.0  0.9730400434622626  0.7925217713388691  0.029922093684156385  1.0000
  O   O18       1.0  0.026961427798838103  0.2074767482467763  0.970079137391636  1.0000
  O   O19       1.0  0.7316909375894413  0.21262228654180146  0.9798047098800213  1.0000
  O   O20       1.0  0.26830765829952696  0.7873750558988916  0.020194016946135193  1.0000
  O   O21       1.0  0.5646351033943446  0.6746307143732436  0.9821197001864449  1.0000
  O   O22       1.0  0.435367997207699  0.3253714069317227  0.017882073012437213  1.0000
  O   O23       1.0  0.46817316600878917  0.10248601007842949  0.7595152432393847  1.0000
  O   O24       1.0  0.5318230205900037  0.8975137642125902  0.2404820682532645  1.0000
  O   O25       1.0  0.33359485083644097  0.961366713106109  0.35656690822683856  1.0000
  O   O26       1.0  0.6664019587779536  0.03863184889772241  0.6434313843290839  1.0000
