data_image0
_chemical_formula_structural       Al2H30C36O12
_chemical_formula_sum              "Al2 H30 C36 O12"
_cell_length_a       4.003331947017543
_cell_length_b       17.18382141521552
_cell_length_c       17.183827985243838
_cell_angle_alpha    119.99987236990687
_cell_angle_beta     89.99966568549209
_cell_angle_gamma    90.00014814896862

_space_group_name_H-M_alt    "P 1"
_space_group_IT_number       1

loop_
  _space_group_symop_operation_xyz
  'x, y, z'

loop_
  _atom_site_type_symbol
  _atom_site_label
  _atom_site_symmetry_multiplicity
  _atom_site_fract_x
  _atom_site_fract_y
  _atom_site_fract_z
  _atom_site_occupancy
  Al  Al1       1.0  0.970253511429931  0.5000002972165093  0.5000002132710222  1.0000
  Al  Al2       1.0  0.029715881141122204  0.16666539030821081  0.8333332921143182  1.0000
  H   H1        1.0  0.2707061112439463  0.11188977902644134  0.5277333853714126  1.0000
  H   H2        1.0  0.7157528756149747  0.10959654528820559  0.5280686098039027  1.0000
  H   H3        1.0  0.7299975420858899  0.19538297220691453  0.44503132766492115  1.0000
  H   H4        1.0  0.2849582844324559  0.19554279982415315  0.4426453499362424  1.0000
  H   H5        1.0  0.2707413118146392  0.9158390154290429  0.888108428727932  1.0000
  H   H6        1.0  0.7157855827681631  0.9184653407261649  0.8903991521327156  1.0000
  H   H7        1.0  0.7300188038934011  0.7496418794879246  0.804610361562112  1.0000
  H   H8        1.0  0.2849820007098955  0.74710105420813  0.8044559899937694  1.0000
  H   H9        1.0  0.27072870422720285  0.4722695956651606  0.08415835557395465  1.0000
  H   H10       1.0  0.7157780147118802  0.4719340731324166  0.08152911188771127  1.0000
  H   H11       1.0  0.7300220403529637  0.5549724480897993  0.2503538096812291  1.0000
  H   H12       1.0  0.2849802366855272  0.557359974444715  0.25289684874147866  1.0000
  H   H13       1.0  0.27260616362313067  0.5592369900690598  0.8082693527901199  1.0000
  H   H14       1.0  0.5295206975522933  0.5607861580106502  0.7251609099638329  1.0000
  H   H15       1.0  0.711113266848571  0.5557577014310339  0.8167972094336804  1.0000
  H   H16       1.0  0.7269461622463851  0.4742796991857786  0.8925104263653337  1.0000
  H   H17       1.0  0.46999469665976795  0.39105817309403096  0.8938040742776822  1.0000
  H   H18       1.0  0.28851895946792183  0.4828496456211012  0.8890409716195008  1.0000
  H   H19       1.0  0.2725693645325081  0.7490359777971135  0.44076543037547805  1.0000
  H   H20       1.0  0.5294798856543748  0.6643760178537333  0.4392105192822766  1.0000
  H   H21       1.0  0.7110766209176448  0.7610430232217666  0.4442388441275184  1.0000
  H   H22       1.0  0.726943312355843  0.9182343749225622  0.5257226673834267  1.0000
  H   H23       1.0  0.4699884656623611  0.0027474859508485974  0.608944581547938  1.0000
  H   H24       1.0  0.2885110565761124  0.9061954584941958  0.5171507302553521  1.0000
  H   H25       1.0  0.27258095079967154  0.19173251927978188  0.25096643218812886  1.0000
  H   H26       1.0  0.529493881237734  0.27483758821501436  0.335625579684134  1.0000
  H   H27       1.0  0.7110882791177177  0.18320043128319702  0.2389579625070724  1.0000
  H   H28       1.0  0.7269515729898829  0.1074910617134464  0.08176621533365139  1.0000
  H   H29       1.0  0.46999924326610915  0.1062004169425706  0.9972542222404998  1.0000
  H   H30       1.0  0.2885216501861478  0.1109605593931988  0.09380697100142749  1.0000
  C   C1        1.0  0.4758516520911016  0.4320745797513652  0.36237879714258264  1.0000
  C   C2        1.0  0.4758415995293603  0.4303053691287389  0.5679263832743331  1.0000
  C   C3        1.0  0.4758477848678809  0.6376214834372932  0.5696949449527365  1.0000
  C   C4        1.0  0.5238530379026901  0.23418681854720086  0.7630938532745404  1.0000
  C   C5        1.0  0.5238667922000957  0.02890482142495196  0.7658100821310825  1.0000
  C   C6        1.0  0.5238654624123598  0.2369059162269237  0.9710956939497918  1.0000
  C   C7        1.0  0.5049396795399944  0.28738296700768023  0.7166785404355522  1.0000
  C   C8        1.0  0.49506215838373896  0.3838182579635615  0.6210184769494376  1.0000
  C   C9        1.0  0.49772908836526153  0.24359463150218372  0.62331027261515  1.0000
  C   C10       1.0  0.49557582264834826  0.4303379320847328  0.7161061005008945  1.0000
  C   C11       1.0  0.5025159515042718  0.290443149116598  0.576847032119609  1.0000
  C   C12       1.0  0.5041802870979382  0.3824946228662896  0.7635198935575715  1.0000
  C   C13       1.0  0.49674293129866953  0.15218525062361712  0.5382039924411046  1.0000
  C   C14       1.0  0.5039254179801063  0.20561075759157177  0.4852452374793188  1.0000
  C   C15       1.0  0.5049409829369723  0.929292726730317  0.712614155191737  1.0000
  C   C16       1.0  0.49506178539087387  0.7371965845433409  0.6161790178633949  1.0000
  C   C17       1.0  0.4977561344857549  0.8797109420648112  0.7564032642288864  1.0000
  C   C18       1.0  0.49555973188895314  0.7857697870943453  0.5696624325384505  1.0000
  C   C19       1.0  0.5025321917365774  0.7863993657962213  0.7095530449204547  1.0000
  C   C20       1.0  0.5041700230400538  0.8810229379876517  0.6175040520007967  1.0000
  C   C21       1.0  0.49677085778344593  0.8860143293637748  0.8478136423089707  1.0000
  C   C22       1.0  0.5039549143747594  0.7796290377176548  0.7943849695323947  1.0000
  C   C23       1.0  0.5049551586330949  0.28332523991843317  0.0707055305941964  1.0000
  C   C24       1.0  0.49506657145533234  0.3789838315741889  0.26280185088652525  1.0000
  C   C25       1.0  0.4977560861606918  0.37669392778984456  0.12028730288551505  1.0000
  C   C26       1.0  0.49557369558453257  0.2838968642289288  0.21423537706199614  1.0000
  C   C27       1.0  0.5025262265289144  0.4231558214529088  0.21359958841402715  1.0000
  C   C28       1.0  0.504184927299413  0.2364826109816036  0.1189762082119117  1.0000
  C   C29       1.0  0.49676498767122734  0.4617986676867289  0.11398329715575525  1.0000
  C   C30       1.0  0.5039479939416013  0.5147586307562406  0.2203682014468598  1.0000
  C   C31       1.0  0.5025399618548863  0.5315919451633776  0.7686429443541628  1.0000
  C   C32       1.0  0.4970452791832187  0.4346746551016879  0.8647745439687782  1.0000
  C   C33       1.0  0.5025124119587474  0.7370507063437659  0.4684047285020371  1.0000
  C   C34       1.0  0.4970344013992475  0.9301035567920479  0.565327548871899  1.0000
  C   C35       1.0  0.5025269918428847  0.23135595494392186  0.26294823086109886  1.0000
  C   C36       1.0  0.49704838875453555  0.1352289690247019  0.0699003800892015  1.0000
  O   O1        1.0  0.7013619669222211  0.5965192497594669  0.5880081458483913  1.0000
  O   O2        1.0  0.7013661389520466  0.4914877937446605  0.40348067271914084  1.0000
  O   O3        1.0  0.7013618743208454  0.4119907548373972  0.508508578512668  1.0000
  O   O4        1.0  0.2318939391034078  0.5998589401000984  0.5161231356570113  1.0000
  O   O5        1.0  0.23188742723658615  0.4838767702897614  0.5837365856050241  1.0000
  O   O6        1.0  0.23188930843308952  0.4162629346932576  0.40014145081325836  1.0000
  O   O7        1.0  0.7678823545769903  0.18334527988623958  0.9333611460420811  1.0000
  O   O8        1.0  0.7678766973855815  0.2500135946505466  0.8166529157781639  1.0000
  O   O9        1.0  0.7678864441228229  0.0666377971752966  0.7499835368654502  1.0000
  O   O10       1.0  0.2982714969023093  0.2550991854882128  0.9298903337718797  1.0000
  O   O11       1.0  0.2982792075641996  0.07011131854584124  0.8252109693309393  1.0000
  O   O12       1.0  0.29827082330172067  0.17478685852297826  0.7448978990340791  1.0000
