data_image0
_chemical_formula_structural       Cu4H16C12N4Cl4
_chemical_formula_sum              "Cu4 H16 C12 N4 Cl4"
_cell_length_a       3.6913966987984317
_cell_length_b       7.954508045454404
_cell_length_c       15.071997575299317
_cell_angle_alpha    83.07357839651488
_cell_angle_beta     88.7473800619891
_cell_angle_gamma    79.52602313467453

_space_group_name_H-M_alt    "P 1"
_space_group_IT_number       1

loop_
  _space_group_symop_operation_xyz
  'x, y, z'

loop_
  _atom_site_type_symbol
  _atom_site_label
  _atom_site_symmetry_multiplicity
  _atom_site_fract_x
  _atom_site_fract_y
  _atom_site_fract_z
  _atom_site_occupancy
  Cu  Cu1       1.0  0.24324023072384193  0.6160069605020055  0.5647947790937594  1.0000
  Cu  Cu2       1.0  0.7567753043405644  0.38400292934142755  0.4352045487025862  1.0000
  Cu  Cu3       1.0  0.3063536841565975  0.8256289695777923  0.9790232479130481  1.0000
  Cu  Cu4       1.0  0.6936461694419475  0.17436658738377991  0.020980377900208704  1.0000
  H   H1        1.0  0.9805896159728393  0.9987899012069478  0.8102336643827144  1.0000
  H   H2        1.0  0.019348672113388  0.0012104698471802006  0.1897707958645611  1.0000
  H   H3        1.0  0.6139921284864654  0.5180302937831344  0.8910225107745122  1.0000
  H   H4        1.0  0.3860127226668764  0.4819730106947945  0.1089819382058579  1.0000
  H   H5        1.0  0.7214807379978652  0.8878240726678897  0.5954464759867903  1.0000
  H   H6        1.0  0.27853105717148463  0.1121818934887457  0.4045551066402666  1.0000
  H   H7        1.0  0.07797967689942452  0.009555261324635505  0.5901025051788409  1.0000
  H   H8        1.0  0.9220365924484638  0.9904403098009315  0.4099056416316031  1.0000
  H   H9        1.0  0.7039013172695334  0.058906092043855614  0.6633486970629505  1.0000
  H   H10       1.0  0.2961081009746565  0.9410921732737023  0.33665004938375626  1.0000
  H   H11       1.0  0.4238350157482386  0.31014769976729195  0.71654138066787  1.0000
  H   H12       1.0  0.576192251853925  0.6898597275065655  0.2834546899459696  1.0000
  H   H13       1.0  0.7949457902766637  0.31765514419613805  0.7891699267589374  1.0000
  H   H14       1.0  0.2050731649343049  0.682345840113399  0.2108232763581626  1.0000
  H   H15       1.0  0.8030133741251362  0.3990782376811453  0.6726224578385285  1.0000
  H   H16       1.0  0.1969804762518023  0.6009315552797007  0.3273757110240183  1.0000
  C   C1        1.0  0.08604919798386125  0.8281378690540181  0.7075660551300942  1.0000
  C   C2        1.0  0.9139254477057149  0.17187301221109416  0.2924381637038067  1.0000
  C   C3        1.0  0.11142552627492103  0.8724901216530725  0.7934222058925117  1.0000
  C   C4        1.0  0.8885488120640089  0.12749497353880201  0.2065822408010192  1.0000
  C   C5        1.0  0.4604561723962845  0.6072582993976355  0.8386214762663897  1.0000
  C   C6        1.0  0.5395579360520487  0.39272192736305567  0.16137832120707427  1.0000
  C   C7        1.0  0.44120056243144745  0.5592826198033193  0.7532648091587787  1.0000
  C   C8        1.0  0.5587892989406811  0.440723345194627  0.24672963886692398  1.0000
  C   C9        1.0  0.8845860001741173  0.9526506931320713  0.635876430068663  1.0000
  C   C10       1.0  0.11541967817500881  0.0473436484986962  0.36412457120874825  1.0000
  C   C11       1.0  0.628381464642395  0.38664441222297097  0.7323036692664076  1.0000
  C   C12       1.0  0.371634515519027  0.6133642221150309  0.26769374020523884  1.0000
  N   N1        1.0  0.25250130251895087  0.670073567035118  0.6867756474727076  1.0000
  N   N2        1.0  0.7475037723005046  0.3299285670252914  0.3132215714784721  1.0000
  N   N3        1.0  0.2980704281321065  0.7638531375706777  0.8597930681883312  1.0000
  N   N4        1.0  0.7019021120156455  0.23614237805757204  0.1402041292347107  1.0000
  Cl  Cl1       1.0  0.28531529645069037  0.3136212924291398  0.5297021399898227  1.0000
  Cl  Cl2       1.0  0.7147059450083476  0.6863809515191691  0.4702936242909956  1.0000
  Cl  Cl3       1.0  0.7973750296649624  0.8155272482282142  0.06837455001569029  1.0000
  Cl  Cl4       1.0  0.20261822193964463  0.18447090720145098  0.9316256511013776  1.0000
