data_image0
_chemical_formula_structural       U4H32C48N8O32
_chemical_formula_sum              "U4 H32 C48 N8 O32"
_cell_length_a       6.9947333
_cell_length_b       13.420112006
_cell_length_c       14.9176
_cell_angle_alpha    90.0
_cell_angle_beta     90.0
_cell_angle_gamma    90.0

_space_group_name_H-M_alt    "P 1"
_space_group_IT_number       1

loop_
  _space_group_symop_operation_xyz
  'x, y, z'

loop_
  _atom_site_type_symbol
  _atom_site_label
  _atom_site_symmetry_multiplicity
  _atom_site_fract_x
  _atom_site_fract_y
  _atom_site_fract_z
  _atom_site_occupancy
  U   U1        1.0  0.9442504405421703  0.4889348164207874  0.4992170322303834  1.0000
  U   U2        1.0  0.5557281218999464  0.5110665244026009  0.9992130101356762  1.0000
  U   U3        1.0  0.055730502262321104  0.9889343691070847  0.0007856491660831  1.0000
  U   U4        1.0  0.4442699766694461  0.0110625008147167  0.5007863195152069  1.0000
  H   H1        1.0  0.7416580128937866  0.5702336907902534  0.23606411218963064  1.0000
  H   H2        1.0  0.7583419942544509  0.4297646694320746  0.7360641121896307  1.0000
  H   H3        1.0  0.25833579673437873  0.0702363735547493  0.2639358878103693  1.0000
  H   H4        1.0  0.24166039325616856  0.929767202719425  0.7639358878103691  1.0000
  H   H5        1.0  0.7944691758297608  0.734051250510852  0.47034241432938007  1.0000
  H   H6        1.0  0.7055336906126188  0.2659471097114761  0.9703397329329135  1.0000
  H   H7        1.0  0.2055332116808515  0.23405318812508105  0.0296602670670865  1.0000
  H   H8        1.0  0.2944672672509157  0.7659481526982999  0.5296562449723794  1.0000
  H   H9        1.0  0.8472774794715934  0.7151199629115794  0.1413189789242253  1.0000
  H   H10       1.0  0.6527210980295735  0.28487541670969546  0.6413203196224586  1.0000
  H   H11       1.0  0.15271633015657934  0.21512339082634205  0.3586816914248913  1.0000
  H   H12       1.0  0.347281289481046  0.7848801854478322  0.8586816914248914  1.0000
  H   H13       1.0  0.8939325821043129  0.8889925802903915  0.3840845712447063  1.0000
  H   H14       1.0  0.6060674250439251  0.1110050347816767  0.88408926368853  1.0000
  H   H15       1.0  0.10606837575922873  0.3889945179046208  0.11591207700970327  1.0000
  H   H16       1.0  0.3939306735254676  0.6110090583695535  0.615914758406177  1.0000
  H   H17       1.0  0.0006404818894268  0.5819414917333319  0.8310686705636314  1.0000
  H   H18       1.0  0.4993614266894185  0.418064319991636  0.3310700112618647  1.0000
  H   H19       1.0  0.9993619056211926  0.0819426841972941  0.6689333404837257  1.0000
  H   H20       1.0  0.500645249762421  0.9180653629784599  0.16892931838901853  1.0000
  H   H21       1.0  0.970032695885628  0.7071274811832565  0.9572323966321645  1.0000
  H   H22       1.0  0.5299687409096805  0.2928701338888046  0.457229715235698  1.0000
  H   H23       1.0  0.029963973036686308  0.2071264381964326  0.5427689440660686  1.0000
  H   H24       1.0  0.47003507624801  0.7928711768756285  0.0427689440660686  1.0000
  H   H25       1.0  0.7355262565907951  0.9195839792158578  0.7870280742210554  1.0000
  H   H26       1.0  0.7644751802045137  0.0804158713069967  0.2870280742210554  1.0000
  H   H27       1.0  0.2644704123315194  0.419582936229034  0.7129692443824709  1.0000
  H   H28       1.0  0.23552720730610596  0.580415423993294  0.2129725961280613  1.0000
  H   H29       1.0  0.7620490691189021  0.8049262178415829  0.6536708317691833  1.0000
  H   H30       1.0  0.7379552269705556  0.19507363268127154  0.15366949107095  1.0000
  H   H31       1.0  0.23795474803878855  0.3049289006060789  0.8463311792781666  1.0000
  H   H32       1.0  0.2620485901871348  0.6950746756680954  0.3463311792781667  1.0000
  C   C1        1.0  0.8948346894083841  0.6133346723425248  0.6557174076258931  1.0000
  C   C2        1.0  0.6051724659752225  0.3866584718279569  0.15571405588030265  1.0000
  C   C3        1.0  0.10515769057270323  0.1133366099567539  0.8442852737705804  1.0000
  C   C4        1.0  0.394838499417844  0.8866647308666273  0.3442812516758735  1.0000
  C   C5        1.0  0.7791161958955615  0.6422420316720547  0.2637870703062148  1.0000
  C   C6        1.0  0.7208795223114493  0.3577578188507999  0.7637877406553313  1.0000
  C   C7        1.0  0.22087761373260414  0.1422432241360241  0.23621225934466847  1.0000
  C   C8        1.0  0.2791214355520921  0.8577581166873642  0.7362129296937849  1.0000
  C   C9        1.0  0.8087942395173258  0.7366436282782232  0.3978408054914979  1.0000
  C   C10       1.0  0.691208626925061  0.2633554770943718  0.8978394647932644  1.0000
  C   C11       1.0  0.1912052886991447  0.2366448207421925  0.10216120555585208  1.0000
  C   C12       1.0  0.3087980495267786  0.7633572652314555  0.6021591945085019  1.0000
  C   C13       1.0  0.8368696487684562  0.7234321141030262  0.21370595806295964  1.0000
  C   C14       1.0  0.6631389362622286  0.2765647558187752  0.7137072987611928  1.0000
  C   C15       1.0  0.1631370276833835  0.223435542017782  0.2862940419370403  1.0000
  C   C16       1.0  0.3368720291308307  0.7765665439558658  0.7862940419370403  1.0000
  C   C17       1.0  0.863492536591778  0.8195244566575042  0.34930685901217357  1.0000
  C   C18       1.0  0.6365089002035307  0.18047092296377085  0.8493075293612902  1.0000
  C   C19       1.0  0.1365098509188343  0.31952788457225967  0.1506924706387096  1.0000
  C   C20       1.0  0.3634920576600109  0.6804756917019148  0.650693140987826  1.0000
  C   C21       1.0  0.8824124859771274  0.8131765215611393  0.256173915375129  1.0000
  C   C22       1.0  0.6175932397594084  0.1868210935109218  0.7561752560733623  1.0000
  C   C23       1.0  0.11759133118056303  0.31317920432563534  0.2438254142757543  1.0000
  C   C24       1.0  0.3824105773982822  0.6868228816480124  0.7438254142757543  1.0000
  C   C25       1.0  0.9439530739506524  0.656165164349076  0.8183474553547467  1.0000
  C   C26       1.0  0.5560469331975781  0.3438376667748386  0.3183441036091564  1.0000
  C   C27       1.0  0.05604216532459111  0.15616710196330524  0.6816565667399599  1.0000
  C   C28       1.0  0.44395974325425414  0.8438387097616625  0.1816538853434864  1.0000
  C   C29       1.0  0.8833303193990218  0.683995036397313  0.7324938327881156  1.0000
  C   C30       1.0  0.6166711173962867  0.3160033238250151  0.2324898106934086  1.0000
  C   C31       1.0  0.1166634902291435  0.18399697401154208  0.7675115300048247  1.0000
  C   C32       1.0  0.3833312701143328  0.8160066022626322  0.267506837561001  1.0000
  C   C33       1.0  0.9511670730891169  0.902095302527087  0.20425537619992434  1.0000
  C   C34       1.0  0.5488329340591137  0.09790454799576757  0.7042526948034507  1.0000
  C   C35       1.0  0.048833884774417406  0.4020957498407896  0.29574797554566595  1.0000
  C   C36       1.0  0.4511594459219738  0.5979048458323248  0.7957426127527185  1.0000
  C   C37       1.0  0.9288602897840266  0.7229380794782045  0.8885082050732007  1.0000
  C   C38       1.0  0.5711440063054312  0.27706475164571026  0.3885061940258509  1.0000
  C   C39       1.0  0.071139238432437  0.22293703649138047  0.6114938059741488  1.0000
  C   C40       1.0  0.4288640997934864  0.7770628140314811  0.11149313562503237  1.0000
  C   C41       1.0  0.795993179611294  0.8449311000482282  0.7909750898267802  1.0000
  C   C42       1.0  0.7040011089486458  0.15506875047462634  0.2909730787794302  1.0000
  C   C43       1.0  0.2040049189580984  0.3449285667608776  0.7090255805223364  1.0000
  C   C44       1.0  0.2959941303265978  0.6550705386117173  0.2090255805223364  1.0000
  C   C45       1.0  0.8104640673004655  0.7800031769719948  0.7194240360379709  1.0000
  C   C46       1.0  0.6895402287889922  0.21999592840059987  0.21942068429238046  1.0000
  C   C47       1.0  0.18954117950429614  0.28000287913543076  0.7805806564058526  1.0000
  C   C48       1.0  0.31046644766284714  0.7199984616879505  0.2805773046602695  1.0000
  N   N1        1.0  0.7727385402957411  0.6493537457887015  0.3545275379417632  1.0000
  N   N2        1.0  0.7272586075583478  0.35064684988442  0.8545268675926394  1.0000
  N   N3        1.0  0.2272581286265734  0.14935419310240408  0.1454731324073606  1.0000
  N   N4        1.0  0.2727423503051938  0.8506471477209843  0.6454724620582366  1.0000
  N   N5        1.0  0.8539868131927195  0.8150021397071752  0.8736277953558229  1.0000
  N   N6        1.0  0.6460103346613694  0.1849992011162058  0.3736277953558228  1.0000
  N   N7        1.0  0.1460084260825241  0.3150018418706181  0.6263701935968271  1.0000
  N   N8        1.0  0.3539906232021721  0.6850002441030297  0.1263728749932937  1.0000
  O   O1        1.0  0.7539815706768992  0.406939226554769  0.5373029173593622  1.0000
  O   O2        1.0  0.7460098585888915  0.5930554079162462  0.037300235962888485  1.0000
  O   O3        1.0  0.2460108093041953  0.9069447404431726  0.962698423338878  1.0000
  O   O4        1.0  0.2539896696275719  0.0930543649294222  0.4626977529897545  1.0000
  O   O5        1.0  0.7292729802864673  0.5679825918436521  0.4019326165066771  1.0000
  O   O6        1.0  0.7707255972146925  0.4320180038294693  0.9019332868557937  1.0000
  O   O7        1.0  0.2707222589887763  0.06798229400709489  0.0980667131442061  1.0000
  O   O8        1.0  0.22927679029591996  0.9320168113654999  0.5980667131442061  1.0000
  O   O9        1.0  0.9908454979977608  0.5327548679775163  0.6627721617418345  1.0000
  O   O10       1.0  0.5091587980917041  0.4672382761929654  0.1627728320909512  1.0000
  O   O11       1.0  0.009152600571631803  0.0327553152912188  0.8372271679090488  1.0000
  O   O12       1.0  0.4908478783601353  0.967243790081376  0.3372271679090488  1.0000
  O   O13       1.0  0.1318649275734387  0.5732172724460654  0.4627567437121272  1.0000
  O   O14       1.0  0.3681198252405125  0.42677512657415656  0.9627587547594771  1.0000
  O   O15       1.0  0.8681145855839818  0.0732214455110878  0.037244596986113286  1.0000
  O   O16       1.0  0.6318839919171779  0.9267806404625603  0.537242585938756  1.0000
  O   O17       1.0  0.8093861134062125  0.6349358333365913  0.5826399688957975  1.0000
  O   O18       1.0  0.6906181826832454  0.3650580559841571  0.0826372874993311  1.0000
  O   O19       1.0  0.190613414810251  0.1349385161010872  0.9173607014533187  1.0000
  O   O20       1.0  0.30938849376858724  0.8650613344217744  0.4173566793586118  1.0000
  O   O21       1.0  0.9981595724314475  0.8840678821976766  0.1214779857349697  1.0000
  O   O22       1.0  0.5018404347167902  0.11592973287439179  0.6214746339893793  1.0000
  O   O23       1.0  0.0018399557850159005  0.38407056496216535  0.3785253660106206  1.0000
  O   O24       1.0  0.4981519452643042  0.615930030710949  0.8785206735667968  1.0000
  O   O25       1.0  0.9626371315686912  0.9842838863114023  0.2423137770150703  1.0000
  O   O26       1.0  0.5373628755795465  0.0157137287606659  0.7423124363168369  1.0000
  O   O27       1.0  0.0373638262948504  0.48428805937642483  0.2576882340322868  1.0000
  O   O28       1.0  0.4626337933427679  0.5157162620480165  0.7576855526358128  1.0000
  O   O29       1.0  0.8313526407075429  0.8773384301663042  0.941983294899984  1.0000
  O   O30       1.0  0.6686487960877658  0.12266067520629058  0.4419819542017507  1.0000
  O   O31       1.0  0.1686440282147714  0.3773403677805333  0.5580153644017825  1.0000
  O   O32       1.0  0.3313507321286978  0.6226609730428476  0.0580200568456064  1.0000
