data_image0
_chemical_formula_structural       Cu2H22C16S2N6O12
_chemical_formula_sum              "Cu2 H22 C16 S2 N6 O12"
_cell_length_a       6.228802932960021
_cell_length_b       6.878130834004668
_cell_length_c       13.494014153865242
_cell_angle_alpha    90.00006671869882
_cell_angle_beta     89.34070317578458
_cell_angle_gamma    90.00009738871819

_space_group_name_H-M_alt    "P 1"
_space_group_IT_number       1

loop_
  _space_group_symop_operation_xyz
  'x, y, z'

loop_
  _atom_site_type_symbol
  _atom_site_label
  _atom_site_symmetry_multiplicity
  _atom_site_fract_x
  _atom_site_fract_y
  _atom_site_fract_z
  _atom_site_occupancy
  Cu  Cu1       1.0  0.010144148034640898  0.8127557000325467  2.414187282079997e-05  1.0000
  Cu  Cu2       1.0  0.9898691862183  0.31275399161564377  0.9999801021271254  1.0000
  H   H1        1.0  0.7925529637513266  0.05139098684448131  0.08449677156947641  1.0000
  H   H2        1.0  0.20743184205203138  0.5514054725278899  0.9154915513378371  1.0000
  H   H3        1.0  0.3869927354237818  0.7771199704989231  0.14361203701324854  1.0000
  H   H4        1.0  0.6130030003212925  0.277110181413228  0.8563898263329293  1.0000
  H   H5        1.0  0.38606166832741456  0.5816656235095651  0.0799332384337887  1.0000
  H   H6        1.0  0.6139384287916985  0.08165600036294049  0.9200685648673571  1.0000
  H   H7        1.0  0.6497739069723352  0.7679150732600918  0.8690374545890124  1.0000
  H   H8        1.0  0.35023460060320133  0.2679292696302014  0.1309652467703941  1.0000
  H   H9        1.0  0.5497143269413627  0.7904867007948296  0.9823317652772233  1.0000
  H   H10       1.0  0.4502830907061153  0.29049490502843167  0.0176693764789277  1.0000
  H   H11       1.0  0.9104308318787488  0.8706879694027876  0.2378304057979506  1.0000
  H   H12       1.0  0.08956365393924408  0.3706729642637683  0.7621692688034899  1.0000
  H   H13       1.0  0.8048345388360973  0.262198455849422  0.23089000775365787  1.0000
  H   H14       1.0  0.1951706996841125  0.762192193892531  0.7691134063343412  1.0000
  H   H15       1.0  0.47105554929432  0.44985985127698314  0.33973301918224763  1.0000
  H   H16       1.0  0.5289409089984575  0.9498536968234249  0.6602637438441122  1.0000
  H   H17       1.0  0.36407383885589445  0.4343310923132649  0.5186908471761242  1.0000
  H   H18       1.0  0.6359369814836384  0.9343405920762324  0.48130676338819717  1.0000
  H   H19       1.0  0.983178172108673  0.658526189274575  0.6002379351365833  1.0000
  H   H20       1.0  0.01681563772050511  0.15852615381519541  0.39976459696400474  1.0000
  H   H21       1.0  0.09028411243564703  0.6761610416991032  0.42092896889032977  1.0000
  H   H22       1.0  0.9097191836762947  0.1761465191115192  0.5790766123156601  1.0000
  C   C1        1.0  0.8994936630883573  0.7226433476678126  0.21158147353157372  1.0000
  C   C2        1.0  0.100507496830275  0.22265313924629743  0.7884085444177701  1.0000
  C   C3        1.0  0.8434318497211494  0.40898832718730194  0.2067806233281786  1.0000
  C   C4        1.0  0.15656698777055314  0.9090009831149217  0.7932280007356314  1.0000
  C   C5        1.0  0.7862008157353915  0.5626523478539982  0.3716888236355658  1.0000
  C   C6        1.0  0.21378644414366482  0.06264877213882873  0.6283121274893873  1.0000
  C   C7        1.0  0.5822353982490824  0.4939722656753105  0.39720723466879804  1.0000
  C   C8        1.0  0.41776900285972124  0.9939672866556889  0.6027925780607932  1.0000
  C   C9        1.0  0.5233340657573253  0.48438836098703325  0.4967137721924999  1.0000
  C   C10       1.0  0.47665926283800536  0.9843890085863835  0.5032829827699459  1.0000
  C   C11       1.0  0.6678697937428951  0.543347871025091  0.5690733673887821  1.0000
  C   C12       1.0  0.3321320953424447  0.04334683010451809  0.430923983317598  1.0000
  C   C13       1.0  0.8719359864894545  0.6128028725346369  0.5431213092837055  1.0000
  C   C14       1.0  0.12805790124814823  0.1128002069096965  0.45687823581693726  1.0000
  C   C15       1.0  0.9321439154516895  0.6230192167216303  0.44320772016675397  1.0000
  C   C16       1.0  0.06787232650012243  0.12300947012997204  0.5567942309263785  1.0000
  S   S1        1.0  0.584419347161969  0.5275995218485576  0.6958468168481815  1.0000
  S   S2        1.0  0.41557603985590674  0.027611335014881902  0.30415121615241963  1.0000
  N   N1        1.0  0.928653062247335  0.6632884572481431  0.11960095507772911  1.0000
  N   N2        1.0  0.07135180891920362  0.1632882757743914  0.8804046323700732  1.0000
  N   N3        1.0  0.8951286483151437  0.46703017224113097  0.11656060502661353  1.0000
  N   N4        1.0  0.10488866741275166  0.9670241009475833  0.8834370727645934  1.0000
  N   N5        1.0  0.8441791866384211  0.5662738717643024  0.26865864494006797  1.0000
  N   N6        1.0  0.15582417655128478  0.0662690412768399  0.7313416940188944  1.0000
  O   O1        1.0  0.34951105771968133  0.5490267172967052  0.6953880072621033  1.0000
  O   O2        1.0  0.650484287015928  0.04903880562746819  0.3046115185178593  1.0000
  O   O3        1.0  0.6535856259950209  0.3334654675204334  0.7292704209638147  1.0000
  O   O4        1.0  0.3464170279245664  0.833471176705544  0.270725593415527  1.0000
  O   O5        1.0  0.695015320812914  0.6877012881112349  0.7465610435803498  1.0000
  O   O6        1.0  0.30498185844537323  0.18770411770550055  0.2534400465580049  1.0000
  O   O7        1.0  0.9453883654879008  0.061223668699255995  0.06868451076969251  1.0000
  O   O8        1.0  0.05460347581436049  0.5612220243727536  0.931320182793492  1.0000
  O   O9        1.0  0.3997182140520438  0.7270743160500359  0.07509417793978201  1.0000
  O   O10       1.0  0.6002821743162843  0.22706614338758865  0.9249084393921194  1.0000
  O   O11       1.0  0.6486945619879307  0.8465062711716912  0.9303612792855491  1.0000
  O   O12       1.0  0.35129972981339824  0.34651885615375033  0.069640606207912  1.0000
