data_image0
_chemical_formula_structural       Zn6H144C180N12O24
_chemical_formula_sum              "Zn6 H144 C180 N12 O24"
_cell_length_a       15.453841576000192
_cell_length_b       21.824773729924846
_cell_length_c       21.8247673229993
_cell_angle_alpha    120.0000815913409
_cell_angle_beta     90.00000847088732
_cell_angle_gamma    89.99998196454246

_space_group_name_H-M_alt    "P 1"
_space_group_IT_number       1

loop_
  _space_group_symop_operation_xyz
  'x, y, z'

loop_
  _atom_site_type_symbol
  _atom_site_label
  _atom_site_symmetry_multiplicity
  _atom_site_fract_x
  _atom_site_fract_y
  _atom_site_fract_z
  _atom_site_occupancy
  Zn  Zn1       1.0  0.247909768136644  0.5023998832867775  0.0025717375236596124  1.0000
  Zn  Zn2       1.0  0.2479098203636312  0.5001723481538746  0.49760062591053605  1.0000
  Zn  Zn3       1.0  0.24791035738250863  0.9974275790878406  0.4998269477795104  1.0000
  Zn  Zn4       1.0  0.7520900125651268  0.4976000039089002  0.997427925607525  1.0000
  Zn  Zn5       1.0  0.7520899603382744  0.4998268163075251  0.5023988435640234  1.0000
  Zn  Zn6       1.0  0.7520900704075045  0.0025727663032525925  0.5001731735472461  1.0000
  H   H1        1.0  0.45167199892966176  0.9110033294187403  0.3954759600750035  1.0000
  H   H2        1.0  0.4516720615150477  0.48447228771377127  0.08899682232638637  1.0000
  H   H3        1.0  0.45167207945937093  0.6045245110008182  0.5155279713909807  1.0000
  H   H4        1.0  0.5483277817721015  0.08899655777694439  0.6045237030561806  1.0000
  H   H5        1.0  0.548328366275243  0.5155266122087525  0.9110029116871273  1.0000
  H   H6        1.0  0.5483283483305784  0.3954762925857622  0.48447260813134824  1.0000
  H   H7        1.0  0.0510151924050462  0.08433060670808594  0.6133015638348738  1.0000
  H   H8        1.0  0.0510157724612839  0.5289711432257106  0.9156699901278813  1.0000
  H   H9        1.0  0.0510157575533441  0.3866985346242301  0.4710288568964883  1.0000
  H   H10       1.0  0.9489839412084606  0.9156694741443587  0.38669882203084427  1.0000
  H   H11       1.0  0.9489846553288074  0.4710289376265848  0.08433039573782966  1.0000
  H   H12       1.0  0.9489840231484195  0.6133013525714475  0.5289708062346961  1.0000
  H   H13       1.0  0.937227210694779  0.006660470539792094  0.5310375267221872  1.0000
  H   H14       1.0  0.9372277912549266  0.5243775676110403  0.9933401735794689  1.0000
  H   H15       1.0  0.9372283965315447  0.4689626659615767  0.47562289164311977  1.0000
  H   H16       1.0  0.0627725700069348  0.9933398748513721  0.4689625946045766  1.0000
  H   H17       1.0  0.06277263653507963  0.47562277778005313  0.006659947747287703  1.0000
  H   H18       1.0  0.0627720312584685  0.5310376794295166  0.5243772296836369  1.0000
  H   H19       1.0  0.29837891391678534  0.27290338897581273  0.8673694810707886  1.0000
  H   H20       1.0  0.2983781808395846  0.5944662376750426  0.727096140809273  1.0000
  H   H21       1.0  0.2983788967684902  0.13263011508690425  0.4055343272747152  1.0000
  H   H22       1.0  0.7016208667850351  0.7270960400243851  0.13262972386481658  1.0000
  H   H23       1.0  0.7016209527738866  0.4055336495207129  0.2729035223219114  1.0000
  H   H24       1.0  0.7016208839333089  0.8673699657654622  0.5944660585909958  1.0000
  H   H25       1.0  0.20277661667081048  0.7327066551537555  0.1368832009853377  1.0000
  H   H26       1.0  0.20277670317452834  0.40417660265908484  0.26729422231827016  1.0000
  H   H27       1.0  0.20277728279258866  0.863117220008199  0.5958230694804385  1.0000
  H   H28       1.0  0.7972238111190605  0.2672944129716228  0.8631171139980367  1.0000
  H   H29       1.0  0.7972230775273202  0.5958230199977947  0.7327057053518757  1.0000
  H   H30       1.0  0.7972231449974174  0.13688312538289432  0.40417705184631797  1.0000
  H   H31       1.0  0.5645656028933103  0.9883153533727621  0.4794533337343623  1.0000
  H   H32       1.0  0.5645656642940651  0.49113798954007853  0.01168466260129015  1.0000
  H   H33       1.0  0.5645663568164067  0.5205456365509987  0.5088611167296122  1.0000
  H   H34       1.0  0.43543417780846033  0.011684533822922524  0.5205463293968221  1.0000
  H   H35       1.0  0.4354334693194915  0.5088616331168794  0.9883152650688557  1.0000
  H   H36       1.0  0.4354340709737913  0.47945352791032286  0.49113835274494727  1.0000
  H   H37       1.0  0.07196657268566041  0.3921305700749114  0.8404182820492422  1.0000
  H   H38       1.0  0.07196588883791583  0.4482880801145227  0.6078691534706948  1.0000
  H   H39       1.0  0.0719665940990453  0.15958097534900154  0.5517117941120091  1.0000
  H   H40       1.0  0.9280332080161601  0.6078688589252863  0.15958092288636289  1.0000
  H   H41       1.0  0.9280338918639401  0.5517115425423639  0.3921307741994439  1.0000
  H   H42       1.0  0.9280331866027185  0.8404189118466758  0.4482878690191753  1.0000
  H   H43       1.0  0.8509657786659446  0.24272928969256913  0.7196142422201177  1.0000
  H   H44       1.0  0.8509663777487262  0.4768852091492447  0.7572717674832816  1.0000
  H   H45       1.0  0.850966396866042  0.28038597024255546  0.5231148480039636  1.0000
  H   H46       1.0  0.14903400203568395  0.7572713202374002  0.2803856145676846  1.0000
  H   H47       1.0  0.14903405004127987  0.5231151362418486  0.24272835384347502  1.0000
  H   H48       1.0  0.14903403092410628  0.7196136524142531  0.47688507966616805  1.0000
  H   H49       1.0  0.9645905874643078  0.3167704948848496  0.7493891212968934  1.0000
  H   H50       1.0  0.9645899077641858  0.43261948617610807  0.683229549189754  1.0000
  H   H51       1.0  0.9645905831193958  0.2506100618383512  0.5673807401398676  1.0000
  H   H52       1.0  0.03540919323751271  0.6832289341153485  0.250610083638712  1.0000
  H   H53       1.0  0.0354092258492358  0.5673808592151346  0.31677057213700266  1.0000
  H   H54       1.0  0.035409197582367796  0.7493898253573335  0.4326189229913169  1.0000
  H   H55       1.0  0.38151274488737386  0.8679574894150406  0.3059273390545627  1.0000
  H   H56       1.0  0.38151282209643966  0.4379690094074604  0.13204259177250316  1.0000
  H   H57       1.0  0.38151281022264527  0.6940736533128343  0.5620308239605265  1.0000
  H   H58       1.0  0.6184870358144252  0.13204259143732583  0.6940730468111552  1.0000
  H   H59       1.0  0.6184869586055014  0.5620303487106212  0.8679576004365968  1.0000
  H   H60       1.0  0.6184869704790688  0.30592669207833006  0.4379692973662301  1.0000
  H   H61       1.0  0.274266926759573  0.7928931504231471  0.21901956690018656  1.0000
  H   H62       1.0  0.2742670068715399  0.4261267139589151  0.20710766130675046  1.0000
  H   H63       1.0  0.27426631939761853  0.7809803953250664  0.573872540828475  1.0000
  H   H64       1.0  0.7257335010303976  0.2071070013112644  0.7809798316920362  1.0000
  H   H65       1.0  0.7257347150951788  0.5738735605499201  0.792893447293494  1.0000
  H   H66       1.0  0.7257341083923591  0.2190197564093381  0.4261268577637479  1.0000
  H   H67       1.0  0.6596578421978805  0.7716483501857141  0.2680511518136086  1.0000
  H   H68       1.0  0.6596578991045946  0.49640298029387236  0.2283522266719089  1.0000
  H   H69       1.0  0.6596578756196863  0.7319494492344986  0.5035975660131483  1.0000
  H   H70       1.0  0.3403419385038332  0.2283519952054574  0.7319489695131478  1.0000
  H   H71       1.0  0.3403418815970625  0.5035978232927788  0.771648352850427  1.0000
  H   H72       1.0  0.3403425521704264  0.268049979765621  0.4964016389224568  1.0000
  H   H73       1.0  0.018233513774802604  0.655177057077502  0.049038137526679286  1.0000
  H   H74       1.0  0.018232955562986302  0.3938610654969991  0.34482250971002765  1.0000
  H   H75       1.0  0.0182335063830834  0.9509610437938251  0.6061384735783973  1.0000
  H   H76       1.0  0.9817675611036094  0.3448223719225467  0.9509610674089258  1.0000
  H   H77       1.0  0.9817661780504849  0.6061388216987565  0.6551771534211567  1.0000
  H   H78       1.0  0.9817669214069795  0.04903884340178158  0.3938611895527869  1.0000
  H   H79       1.0  0.07667592628801148  0.7364525632933975  0.08799220303603053  1.0000
  H   H80       1.0  0.07667667710481399  0.35153952816295936  0.2635476168115147  1.0000
  H   H81       1.0  0.07667659300585682  0.9120079713091298  0.6484602165296777  1.0000
  H   H82       1.0  0.9233232073253178  0.2635480466366501  0.912007653751779  1.0000
  H   H83       1.0  0.9233231035969497  0.6484603590327253  0.7364520463196698  1.0000
  H   H84       1.0  0.9233231876958572  0.08799237408204161  0.3515399047970789  1.0000
  H   H85       1.0  0.0736793675751599  0.6801192233385364  0.9940402752362656  1.0000
  H   H86       1.0  0.07367937835302739  0.31392105463730496  0.3198806565651253  1.0000
  H   H87       1.0  0.0736794849350986  0.005959540633227802  0.686079020540788  1.0000
  H   H88       1.0  0.9263204131266108  0.3198806638571483  0.005959387894918722  1.0000
  H   H89       1.0  0.9263204023487362  0.6860788325583727  0.6801190065660592  1.0000
  H   H90       1.0  0.9263202957666151  0.9940408047579439  0.31392110078596874  1.0000
  H   H91       1.0  0.10190609909143689  0.13114965031420658  0.7186181100924854  1.0000
  H   H92       1.0  0.10190666065820152  0.5874684871265428  0.8688501805828394  1.0000
  H   H93       1.0  0.10190668086749348  0.2813816715116245  0.4125316612664419  1.0000
  H   H94       1.0  0.8980936816104119  0.868849972342673  0.2813818175776532  1.0000
  H   H95       1.0  0.8980944142201535  0.41253140006899264  0.13114948254833794  1.0000
  H   H96       1.0  0.8980937469225695  0.7186182156839821  0.5874680018647354  1.0000
  H   H97       1.0  0.7475293709743129  0.15823517449668142  0.6284050436330375  1.0000
  H   H98       1.0  0.7475299711658394  0.47016973173113286  0.8417650590529533  1.0000
  H   H99       1.0  0.7475299604330845  0.37159540458624457  0.5298300337541164  1.0000
  H   H100      1.0  0.25247040972740104  0.8417651708944831  0.3715950776937262  1.0000
  H   H101      1.0  0.2524704566240814  0.5298308781987658  0.15823479773484908  1.0000
  H   H102      1.0  0.2524704673570071  0.6284046762660507  0.4701703521116016  1.0000
  H   H103      1.0  0.206604331003625  0.20627543834441991  0.8095093848151007  1.0000
  H   H104      1.0  0.20660359421157184  0.6032345122080753  0.7937248852708834  1.0000
  H   H105      1.0  0.20660429137139857  0.19049054531632947  0.3967658740272597  1.0000
  H   H106      1.0  0.7933954496980888  0.7937249070467516  0.1904907365116628  1.0000
  H   H107      1.0  0.7933961864901987  0.3967653749876021  0.20627477786030107  1.0000
  H   H108      1.0  0.7933961364186998  0.809509535535966  0.6032345118384583  1.0000
  H   H109      1.0  0.5627719124592688  0.6934702337467371  0.2202997451885622  1.0000
  H   H110      1.0  0.5627713113469425  0.5268296926686632  0.30652979388531776  1.0000
  H   H111      1.0  0.5627712726695293  0.7796999700532722  0.4731704904079875  1.0000
  H   H112      1.0  0.43722851533078716  0.30652965344886934  0.7796999179426151  1.0000
  H   H113      1.0  0.43722911644314877  0.4731703881836323  0.6934705919803932  1.0000
  H   H114      1.0  0.4372291551205265  0.22029991714233427  0.5268291727231897  1.0000
  H   H115      1.0  0.45301992131066277  0.6183923610734894  0.13285200665652042  1.0000
  H   H116      1.0  0.45302061744968813  0.5144595329877716  0.3816077163306629  1.0000
  H   H117      1.0  0.45301990298890615  0.8671477754153756  0.4855405725904871  1.0000
  H   H118      1.0  0.5469805064794857  0.3816072615833193  0.8671479210136184  1.0000
  H   H119      1.0  0.5469804574287026  0.48554054786444584  0.6183926695350408  1.0000
  H   H120      1.0  0.5469805248011002  0.13285256997571776  0.5144595487362693  1.0000
  H   H121      1.0  0.47390807889519954  0.3525760543501659  0.9792344495762464  1.0000
  H   H122      1.0  0.47390733633375953  0.6266575089865538  0.6474229292670869  1.0000
  H   H123      1.0  0.473907442091182  0.020764743764800538  0.3733411932348004  1.0000
  H   H124      1.0  0.526091701806621  0.6474233746500319  0.020764755359365842  1.0000
  H   H125      1.0  0.5260924443680891  0.3733421136703257  0.3525769984030518  1.0000
  H   H126      1.0  0.5260923386107591  0.9792346143532812  0.6266589989742927  1.0000
  H   H127      1.0  0.4223526252295144  0.27046333782190135  0.9205281136023515  1.0000
  H   H128      1.0  0.4223525210660313  0.6500648479689487  0.7295362117777343  1.0000
  H   H129      1.0  0.42235196087771953  0.07947131987788224  0.34993489928156407  1.0000
  H   H130      1.0  0.5776471554723062  0.7295360911782964  0.0794710913332537  1.0000
  H   H131      1.0  0.5776472596357677  0.34993523288341777  0.2704641740879765  1.0000
  H   H132      1.0  0.5776471727358442  0.9205283027790684  0.6500650283885818  1.0000
  H   H133      1.0  0.4019071189689569  0.3141286902958953  0.013403085514056601  1.0000
  H   H134      1.0  0.4019064567231609  0.6992736158985551  0.6858706685524751  1.0000
  H   H135      1.0  0.40190635273908987  0.9865967289163394  0.3007253613060783  1.0000
  H   H136      1.0  0.598093308821106  0.6858711968997113  0.9865965776171208  1.0000
  H   H137      1.0  0.5980926768904523  0.3007255485629159  0.3141288009220915  1.0000
  H   H138      1.0  0.5980934279627661  0.0134028937405475  0.6992745663640605  1.0000
  H   H139      1.0  0.7617709548948994  0.8541997982480252  0.3605826219001643  1.0000
  H   H140      1.0  0.7617710096024267  0.5063835361593476  0.14580079044423397  1.0000
  H   H141      1.0  0.7617716635293732  0.6394172167162822  0.4936168079712431  1.0000
  H   H142      1.0  0.23822882580695653  0.1457998244088542  0.6394173057699746  1.0000
  H   H143      1.0  0.2382287710991946  0.49361707377062186  0.8541990663435683  1.0000
  H   H144      1.0  0.23822941134906728  0.3605824059404482  0.5063831196988957  1.0000
  C   C1        1.0  0.5194836191244081  0.8954626173434761  0.38447156550298445  1.0000
  C   C2        1.0  0.5194830329422117  0.48900821330332883  0.10453810371599562  1.0000
  C   C3        1.0  0.5194836944416182  0.6155299261399063  0.510992264541585  1.0000
  C   C4        1.0  0.4805161615773913  0.1045374635088975  0.6155288203627264  1.0000
  C   C5        1.0  0.480516100671352  0.510991409353629  0.8954618239541503  1.0000
  C   C6        1.0  0.4805167333483383  0.384470877446681  0.48900831498075087  1.0000
  C   C7        1.0  0.20613581456214553  0.35461535148194656  0.8897861122239874  1.0000
  C   C8        1.0  0.2061351018815145  0.5351710367134856  0.6453844204809229  1.0000
  C   C9        1.0  0.20613647145405886  0.11021364963810491  0.46482915321939083  1.0000
  C   C10       1.0  0.7938633190513259  0.6453845357138093  0.1102135509072043  1.0000
  C   C11       1.0  0.7938640317320137  0.46482839228678324  0.3546147844546822  1.0000
  C   C12       1.0  0.7938633092477048  0.8897862375575727  0.5351705099117938  1.0000
  C   C13       1.0  0.9846425932802346  0.10381741749275605  0.6200747407410887  1.0000
  C   C14       1.0  0.9846425306467026  0.5162571312790972  0.8961828236376519  1.0000
  C   C15       1.0  0.984643164874406  0.3799254163852622  0.4837428332368248  1.0000
  C   C16       1.0  0.0153571874215288  0.8961824697029286  0.3799249223900958  1.0000
  C   C17       1.0  0.015357250055153298  0.48374249137778236  0.10381710403248692  1.0000
  C   C18       1.0  0.015357262915657097  0.6200744708103442  0.5162568298943597  1.0000
  C   C19       1.0  0.29387048731407367  0.6499933649224303  0.11330704752054292  1.0000
  C   C20       1.0  0.2938705534599251  0.46331419728233675  0.350007545630845  1.0000
  C   C21       1.0  0.2938704790540712  0.8866922326002821  0.5366847174103668  1.0000
  C   C22       1.0  0.7061305875641963  0.3500067868119033  0.8866923510716802  1.0000
  C   C23       1.0  0.706129227241959  0.5366856190312319  0.6499931047738272  1.0000
  C   C24       1.0  0.7061299487360414  0.11330719639983756  0.46331448752523835  1.0000
  C   C25       1.0  0.35602784249930863  0.6995025932193926  0.1687456673038312  1.0000
  C   C26       1.0  0.35602855443282516  0.4692436793342836  0.3004981465240562  1.0000
  C   C27       1.0  0.35602785110577173  0.8312539591822767  0.5307559540477198  1.0000
  C   C28       1.0  0.6439719382023766  0.3004975585150901  0.8312537312883919  1.0000
  C   C29       1.0  0.6439718733572165  0.5307568597134917  0.699502697537234  1.0000
  C   C30       1.0  0.6439719295959065  0.16874619255220585  0.4692434445445103  1.0000
  C   C31       1.0  0.9609468577003072  0.17146626022778816  0.674700872940363  1.0000
  C   C32       1.0  0.9609468001831657  0.5032343710027191  0.8285338326232788  1.0000
  C   C33       1.0  0.9609474520699878  0.325299342033091  0.4967656923880456  1.0000
  C   C34       1.0  0.03905292300159859  0.8285329042336044  0.3252985965341961  1.0000
  C   C35       1.0  0.0390529805186404  0.4967657098496474  0.171466553242432  1.0000
  C   C36       1.0  0.03905297572007531  0.6747005451625228  0.503233970743139  1.0000
  C   C37       1.0  0.9219805088348282  0.06006502426575373  0.5731245858258872  1.0000
  C   C38       1.0  0.9219804466842517  0.5130594065035723  0.9399354561365812  1.0000
  C   C39       1.0  0.9219810655498081  0.42687601402044345  0.4869408147375438  1.0000
  C   C40       1.0  0.0780192718668857  0.9399353211254109  0.4268755355008764  1.0000
  C   C41       1.0  0.07801933401751882  0.48694048069211243  0.060064206994603395  1.0000
  C   C42       1.0  0.07801871515199109  0.5731240668319232  0.5130595711281742  1.0000
  C   C43       1.0  0.5452351523125073  0.8332126734423041  0.32306919488361513  1.0000
  C   C44       1.0  0.5452339179676641  0.48985628095623207  0.16678724129010897  1.0000
  C   C45       1.0  0.545234559441113  0.6769311417263494  0.510144316291452  1.0000
  C   C46       1.0  0.45476462838920645  0.16678767194886018  0.6769309264431482  1.0000
  C   C47       1.0  0.45476650982231354  0.5101438707781725  0.8332121573021211  1.0000
  C   C48       1.0  0.45476586834897864  0.32306893912594586  0.4898560695742659  1.0000
  C   C49       1.0  0.14722943060995422  0.3052544738229627  0.8311970433254173  1.0000
  C   C50       1.0  0.14722807322003462  0.5259429525062629  0.6947458754934246  1.0000
  C   C51       1.0  0.14722942355518137  0.1688023671179906  0.47405703248001874  1.0000
  C   C52       1.0  0.8527703500918163  0.694745413372722  0.1688026198057671  1.0000
  C   C53       1.0  0.852771060393522  0.474056670150695  0.3052540521767213  1.0000
  C   C54       1.0  0.8527703571465822  0.8311975200776943  0.5259426306511658  1.0000
  C   C55       1.0  0.28262165836031977  0.328095692617758  0.9033800778350737  1.0000
  C   C56       1.0  0.28262028516151366  0.575284591827497  0.6719043956652229  1.0000
  C   C57       1.0  0.28262230677226796  0.09662037907415312  0.4247163922691541  1.0000
  C   C58       1.0  0.7173787694297431  0.6719041945778484  0.09661958529610365  1.0000
  C   C59       1.0  0.7173788484520927  0.4247145726339737  0.3280950738093437  1.0000
  C   C60       1.0  0.7173781210177382  0.9033799663169403  0.5752837290576026  1.0000
  C   C61       1.0  0.21632924263160194  0.6769214225402252  0.10177802324685807  1.0000
  C   C62       1.0  0.21632996876044788  0.4248566704036633  0.32307966635862334  1.0000
  C   C63       1.0  0.21632989009952305  0.8982216575063474  0.5751426093296886  1.0000
  C   C64       1.0  0.7836711851581767  0.3230799101239582  0.898222027197562  1.0000
  C   C65       1.0  0.7836704590296436  0.5751434104486318  0.6769207195070875  1.0000
  C   C66       1.0  0.78367053769054  0.10177822968925913  0.42485705380148897  1.0000
  C   C67       1.0  0.15590866950452661  0.6406484430645563  0.046433891373233324  1.0000
  C   C68       1.0  0.15590940139195197  0.4057854543956907  0.3593515660440048  1.0000
  C   C69       1.0  0.1559086573382444  0.9535654863470242  0.5942133969059428  1.0000
  C   C70       1.0  0.8440911111971588  0.3593517086699262  0.9535655072189896  1.0000
  C   C71       1.0  0.8440910263981608  0.5942139746044289  0.6406476388916005  1.0000
  C   C72       1.0  0.8440911233634337  0.04643466538745861  0.4057860016862804  1.0000
  C   C73       1.0  0.5817205666799196  0.9389768113818916  0.43206496476592066  1.0000
  C   C74       1.0  0.5817199797238999  0.49308825492821035  0.06102390049936446  1.0000
  C   C75       1.0  0.5817200097185804  0.56793528187157  0.5069116221433704  1.0000
  C   C76       1.0  0.418279214021794  0.06102353400928002  0.5679351565608357  1.0000
  C   C77       1.0  0.41827850680130757  0.5069118259243054  0.9389764853663535  1.0000
  C   C78       1.0  0.4182791238949265  0.4320647989808747  0.4930887637223478  1.0000
  C   C79       1.0  0.3391558195974582  0.36395864489987406  0.9617881069024319  1.0000
  C   C80       1.0  0.33915443950107976  0.5978296558291518  0.6360413964823977  1.0000
  C   C81       1.0  0.3391558333726081  0.0382114270587124  0.40217044519152273  1.0000
  C   C82       1.0  0.6608446081926046  0.6360412422957324  0.03821155622874525  1.0000
  C   C83       1.0  0.6608453412007194  0.4021704250232148  0.3639589893833204  1.0000
  C   C84       1.0  0.6608439473292479  0.9617881955981673  0.5978294824786161  1.0000
  C   C85       1.0  0.024997695574356302  0.21805161759851877  0.7273387872541405  1.0000
  C   C86       1.0  0.0249976366788616  0.5092872629952012  0.7819481432223867  1.0000
  C   C87       1.0  0.024998305820503195  0.2726612192084659  0.49071275801725284  1.0000
  C   C88       1.0  0.9750014380392003  0.7819480050584316  0.27266114041599815  1.0000
  C   C89       1.0  0.9750027911110594  0.49071334693469026  0.2180517135654156  1.0000
  C   C90       1.0  0.9750021219694744  0.7273389325259457  0.5092866405749774  1.0000
  C   C91       1.0  0.4810582340905896  0.7869910747082329  0.2701372862401357  1.0000
  C   C92       1.0  0.4810582955198726  0.4831462542071563  0.21300932466854758  1.0000
  C   C93       1.0  0.48105827254597955  0.7298627891646845  0.5168541424668405  1.0000
  C   C94       1.0  0.5189421936994733  0.21300881248737347  0.7298623768910486  1.0000
  C   C95       1.0  0.5189414851819266  0.5168538266452101  0.7869910611971703  1.0000
  C   C96       1.0  0.5189428023324112  0.2701372916875399  0.4831462433988705  1.0000
  C   C97       1.0  0.07785120350830971  0.33476536855939554  0.8130613051077163  1.0000
  C   C98       1.0  0.07784986204481471  0.4782962203503941  0.6652343264802525  1.0000
  C   C99       1.0  0.07785055876316702  0.18693777007681686  0.5217038624994642  1.0000
  C   C100      1.0  0.9221485771935463  0.6652342540974844  0.1869386225624226  1.0000
  C   C101      1.0  0.922149918656956  0.5217036668452834  0.334765336650932  1.0000
  C   C102      1.0  0.9221492219386889  0.8130618525800627  0.4782960651706817  1.0000
  C   C103      1.0  0.873912830742846  0.19160233461850135  0.6776138718496653  1.0000
  C   C104      1.0  0.8739127791041169  0.4860109534235589  0.8083978288226774  1.0000
  C   C105      1.0  0.8739134317206947  0.3223867149965399  0.5139886985139412  1.0000
  C   C106      1.0  0.12608694995901001  0.8083972880383784  0.3223860558204734  1.0000
  C   C107      1.0  0.12608700159773184  0.5139886692333276  0.19160209884746138  1.0000
  C   C108      1.0  0.1260869960693114  0.6776136303945606  0.48601142281281545  1.0000
  C   C109      1.0  0.0175788154921293  0.2921520045097097  0.7623567392006976  1.0000
  C   C110      1.0  0.017578123211279703  0.4702054852779299  0.7078482841169276  1.0000
  C   C111      1.0  0.017578803279661805  0.23764261255274732  0.5297946652814005  1.0000
  C   C112      1.0  0.9824209652096414  0.707847882685968  0.2376429239304869  1.0000
  C   C113      1.0  0.9824216574904271  0.5297948601132348  0.29215183720983623  1.0000
  C   C114      1.0  0.9824216245104581  0.7623568164473795  0.4702045396542048  1.0000
  C   C115      1.0  0.39837716825265085  0.8131810013538258  0.2682702127748442  1.0000
  C   C116      1.0  0.39837723917322176  0.45508936617549267  0.18681953769545598  1.0000
  C   C117      1.0  0.3983778623187959  0.7317300433753003  0.5449107395391124  1.0000
  C   C118      1.0  0.6016219653606855  0.1868196085762148  0.7317296440129579  1.0000
  C   C119      1.0  0.6016225415285774  0.5449107146768737  0.8131808481702618  1.0000
  C   C120      1.0  0.6016225654712102  0.268270302015793  0.4550893817876442  1.0000
  C   C121      1.0  0.3373340982206016  0.7703255496025108  0.2184272153436595  1.0000
  C   C122      1.0  0.3373341708723033  0.44810173767657346  0.22967473428676755  1.0000
  C   C123      1.0  0.337334130575087  0.7815722281179306  0.5518976248537442  1.0000
  C   C124      1.0  0.6626663295695182  0.229673879397616  0.7815719895919457  1.0000
  C   C125      1.0  0.6626656098296096  0.5518982722936768  0.7703266388524384  1.0000
  C   C126      1.0  0.662666297214976  0.21842765907767603  0.44810203827743317  1.0000
  C   C127      1.0  0.6344641010387377  0.8182872312200118  0.3146752250429046  1.0000
  C   C128      1.0  0.6344635114596568  0.4963872872929471  0.1817126071722868  1.0000
  C   C129      1.0  0.6344641502775161  0.6853252825470831  0.5036131835231997  1.0000
  C   C130      1.0  0.3655356796630329  0.18171265597567293  0.6853244380882798  1.0000
  C   C131      1.0  0.36553562215375734  0.5036130580982953  0.8182875141544768  1.0000
  C   C132      1.0  0.3655362775125753  0.31467479830521217  0.49638720234251105  1.0000
  C   C133      1.0  0.07707195206739209  0.6812674425367433  0.044945703689080664  1.0000
  C   C134      1.0  0.07707269821601409  0.36367771817513267  0.3187321088413242  1.0000
  C   C135      1.0  0.07707260022535681  0.9550544437226447  0.6363217656456258  1.0000
  C   C136      1.0  0.9229278286343784  0.31873244465894157  0.9550539594421039  1.0000
  C   C137      1.0  0.9229264353975141  0.6363217108251361  0.681267096094281  1.0000
  C   C138      1.0  0.922927827564564  0.044946166207253634  0.36367809114217653  1.0000
  C   C139      1.0  0.0952300791464396  0.1884871868479861  0.744602506170473  1.0000
  C   C140      1.0  0.09523000459092397  0.556115441878468  0.8115130591249694  1.0000
  C   C141      1.0  0.09523003287780799  0.25539764070547477  0.44388484493661196  1.0000
  C   C142      1.0  0.9047703486437088  0.8115124358088225  0.25539742149966593  1.0000
  C   C143      1.0  0.9047704231990538  0.4438847098559435  0.18848633946725354  1.0000
  C   C144      1.0  0.9047703949121981  0.7446027046856186  0.5561152763901446  1.0000
  C   C145      1.0  0.815605650935332  0.14458965570185706  0.6276769643099129  1.0000
  C   C146      1.0  0.8156062467368272  0.48308670841743134  0.8554105858510894  1.0000
  C   C147      1.0  0.8156055888434324  0.3723243816009258  0.5169130435089997  1.0000
  C   C148      1.0  0.18439412976638184  0.8554106896893076  0.37232315701684365  1.0000
  C   C149      1.0  0.1843941810531859  0.5169136369736691  0.14458953547566716  1.0000
  C   C150      1.0  0.18439354476998907  0.6276759637903169  0.4830870778177641  1.0000
  C   C151      1.0  0.15490067507109734  0.23127326114373395  0.7958940502158356  1.0000
  C   C152      1.0  0.1548999511998019  0.5646210432357818  0.7687261623430288  1.0000
  C   C153      1.0  0.15490064342209559  0.20410502824774565  0.4353792804356046  1.0000
  C   C154      1.0  0.8450991056308085  0.7687259033176589  0.20410541925872394  1.0000
  C   C155      1.0  0.8451004765901755  0.4353791084986297  0.2312732362491943  1.0000
  C   C156      1.0  0.8450997843680527  0.7958945944090628  0.5646206472345341  1.0000
  C   C157      1.0  0.49986392463573287  0.7161097706809301  0.22024924877047883  1.0000
  C   C158      1.0  0.49986333121777454  0.5041399289055448  0.28389028119719467  1.0000
  C   C159      1.0  0.49986393932157824  0.7797502184034286  0.4958605004065504  1.0000
  C   C160      1.0  0.5001365031542733  0.2838905747101705  0.7797508725562778  1.0000
  C   C161      1.0  0.5001364494840529  0.4958603456035107  0.7161108274030497  1.0000
  C   C162      1.0  0.5001364884685132  0.2202498624488669  0.5041398854591606  1.0000
  C   C163      1.0  0.4384170715294502  0.6733826943687404  0.17088910889128067  1.0000
  C   C164      1.0  0.43841777390517916  0.49750719231959545  0.32661785076534494  1.0000
  C   C165      1.0  0.43841771872811813  0.8291103168615804  0.5024928070502739  1.0000
  C   C166      1.0  0.5615827091722282  0.32661745736574216  0.8291102897009494  1.0000
  C   C167      1.0  0.5615826538848978  0.5024935403848757  0.6733837160304786  1.0000
  C   C168      1.0  0.5615827090619376  0.17088957033402605  0.4975068560809035  1.0000
  C   C169      1.0  0.4135949257403908  0.32222767294418  0.9681894594909719  1.0000
  C   C170      1.0  0.4135948235790607  0.6459616744540495  0.6777715911778656  1.0000
  C   C171      1.0  0.413594925979666  0.031809703071012066  0.3540377159214643  1.0000
  C   C172      1.0  0.5864048549613727  0.6777722142514975  0.031810203640212406  1.0000
  C   C173      1.0  0.5864049571226532  0.3540386709371148  0.3222285301488981  1.0000
  C   C174      1.0  0.5864048547222181  0.9681901132425565  0.645962934483208  1.0000
  C   C175      1.0  0.6922976125251948  0.8644277381718481  0.36573722912346796  1.0000
  C   C176      1.0  0.6922970219312105  0.5013094683035035  0.13557296706616745  1.0000
  C   C177      1.0  0.692297677475054  0.6342628393382056  0.4986905541894159  1.0000
  C   C178      1.0  0.30770216817661117  0.1355723426805183  0.63426315674225  1.0000
  C   C179      1.0  0.30770275877045344  0.498691335283155  0.8644276124561685  1.0000
  C   C180      1.0  0.30770339740338665  0.3657367833185247  0.5013093734807156  1.0000
  N   N1        1.0  0.6667311467427693  0.9242497459149989  0.4234524579450251  1.0000
  N   N2        1.0  0.6667312046911037  0.499201906197463  0.07574989082851151  1.0000
  N   N3        1.0  0.6667312319535698  0.5765477505953313  0.5007972210380628  1.0000
  N   N4        1.0  0.33326863395902956  0.07575033493737489  0.5765479279206857  1.0000
  N   N5        1.0  0.33326922309890245  0.5007984391936302  0.9242502304982452  1.0000
  N   N6        1.0  0.33326919583648623  0.4234521366002753  0.4992024420931145  1.0000
  N   N7        1.0  0.8388684842075662  0.07963523843394427  0.5764907286903025  1.0000
  N   N8        1.0  0.8388684275955568  0.4968553764215073  0.9203654207791772  1.0000
  N   N9        1.0  0.8388690473519417  0.4235098583675735  0.5031447084095007  1.0000
  N   N10       1.0  0.16113194358249672  0.9203646487616691  0.42350893444088206  1.0000
  N   N11       1.0  0.1611313531062422  0.5031447044308592  0.07963496508654083  1.0000
  N   N12       1.0  0.1611313804381211  0.5764900288280329  0.4968549547216837  1.0000
  O   O1        1.0  0.17972101263986673  0.41871448575458453  0.9241907641369949  1.0000
  O   O2        1.0  0.17972031047055032  0.5054767026048168  0.5812852059252691  1.0000
  O   O3        1.0  0.1797210438015497  0.07580866485422894  0.49452299350220846  1.0000
  O   O4        1.0  0.820278768062039  0.5812846787068084  0.07580870533756469  1.0000
  O   O5        1.0  0.8202794702311776  0.494522990934179  0.41871373447138177  1.0000
  O   O6        1.0  0.8202787369001643  0.9241916805369357  0.5054771278245482  1.0000
  O   O7        1.0  0.31829225748528955  0.5852759809497599  0.07948673942797067  1.0000
  O   O8        1.0  0.3182929598075646  0.4942120041595429  0.4147250729162906  1.0000
  O   O9        1.0  0.31829287476136864  0.9205116076840413  0.5057867751365279  1.0000
  O   O10       1.0  0.6817068761279615  0.41472489351908576  0.9205128528208845  1.0000
  O   O11       1.0  0.6817061738059421  0.5057880766928946  0.5852753129494274  1.0000
  O   O12       1.0  0.6817069059405015  0.07948736312066267  0.49421197160350516  1.0000
  O   O13       1.0  0.33235480797545597  0.42837749355867777  0.011116167219476784  1.0000
  O   O14       1.0  0.3323535381336741  0.5827392521472348  0.5716229486815294  1.0000
  O   O15       1.0  0.3323547260870541  0.9888830359335187  0.4172601941148457  1.0000
  O   O16       1.0  0.6676449727263646  0.5716219354415202  0.9888830377161285  1.0000
  O   O17       1.0  0.6676462425681748  0.4172603705096449  0.4283769789886165  1.0000
  O   O18       1.0  0.667645054614745  0.011117044918847734  0.5827401917508722  1.0000
  O   O19       1.0  0.16162839648941227  0.5763887726233037  0.9965269456434811  1.0000
  O   O20       1.0  0.1616290183651472  0.42013807302797795  0.42361156873326417  1.0000
  O   O21       1.0  0.16162848003114053  0.0034729428696919718  0.5798614367178628  1.0000
  O   O22       1.0  0.838372031300544  0.42361203096327676  0.003473633878854784  1.0000
  O   O23       1.0  0.8383707623365666  0.5798622723631864  0.5763885525934923  1.0000
  O   O24       1.0  0.8383713006706586  0.9965271379826746  0.420138949147855  1.0000
