data_image0
_chemical_formula_structural       K4H28C24S4Br4N4Cl4O14
_chemical_formula_sum              "K4 H28 C24 S4 Br4 N4 Cl4 O14"
_cell_length_a       6.892598574221868
_cell_length_b       6.992089857182639
_cell_length_c       27.014437520105723
_cell_angle_alpha    86.38380908248634
_cell_angle_beta     82.65289526696662
_cell_angle_gamma    60.46380198510672

_space_group_name_H-M_alt    "P 1"
_space_group_IT_number       1

loop_
  _space_group_symop_operation_xyz
  'x, y, z'

loop_
  _atom_site_type_symbol
  _atom_site_label
  _atom_site_symmetry_multiplicity
  _atom_site_fract_x
  _atom_site_fract_y
  _atom_site_fract_z
  _atom_site_occupancy
  K   K1        1.0  0.14037460756196607  0.6889912012358864  0.9867505663657427  1.0000
  K   K2        1.0  0.8159446808745371  0.31090531856184356  0.01309015817994925  1.0000
  K   K3        1.0  0.5796177274046457  0.8112065148589168  0.4868643584908768  1.0000
  K   K4        1.0  0.8769044763262098  0.1892172834805095  0.513328453666567  1.0000
  H   H1        1.0  0.048358568940173347  0.5879395459786921  0.7532675712681254  1.0000
  H   H2        1.0  0.38970314694478253  0.41214413393348803  0.24666692436058216  1.0000
  H   H3        1.0  0.38600078033415713  0.9121889800335625  0.2534382687212187  1.0000
  H   H4        1.0  0.5510168895340402  0.08753936330378312  0.7467197438587405  1.0000
  H   H5        1.0  0.8462532553052498  0.40354422909642557  0.7291688356479256  1.0000
  H   H6        1.0  0.9789268616240037  0.5967802760928648  0.27073008671479937  1.0000
  H   H7        1.0  0.999306203021312  0.09640336354794242  0.2294287458337508  1.0000
  H   H8        1.0  0.324602831891994  0.9032623783269073  0.7707497733038197  1.0000
  H   H9        1.0  0.8113880290924342  0.121709390768693  0.7859505973062896  1.0000
  H   H10       1.0  0.7192632095990631  0.8785538400563556  0.21390865605194165  1.0000
  H   H11       1.0  0.6827241198134427  0.3787667753792335  0.28616347571129114  1.0000
  H   H12       1.0  0.3471483249985848  0.6211055954285384  0.7139784298860335  1.0000
  H   H13       1.0  0.9815664718177995  0.029371355744856904  0.8656578314206912  1.0000
  H   H14       1.0  0.8772233882230294  0.9707801878455842  0.13423385838896718  1.0000
  H   H15       1.0  0.7609342330170674  0.47165977679917154  0.365747247308427  1.0000
  H   H16       1.0  0.5977012671508175  0.5284477085756336  0.6343522300960914  1.0000
  H   H17       1.0  0.8052778642312787  0.6643206348642465  0.08395408744220136  1.0000
  H   H18       1.0  0.5531485511576831  0.33507019233478286  0.9160271553241587  1.0000
  H   H19       1.0  0.21926182418417264  0.8349089530002942  0.5840348535324297  1.0000
  H   H20       1.0  0.6389814179654605  0.16506738873788854  0.4160128138085002  1.0000
  H   H21       1.0  0.04107333557448091  0.4591027678685009  0.09223126352446802  1.0000
  H   H22       1.0  0.5920148179497601  0.5403035175208828  0.9077303193471594  1.0000
  H   H23       1.0  0.24955893401206442  0.040256728571520704  0.5923472017291617  1.0000
  H   H24       1.0  0.8830274661799961  0.9597475783466436  0.40771403870329703  1.0000
  H   H25       1.0  0.6002676422656203  0.0322266013412005  0.9711404181013353  1.0000
  H   H26       1.0  0.6042006649443649  0.9674002896544636  0.028672575333686716  1.0000
  H   H27       1.0  0.38276510509825795  0.4677524045980449  0.4712199443503665  1.0000
  H   H28       1.0  0.3213861827458048  0.5324698632331746  0.5287687636750178  1.0000
  C   C1        1.0  0.11469816787901962  0.25049018123765177  0.8541003766647821  1.0000
  C   C2        1.0  0.21987787298915135  0.7496539362916154  0.1458149970989879  1.0000
  C   C3        1.0  0.11528140180159602  0.2505099236541923  0.354160105953305  1.0000
  C   C4        1.0  0.7191786797677575  0.7496338580243177  0.6459265239130759  1.0000
  C   C5        1.0  0.1340269638429132  0.4081461793069606  0.8220417193393745  1.0000
  C   C6        1.0  0.3646942756910718  0.5919618152557291  0.17788903041931556  1.0000
  C   C7        1.0  0.2921241434825887  0.09258239662734978  0.32211385490830935  1.0000
  C   C8        1.0  0.7061596358477046  0.9073724112686891  0.6779922871559166  1.0000
  C   C9        1.0  0.03400171101699057  0.4642143437441817  0.7775857111983486  1.0000
  C   C10       1.0  0.27604250760649046  0.5359558965437615  0.22234964415226702  1.0000
  C   C11       1.0  0.2479863724086399  0.03616138351740261  0.27772750125858897  1.0000
  C   C12       1.0  0.561235937169357  0.9637028218570904  0.7224031946215632  1.0000
  C   C13       1.0  0.918916643276333  0.36113312148187765  0.7643813986445239  1.0000
  C   C14       1.0  0.04463251260126089  0.6390933565338487  0.23552630024186533  1.0000
  C   C15       1.0  0.02973336254301977  0.13912087987777264  0.2645787472896117  1.0000
  C   C16       1.0  0.43280105835188454  0.860709823471318  0.7355783917697138  1.0000
  C   C17       1.0  0.8991440228970902  0.20481684899353783  0.7959897294636351  1.0000
  C   C18       1.0  0.9002899328394987  0.795435228005829  0.20390236864933803  1.0000
  C   C19       1.0  0.8537347885457006  0.29580340515679643  0.29616003500498084  1.0000
  C   C20       1.0  0.44516550855804143  0.7040956056535207  0.7039882893990709  1.0000
  C   C21       1.0  0.9958401222019118  0.15088904756617444  0.8406114105827174  1.0000
  C   C22       1.0  0.9878546553026266  0.8492007780693243  0.15928245805792332  1.0000
  C   C23       1.0  0.8967457399628809  0.35000210867050907  0.3407131960472612  1.0000
  C   C24       1.0  0.5867854946201014  0.6500469458246059  0.659401606218964  1.0000
  S   S1        1.0  0.22713528716790418  0.17426109633913006  0.9130465108597505  1.0000
  S   S2        1.0  0.3149839848134945  0.8257193807179064  0.08681787558086282  1.0000
  S   S3        1.0  0.15199320145222106  0.32611953725638904  0.4131460424967274  1.0000
  S   S4        1.0  0.8904799634256687  0.6740035785370253  0.5869486956193627  1.0000
  Br  Br1       1.0  0.6568274941820392  0.8513040892144305  0.8642506220948861  1.0000
  Br  Br2       1.0  0.37362812640814974  0.14874909650976784  0.13541403714751976  1.0000
  Br  Br3       1.0  0.25830263713589097  0.6497864714359097  0.3646195090588337  1.0000
  Br  Br4       1.0  0.27099378551983483  0.35067800504563  0.6356867273246323  1.0000
  N   N1        1.0  0.4865098484505592  0.1048366429766006  0.9064017517582884  1.0000
  N   N2        1.0  0.4985918198784275  0.8949036458650286  0.09337639711055352  1.0000
  N   N3        1.0  0.3421233171547369  0.39526496259242805  0.4064898196447757  1.0000
  N   N4        1.0  0.14318692179757866  0.6045052082824612  0.5935920415149384  1.0000
  Cl  Cl1       1.0  0.2798833686454143  0.5381497149398201  0.8350492477388444  1.0000
  Cl  Cl2       1.0  0.6536451405887006  0.46173172218578884  0.1649070577738031  1.0000
  Cl  Cl3       1.0  0.5681533067880122  0.9626057665541908  0.3350266091319228  1.0000
  Cl  Cl4       1.0  0.8650736434263206  0.03741999900531571  0.6650713352599595  1.0000
  O   O1        1.0  0.1736855969571919  0.0034629785617000006  0.93199850838095  1.0000
  O   O2        1.0  0.10965787416618872  0.9968239241505688  0.0679165168779079  1.0000
  O   O3        1.0  0.927961919285323  0.4972118053702843  0.4321751521823602  1.0000
  O   O4        1.0  0.8563112011322216  0.5030921186488159  0.567937597023665  1.0000
  O   O5        1.0  0.12026085102663568  0.3733377366686455  0.9436609185630119  1.0000
  O   O6        1.0  0.43746876127845274  0.6266516691765105  0.05619991086955173  1.0000
  O   O7        1.0  0.24399301927473963  0.1267120503527792  0.44364940826495314  1.0000
  O   O8        1.0  0.813955709096525  0.8733591829471196  0.5564444437146322  1.0000
  O   O9        1.0  0.9509916745208142  0.5547631565005987  0.06662640687336116  1.0000
  O   O10       1.0  0.5718444159907891  0.4447197477930446  0.9333364576293803  1.0000
  O   O11       1.0  0.2552749496859618  0.9445863935310469  0.5667316479290464  1.0000
  O   O12       1.0  0.7673202364694233  0.05538340081807999  0.43332800713712777  1.0000
  O   O13       1.0  0.6874603367896761  0.9998484980911257  0.9998700863011083  1.0000
  O   O14       1.0  0.43723822537118884  0.5001405558822258  0.5000115439517644  1.0000
