data_image0
_chemical_formula_structural       Cu12H96C126N36O60
_chemical_formula_sum              "Cu12 H96 C126 N36 O60"
_cell_length_a       18.618582218723954
_cell_length_b       18.618565768809773
_cell_length_c       24.00638318601608
_cell_angle_alpha    90.00004832228042
_cell_angle_beta     89.99986899151435
_cell_angle_gamma    119.99685780561771

_space_group_name_H-M_alt    "P 1"
_space_group_IT_number       1

loop_
  _space_group_symop_operation_xyz
  'x, y, z'

loop_
  _atom_site_type_symbol
  _atom_site_label
  _atom_site_symmetry_multiplicity
  _atom_site_fract_x
  _atom_site_fract_y
  _atom_site_fract_z
  _atom_site_occupancy
  Cu  Cu1       1.0  0.5231773438936499  0.47682414736287626  0.9584156193514062  1.0000
  Cu  Cu2       1.0  0.5232987659365734  0.046513673937020925  0.9586000130920881  1.0000
  Cu  Cu3       1.0  0.9534819168780331  0.47670141964310625  0.9586031048454516  1.0000
  Cu  Cu4       1.0  0.4767744100515259  0.5232280946283441  0.4579042113369455  1.0000
  Cu  Cu5       1.0  0.4768942264894274  0.9537022820880022  0.4577856332645425  1.0000
  Cu  Cu6       1.0  0.04629649397710961  0.523107396942656  0.45778754041609915  1.0000
  Cu  Cu7       1.0  0.476768897436507  0.5232300844611045  0.042101050880504  1.0000
  Cu  Cu8       1.0  0.046290897874321425  0.5231105439876984  0.042210986357154895  1.0000
  Cu  Cu9       1.0  0.4768867921893897  0.9537029707423343  0.04221282820932261  1.0000
  Cu  Cu10      1.0  0.5231803494320815  0.47681976923166036  0.5415848155369504  1.0000
  Cu  Cu11      1.0  0.9534876915027438  0.476698569701064  0.5413982338515596  1.0000
  Cu  Cu12      1.0  0.5233030731851684  0.046511217217556626  0.5414005573260283  1.0000
  H   H1        1.0  0.5856101399711163  0.4974325888420453  0.8561148626243453  1.0000
  H   H2        1.0  0.43801040265527286  0.28921752691404373  0.21560694549640402  1.0000
  H   H3        1.0  0.35146760345359956  0.2916915082019287  0.13799099952686333  1.0000
  H   H4        1.0  0.5029857412527291  0.08914123496132481  0.8563589043367658  1.0000
  H   H5        1.0  0.711245180939386  0.14864682284696334  0.21561123971145693  1.0000
  H   H6        1.0  0.7087244204390473  0.05972997477468291  0.13812723770791993  1.0000
  H   H7        1.0  0.9112741800567787  0.4141640687892902  0.8562565925336613  1.0000
  H   H8        1.0  0.8509851758287112  0.5621358402414743  0.21560042039271823  1.0000
  H   H9        1.0  0.9398553558651627  0.6485233179700104  0.13812014363715971  1.0000
  H   H10       1.0  0.4144725380356391  0.5024805160680331  0.3558047480951886  1.0000
  H   H11       1.0  0.5603270615898098  0.7102189090147564  0.7156160723872989  1.0000
  H   H12       1.0  0.6472093108124568  0.7078311280954142  0.6378545932094113  1.0000
  H   H13       1.0  0.4978364298476447  0.9123697169864188  0.3557656517405334  1.0000
  H   H14       1.0  0.29004755086667433  0.8501781270024155  0.715607609796159  1.0000
  H   H15       1.0  0.29229882317807204  0.9392960073826017  0.6378004142956614  1.0000
  H   H16       1.0  0.08802402485553514  0.5854185470426002  0.35563719230856344  1.0000
  H   H17       1.0  0.14959334768380467  0.43953979567405815  0.7156163478983119  1.0000
  H   H18       1.0  0.06056333821532427  0.3527603254718059  0.6378620784584613  1.0000
  H   H19       1.0  0.497526206678941  0.5855351889694161  0.14419306647663183  1.0000
  H   H20       1.0  0.28978161038810396  0.439664708352474  0.7843987632701471  1.0000
  H   H21       1.0  0.2921639449763659  0.3527759321304984  0.8621580514676522  1.0000
  H   H22       1.0  0.08764444379772829  0.5021741033898977  0.14422797649042712  1.0000
  H   H23       1.0  0.14981432140944412  0.709957311561631  0.7843981423355614  1.0000
  H   H24       1.0  0.06070181061442519  0.7077115646291574  0.8621933630031934  1.0000
  H   H25       1.0  0.4145894340694125  0.9119906861744767  0.14436278470302003  1.0000
  H   H26       1.0  0.5604626895516701  0.8504063712147739  0.7844007402987572  1.0000
  H   H27       1.0  0.647251611821744  0.93944304478714  0.8621437654515915  1.0000
  H   H28       1.0  0.5025646094624534  0.4143823821494053  0.6438851050180362  1.0000
  H   H29       1.0  0.7107871754807817  0.5619871106870917  0.28438641649014323  1.0000
  H   H30       1.0  0.7083017818694726  0.6485199965878506  0.3620095518131948  1.0000
  H   H31       1.0  0.9108548887765548  0.49701157657280226  0.6436431679043367  1.0000
  H   H32       1.0  0.8512982127596588  0.2887285588746168  0.28437870485777955  1.0000
  H   H33       1.0  0.9402557378978926  0.2912772349271862  0.3618617690024378  1.0000
  H   H34       1.0  0.5858192532036313  0.0886906782603277  0.6437528767882129  1.0000
  H   H35       1.0  0.4378858390321483  0.14902518923311447  0.28438527381556605  1.0000
  H   H36       1.0  0.3515037442495839  0.06014747353507496  0.3618801270103163  1.0000
  H   H37       1.0  0.41447318755413665  0.5024802603402277  0.14419769506029922  1.0000
  H   H38       1.0  0.5603368072117119  0.7102219251261204  0.7843990284462238  1.0000
  H   H39       1.0  0.6472236406342373  0.7078389379019753  0.8621549369153529  1.0000
  H   H40       1.0  0.49783408379423816  0.9123670859760793  0.1442281635389691  1.0000
  H   H41       1.0  0.290044876614935  0.8501817473887954  0.7843980638720681  1.0000
  H   H42       1.0  0.2922912478551323  0.9393042392700578  0.8621982320963467  1.0000
  H   H43       1.0  0.08802781315626622  0.5854226709370138  0.14435921841509722  1.0000
  H   H44       1.0  0.1495929496536376  0.4395357691161834  0.7844005536315565  1.0000
  H   H45       1.0  0.060559263758627  0.3527478703693064  0.8621420109361326  1.0000
  H   H46       1.0  0.5856102310132769  0.49743611518400854  0.6438875578904374  1.0000
  H   H47       1.0  0.4380172359484931  0.28921701049142  0.2843853194421087  1.0000
  H   H48       1.0  0.3514899514890358  0.2916998934762488  0.36200808522958283  1.0000
  H   H49       1.0  0.5029795992568252  0.08912736404919028  0.6436425630031765  1.0000
  H   H50       1.0  0.7112447381382693  0.14865143425957675  0.28437878321248183  1.0000
  H   H51       1.0  0.7087224055411878  0.05973694403394342  0.3618681468853567  1.0000
  H   H52       1.0  0.9112851409178262  0.4141685414207075  0.6437493622411311  1.0000
  H   H53       1.0  0.8509849440471341  0.5621294991425999  0.28438462612506044  1.0000
  H   H54       1.0  0.9398545494790651  0.6485054474718978  0.3618772984846147  1.0000
  H   H55       1.0  0.5025645184102813  0.41437885580583605  0.8561186580901038  1.0000
  H   H56       1.0  0.7107859398862358  0.5619938450085513  0.2156076259856263  1.0000
  H   H57       1.0  0.7083059773594798  0.6485387750486638  0.13798996676057132  1.0000
  H   H58       1.0  0.9108416961655407  0.4970061128671972  0.8563599258046184  1.0000
  H   H59       1.0  0.851300576878316  0.2887252485815708  0.21560991168784943  1.0000
  H   H60       1.0  0.9402591370221882  0.2912710297117797  0.13813127372095121  1.0000
  H   H61       1.0  0.5858221123864809  0.08869816507913697  0.8562530256224933  1.0000
  H   H62       1.0  0.43787863492514834  0.14902285404362905  0.21560065153109778  1.0000
  H   H63       1.0  0.3514844743891814  0.060140306189318  0.13811839005782642  1.0000
  H   H64       1.0  0.4975259503710562  0.5855339773258951  0.35580761751647577  1.0000
  H   H65       1.0  0.28978206914306526  0.4396718966228548  0.715614974093761  1.0000
  H   H66       1.0  0.29217070483779384  0.3527910726034167  0.6378514594123601  1.0000
  H   H67       1.0  0.08763565517991613  0.5021674603152847  0.3557658812547119  1.0000
  H   H68       1.0  0.14981761585721604  0.7099530709773559  0.715608104814777  1.0000
  H   H69       1.0  0.06070845562762609  0.7077042630360282  0.6378047094329277  1.0000
  H   H70       1.0  0.4145889513353749  0.9119886274471155  0.35563575992370744  1.0000
  H   H71       1.0  0.560456786563506  0.8504059573423176  0.7156161180137701  1.0000
  H   H72       1.0  0.6472380460190194  0.9394366192205085  0.6378605005363768  1.0000
  H   H73       1.0  0.12560503880830223  0.98967690221302  0.2500078847632566  1.0000
  H   H74       1.0  0.011012320354225759  0.13617098421372023  0.25000270911073136  1.0000
  H   H75       1.0  0.8630132210903552  0.8741732784071556  0.2500109428780277  1.0000
  H   H76       1.0  0.8726197389557555  0.010052548935114074  0.7499960066030624  1.0000
  H   H77       1.0  0.9902042414335734  0.8625828497943853  0.7499895157225539  1.0000
  H   H78       1.0  0.13711870174685706  0.1272549326063697  0.7499950301325953  1.0000
  H   H79       1.0  0.9899495048106814  0.1273805233050922  0.7499959409543777  1.0000
  H   H80       1.0  0.13742426930598128  0.009802995575611801  0.7499895763123375  1.0000
  H   H81       1.0  0.8727429194757335  0.862880824013857  0.7499950350941376  1.0000
  H   H82       1.0  0.010316844908224217  0.8744041453425451  0.25000711616234383  1.0000
  H   H83       1.0  0.8638539791540859  0.9889976404029566  0.25000264848157633  1.0000
  H   H84       1.0  0.12583662123547862  0.1369826000114215  0.25001135533690194  1.0000
  H   H85       1.0  0.48158476214918977  0.24085170815707366  0.009642920547335601  1.0000
  H   H86       1.0  0.7592911187041763  0.24070420159089426  0.009835956432127101  1.0000
  H   H87       1.0  0.7591456751491065  0.518416505827908  0.009644848027697602  1.0000
  H   H88       1.0  0.5176326913819478  0.7588569888500273  0.5092405983004157  1.0000
  H   H89       1.0  0.241179219665838  0.7588203836178308  0.5090863009422933  1.0000
  H   H90       1.0  0.2411412940983765  0.48236666910373316  0.5092378371114991  1.0000
  H   H91       1.0  0.24113192856128754  0.48235795221440014  0.9907672666205729  1.0000
  H   H92       1.0  0.2411666854757185  0.7588277245909653  0.9909106520202828  1.0000
  H   H93       1.0  0.5176399750971398  0.7588649212160448  0.9907650291296479  1.0000
  H   H94       1.0  0.759146604898497  0.518400717598432  0.4903540790036729  1.0000
  H   H95       1.0  0.759293116737993  0.2407056062665872  0.490164455341244  1.0000
  H   H96       1.0  0.48160663771733436  0.24085686576260917  0.49035506740272444  1.0000
  C   C1        1.0  0.44772694863469525  0.3580417652390722  0.045826281914436606  1.0000
  C   C2        1.0  0.42004023361028675  0.27510540138582934  0.07154402266421302  1.0000
  C   C3        1.0  0.3714125069815139  0.25087379700116225  0.11985912433012663  1.0000
  C   C4        1.0  0.6421325787042347  0.0896797611123645  0.0460409649778839  1.0000
  C   C5        1.0  0.7251500163201569  0.14487894702645576  0.07171074881141241  1.0000
  C   C6        1.0  0.7494901434342651  0.12047101589644173  0.11996871762928411  1.0000
  C   C7        1.0  0.910119953164063  0.5521810512760084  0.04598131101136  1.0000
  C   C8        1.0  0.8548448764281672  0.5799311852516311  0.07162788125982192  1.0000
  C   C9        1.0  0.8791358144126276  0.6285810765733474  0.11993502755265692  1.0000
  C   C10       1.0  0.551816782521854  0.6418432192742429  0.5454104931895712  1.0000
  C   C11       1.0  0.5789677634822112  0.7245633199055633  0.5712752836400982  1.0000
  C   C12       1.0  0.6272691711581256  0.7486634775012818  0.6197373594402366  1.0000
  C   C13       1.0  0.3582442904962304  0.9100745752524944  0.5452782874091257  1.0000
  C   C14       1.0  0.27552661041310206  0.8544315997765323  0.5711560432679194  1.0000
  C   C15       1.0  0.25144609791210826  0.8785528820989796  0.6196677533406502  1.0000
  C   C16       1.0  0.08984496104289255  0.44808728463836195  0.5453633518167679  1.0000
  C   C17       1.0  0.14545308233720514  0.4209847049439971  0.571260989140214  1.0000
  C   C18       1.0  0.1213027553449918  0.3727031675157164  0.619730186951152  1.0000
  C   C19       1.0  0.3581507326396148  0.448178226719655  0.954595105682934  1.0000
  C   C20       1.0  0.27542633026521196  0.4210166076470685  0.9287341315906517  1.0000
  C   C21       1.0  0.2513279322315681  0.3727155459329339  0.8802732761225017  1.0000
  C   C22       1.0  0.08991583593079594  0.6417582979338333  0.9547166242101214  1.0000
  C   C23       1.0  0.14556006982862582  0.7244747674291289  0.9288409839462944  1.0000
  C   C24       1.0  0.12143850222749814  0.7485567245240715  0.8803305819670372  1.0000
  C   C25       1.0  0.5519124526209678  0.9101587006814073  0.954636740374106  1.0000
  C   C26       1.0  0.5790259326113228  0.8545545709617244  0.928743168347907  1.0000
  C   C27       1.0  0.6273118723796143  0.8787079719848164  0.8802764406200299  1.0000
  C   C28       1.0  0.6419572468181015  0.5522677663166959  0.45417340005848683  1.0000
  C   C29       1.0  0.7248915818839234  0.5799499676321813  0.4284551757853734  1.0000
  C   C30       1.0  0.7491207930634686  0.6285758339963579  0.38013843746786347  1.0000
  C   C31       1.0  0.9103178679203479  0.357866998171211  0.4539535739652011  1.0000
  C   C32       1.0  0.8551166451503107  0.274850474116363  0.42828292330367657  1.0000
  C   C33       1.0  0.8795168074157899  0.25051051072419045  0.3800236457378645  1.0000
  C   C34       1.0  0.4478372360167739  0.08988186616946342  0.45402012857739044  1.0000
  C   C35       1.0  0.4201012105226383  0.14516231574093305  0.42836824372616894  1.0000
  C   C36       1.0  0.3714530608877098  0.12086860495737996  0.3800636262915021  1.0000
  C   C37       1.0  0.5518220339835479  0.6418490219370271  0.954593747652588  1.0000
  C   C38       1.0  0.5789826437662666  0.7245724797427896  0.9287318789659481  1.0000
  C   C39       1.0  0.6272812114480927  0.748670286977692  0.8802705664351436  1.0000
  C   C40       1.0  0.35823720480701116  0.9100798248554582  0.9547193899707126  1.0000
  C   C41       1.0  0.27552206612607205  0.8544387008693591  0.9288429940102534  1.0000
  C   C42       1.0  0.251438010468348  0.878559410324641  0.8803325920104117  1.0000
  C   C43       1.0  0.08983783729632204  0.44808505358875544  0.9546365823575443  1.0000
  C   C44       1.0  0.1454439381731161  0.420971700944868  0.9287425778327291  1.0000
  C   C45       1.0  0.1212925486726418  0.37268710983612147  0.8802758906346214  1.0000
  C   C46       1.0  0.4477397652519456  0.3580464491689597  0.45417142594600085  1.0000
  C   C47       1.0  0.42005767868403143  0.27511092330215087  0.42845284700844394  1.0000
  C   C48       1.0  0.3714328755393907  0.25088087183936386  0.38013656600931267  1.0000
  C   C49       1.0  0.6421353962093831  0.08967940692567566  0.45395705646342316  1.0000
  C   C50       1.0  0.7251490511495148  0.1448803227765438  0.42828424568966034  1.0000
  C   C51       1.0  0.7494880702868443  0.12047797582481214  0.38002455160177834  1.0000
  C   C52       1.0  0.9101215141549516  0.5521701377751498  0.45401778714300184  1.0000
  C   C53       1.0  0.8548412544995115  0.5799094379505406  0.4283671673719028  1.0000
  C   C54       1.0  0.8791322036006689  0.6285573496539457  0.38006250912733464  1.0000
  C   C55       1.0  0.6419573199403531  0.5522759721322218  0.045827006352077114  1.0000
  C   C56       1.0  0.7248937815174372  0.5799634702350288  0.0715446852064403  1.0000
  C   C57       1.0  0.7491226714518717  0.6285916263115895  0.11985849644117512  1.0000
  C   C58       1.0  0.9103165177712781  0.35786695913211025  0.0460445639281346  1.0000
  C   C59       1.0  0.8551167631442027  0.2748488713914909  0.07171317542898951  1.0000
  C   C60       1.0  0.879518177236875  0.2505053282632517  0.11997114421358651  1.0000
  C   C61       1.0  0.44782309539675685  0.08987957982794371  0.04597740411443141  1.0000
  C   C62       1.0  0.42007390923107113  0.14515375999708616  0.07162604174045131  1.0000
  C   C63       1.0  0.37142667877581903  0.12086109853537866  0.11993239573030223  1.0000
  C   C64       1.0  0.3581570698012583  0.44818339248568156  0.5454089353220938  1.0000
  C   C65       1.0  0.2754348541998651  0.42103023183874194  0.571272954136859  1.0000
  C   C66       1.0  0.2513359074780153  0.3727306125902529  0.6197350704464738  1.0000
  C   C67       1.0  0.08992513062770492  0.641758358333142  0.5452801037629555  1.0000
  C   C68       1.0  0.14556882756517803  0.7244731201876463  0.5711573656490287  1.0000
  C   C69       1.0  0.12144896492887368  0.7485531917598963  0.6196694922990461  1.0000
  C   C70       1.0  0.5519117472556517  0.9101537228119415  0.5453635098379123  1.0000
  C   C71       1.0  0.5790145241759532  0.854545161755908  0.5712607465545291  1.0000
  C   C72       1.0  0.6272967535270765  0.8786999445177628  0.6197294872835074  1.0000
  C   C73       1.0  0.18095208572129454  0.05105838095529694  0.2500033639175713  1.0000
  C   C74       1.0  0.9495830069737181  0.13006805341559163  0.25000104261604866  1.0000
  C   C75       1.0  0.8692250842095671  0.8189223402423307  0.2500096696801606  1.0000
  C   C76       1.0  0.8173783619158072  0.9485944020820369  0.7499976114389852  1.0000
  C   C77       1.0  0.051638966848322636  0.8687426690176706  0.7499924318986402  1.0000
  C   C78       1.0  0.1310141286681983  0.18256292488541703  0.7499975529216697  1.0000
  C   C79       1.0  0.05140771563920047  0.18262144405589  0.7499980400124855  1.0000
  C   C80       1.0  0.1312650932575391  0.9483682221293178  0.749992387346211  1.0000
  C   C81       1.0  0.8174362139326091  0.8689885154417354  0.7499984185250311  1.0000
  C   C82       1.0  0.9489376997045084  0.8190562310336348  0.2500029342198999  1.0000
  C   C83       1.0  0.8699468041109527  0.05042250068571263  0.25000108717087943  1.0000
  C   C84       1.0  0.18108596256839601  0.13076792854688793  0.2500088050336657  1.0000
  C   C85       1.0  0.44402090185214144  0.22209164211331262  0.0473045976455779  1.0000
  C   C86       1.0  0.3476187242478019  0.17398679236754327  0.14423971924041012  1.0000
  C   C87       1.0  0.2991608260833374  0.14982703237814832  0.19776885069088482  1.0000
  C   C88       1.0  0.7781317642923185  0.22186667514939995  0.0474513458392991  1.0000
  C   C89       1.0  0.8264350912483207  0.17356200851569523  0.1442730359893929  1.0000
  C   C90       1.0  0.8506844915146913  0.14930709512316312  0.19776586264296012  1.0000
  C   C91       1.0  0.7779080463932571  0.5559833247006551  0.047307743278260296  1.0000
  C   C92       1.0  0.8260104620510089  0.6523887351037131  0.14424028468677363  1.0000
  C   C93       1.0  0.8501701225068811  0.7008465765058884  0.19776895895056873  1.0000
  C   C94       1.0  0.5550611487320081  0.7775890475787791  0.5469705363670628  1.0000
  C   C95       1.0  0.6508707853397552  0.8254718753645209  0.6441787796744195  1.0000
  C   C96       1.0  0.6991990030674412  0.8496354415848939  0.6977699079841528  1.0000
  C   C97       1.0  0.22249015200400618  0.7775094140476853  0.5468383661656234  1.0000
  C   C98       1.0  0.17468227779055198  0.8253193399400446  0.644147543188673  1.0000
  C   C99       1.0  0.1505431838514963  0.8494626733342584  0.6977662283716698  1.0000
  C   C100      1.0  0.22240978537183057  0.4449374882844667  0.5469690562678694  1.0000
  C   C101      1.0  0.17452723060806352  0.3491292804592874  0.6441777965298244  1.0000
  C   C102      1.0  0.15036850383003023  0.3008002777034021  0.697769798507217  1.0000
  C   C103      1.0  0.22240116107337105  0.44492817058682727  0.9530364727787984  1.0000
  C   C104      1.0  0.1745208842699951  0.34911267586891626  0.8558281713754639  1.0000
  C   C105      1.0  0.1503642890611444  0.30079248246865825  0.8022345144370675  1.0000
  C   C106      1.0  0.2224795163870821  0.777516071097935  0.9531598817684782  1.0000
  C   C107      1.0  0.17467350483459398  0.8253244965016436  0.8558512371958074  1.0000
  C   C108      1.0  0.1505400591578549  0.8494677519241874  0.8022292780812493  1.0000
  C   C109      1.0  0.5550714050963702  0.7775973701563145  0.9530350369758837  1.0000
  C   C110      1.0  0.6508851354542314  0.8254796884217369  0.8558279048420588  1.0000
  C   C111      1.0  0.6992062330667819  0.8496366103359989  0.8022350404626694  1.0000
  C   C112      1.0  0.7779007915092818  0.5559629715467977  0.4526899253668192  1.0000
  C   C113      1.0  0.8260072169142132  0.6523690295592954  0.35575486231277154  1.0000
  C   C114      1.0  0.8501697727699024  0.7008370645268442  0.30223242520879984  1.0000
  C   C115      1.0  0.7781312583634018  0.2218685755046437  0.45254735404169827  1.0000
  C   C116      1.0  0.8264297073875753  0.17356807303860927  0.35571971501775584  1.0000
  C   C117      1.0  0.8506828341891507  0.14931178048922786  0.3022284957952337  1.0000
  C   C118      1.0  0.44404225565087774  0.22210175825465941  0.4526892790540061  1.0000
  C   C119      1.0  0.347639564243856  0.17399241236556406  0.3557547134092118  1.0000
  C   C120      1.0  0.2991722919370615  0.14982933599844728  0.3022335666101341  1.0000
  C   C121      1.0  0.3537755799866177  0.1770899420906745  0.24999908639331642  1.0000
  C   C122      1.0  0.8233709295079661  0.17660879258787796  0.24999575437477264  1.0000
  C   C123      1.0  0.8229111244258646  0.646231964824203  0.24999799079395763  1.0000
  C   C124      1.0  0.6445811598088013  0.8223410541549258  0.7500043882028465  1.0000
  C   C125      1.0  0.1778576589134673  0.8221459045118281  0.7499998028951609  1.0000
  C   C126      1.0  0.17766248397165185  0.3554183821178043  0.7500046494508794  1.0000
  N   N1        1.0  0.22505848584931698  0.06890123190954256  0.1943922879876467  1.0000
  N   N2        1.0  0.9316730131721869  0.15626951579199777  0.1943754448922448  1.0000
  N   N3        1.0  0.8430786956511155  0.7748025400627654  0.19438988808948213  1.0000
  N   N4        1.0  0.7732217419790782  0.9306397819332588  0.6943957662419818  1.0000
  N   N5        1.0  0.06955332064065062  0.8425230897120385  0.6944021925865798  1.0000
  N   N6        1.0  0.15726762131662037  0.2267208374814871  0.6943960821774199  1.0000
  N   N7        1.0  0.06935923195281646  0.22676832437170452  0.8056036659712548  1.0000
  N   N8        1.0  0.15747945081197637  0.9304568638142925  0.8055867387281526  1.0000
  N   N9        1.0  0.7732857212767782  0.842739450079236  0.8056019937453841  1.0000
  N   N10       1.0  0.9310935125566144  0.7749393050865977  0.30561481142542857  1.0000
  N   N11       1.0  0.8437349983233488  0.06832787782166605  0.30562340592256726  1.0000
  N   N12       1.0  0.22521587803881712  0.15692028224373894  0.30562065027019975  1.0000
  N   N13       1.0  0.7732304892564764  0.9306437174405812  0.8056032721440686  1.0000
  N   N14       1.0  0.06954764365268308  0.842527485653342  0.8055872044842405  1.0000
  N   N15       1.0  0.15726316876084204  0.22671219334305454  0.8056019218635911  1.0000
  N   N16       1.0  0.22507016783752215  0.06890438096507981  0.30561478989844204  1.0000
  N   N17       1.0  0.931671428087945  0.15627304214422805  0.30562294016753816  1.0000
  N   N18       1.0  0.8430764137436739  0.7747917252256472  0.30562072112563504  1.0000
  N   N19       1.0  0.9310927158667467  0.7749489019275159  0.19439189295327003  1.0000
  N   N20       1.0  0.8437377406780158  0.06832426834456846  0.19437507753446684  1.0000
  N   N21       1.0  0.22520473313502973  0.1569176702628425  0.1943906503533199  1.0000
  N   N22       1.0  0.0693628373411953  0.22677674153685953  0.6943957435063768  1.0000
  N   N23       1.0  0.15748527164903672  0.9304544723149846  0.6944021433868955  1.0000
  N   N24       1.0  0.7732772840957265  0.8427352044726958  0.6943957375105543  1.0000
  N   N25       1.0  0.4008387513681625  0.2681307202060522  0.24999782474237264  1.0000
  N   N26       1.0  0.7323495127050564  0.13257906066132122  0.24999623719158856  1.0000
  N   N27       1.0  0.8670142007104288  0.5992962874664229  0.24999418740974025  1.0000
  N   N28       1.0  0.5975063933375394  0.7313054262734083  0.7500056498657417  1.0000
  N   N29       1.0  0.2688984327181171  0.866190652072376  0.7500014028454844  1.0000
  N   N30       1.0  0.13357272897518851  0.40237296254719707  0.7500076197177207  1.0000
  N   N31       1.0  0.268696791945942  0.40249439081731003  0.7500054172842425  1.0000
  N   N32       1.0  0.13380828053595906  0.7311053819014077  0.7500014784324307  1.0000
  N   N33       1.0  0.5976242853901537  0.8664278932759827  0.7500073600736883  1.0000
  N   N34       1.0  0.7318703651097636  0.599165629913749  0.24999847263710254  1.0000
  N   N35       1.0  0.8673809064794253  0.26763286107591705  0.24999574509054412  1.0000
  N   N36       1.0  0.400717704080364  0.13299207381831477  0.24999444830843492  1.0000
  O   O1        1.0  0.4798049878884853  0.3698815824966529  0.9973648470375381  1.0000
  O   O2        1.0  0.4381543985500185  0.4106359769818367  0.07436996590971032  1.0000
  O   O3        1.0  0.6302310774462256  0.11000189176940721  0.9976266426400998  1.0000
  O   O4        1.0  0.5895191223832867  0.027496045802443643  0.07456465496628081  1.0000
  O   O5        1.0  0.8899346541798607  0.5201407080501071  0.9975057452122514  1.0000
  O   O6        1.0  0.9722302134660622  0.5616570920097104  0.07454991079323751  1.0000
  O   O7        1.0  0.5199698158193724  0.6301079304531285  0.49688300757581777  1.0000
  O   O8        1.0  0.5616289775284784  0.5893454637957375  0.5738837277802489  1.0000
  O   O9        1.0  0.3699431243114686  0.8900211031120193  0.49671452014682427  1.0000
  O   O10       1.0  0.410753251297642  0.9723734216520726  0.5737548540825445  1.0000
  O   O11       1.0  0.11000653330148667  0.4799767366656624  0.49684208270593194  1.0000
  O   O12       1.0  0.027467205514326878  0.43819869909352593  0.5737850113278712  1.0000
  O   O13       1.0  0.3698892593770679  0.48002600028669207  0.0031227483860334004  1.0000
  O   O14       1.0  0.41064934435687656  0.43837365854928123  0.926117630009678  1.0000
  O   O15       1.0  0.1099709824054995  0.6300574463487648  0.0032767366952982007  1.0000
  O   O16       1.0  0.02761731972475441  0.5892458017993221  0.9262396528456378  1.0000
  O   O17       1.0  0.5200206999094376  0.8899991625057737  0.0031548239706254005  1.0000
  O   O18       1.0  0.5618020318441876  0.972535555284267  0.9262109789248784  1.0000
  O   O19       1.0  0.6301173900894951  0.5201921664009177  0.5026342611350075  1.0000
  O   O20       1.0  0.5893660310545669  0.5618481717225451  0.42563062452685335  1.0000
  O   O21       1.0  0.8900006121981502  0.3697671911948319  0.5023686357533707  1.0000
  O   O22       1.0  0.9725057545162128  0.4104784145775184  0.4254315385958948  1.0000
  O   O23       1.0  0.47987155032222256  0.1100605707189146  0.5024955472955597  1.0000
  O   O24       1.0  0.43835589835119737  0.027769290785641828  0.4254502153341875  1.0000
  O   O25       1.0  0.5199690573276  0.630109607816621  0.003120998191441501  1.0000
  O   O26       1.0  0.5616313856008545  0.5893520675389398  0.9261187951989813  1.0000
  O   O27       1.0  0.36993957441007524  0.8900255712815337  0.0032795071292213004  1.0000
  O   O28       1.0  0.4107502051181907  0.972375811874002  0.9262415212543972  1.0000
  O   O29       1.0  0.1099949277177358  0.47997314880915093  0.0031554699431666  1.0000
  O   O30       1.0  0.027458251636076476  0.4381951815312561  0.9262108613449983  1.0000
  O   O31       1.0  0.4798100172969555  0.36988284448383274  0.5026335121222728  1.0000
  O   O32       1.0  0.4381586080531789  0.4106375586699471  0.42562862634967763  1.0000
  O   O33       1.0  0.6302322874616805  0.1099962326694239  0.5023721135445386  1.0000
  O   O34       1.0  0.5895257525731522  0.027491985086982036  0.4254334191014522  1.0000
  O   O35       1.0  0.8899414231785057  0.5201337860909659  0.5024932350758463  1.0000
  O   O36       1.0  0.9722349222916191  0.5616517301671919  0.4254490835087026  1.0000
  O   O37       1.0  0.6301164302861366  0.5201943538238256  0.9973655960477857  1.0000
  O   O38       1.0  0.5893646507684875  0.5618512798409511  0.0743686316388974  1.0000
  O   O39       1.0  0.8899934112513533  0.3697680997637676  0.997629829746714  1.0000
  O   O40       1.0  0.9725011287608253  0.4104826191408649  0.07456610690600482  1.0000
  O   O41       1.0  0.4798622622175444  0.1100624927746807  0.9975034753179132  1.0000
  O   O42       1.0  0.4383447446615705  0.027768207756366785  0.07454812673118741  1.0000
  O   O43       1.0  0.36989199991851507  0.48002878575643143  0.49687934254371413  1.0000
  O   O44       1.0  0.4106550754947306  0.43837395362626097  0.5738825625859932  1.0000
  O   O45       1.0  0.10998083331853083  0.6300574186085017  0.49671633182342134  1.0000
  O   O46       1.0  0.027627287115208662  0.5892472318092885  0.5737559015600412  1.0000
  O   O47       1.0  0.5200209438465816  0.8899926291055135  0.4968426864077813  1.0000
  O   O48       1.0  0.5618009251960031  0.9725308729070149  0.5737855454698676  1.0000
  O   O49       1.0  0.5572202428814207  0.4427791981022153  0.8734206838466533  1.0000
  O   O50       1.0  0.5575588739403585  0.11495276776899739  0.8737550709499686  1.0000
  O   O51       1.0  0.8850310371347163  0.4424362874072827  0.8737615526211828  1.0000
  O   O52       1.0  0.4428202446637071  0.5571835520765802  0.3730455720238979  1.0000
  O   O53       1.0  0.4430527760998615  0.8857696855146743  0.37290196725416536  1.0000
  O   O54       1.0  0.11423635901103767  0.5569493535715749  0.37290465056680233  1.0000
  O   O55       1.0  0.44282094949386414  0.5571833052090583  0.1269551903848125  1.0000
  O   O56       1.0  0.11423780505115384  0.5569548098613595  0.1270871130283098  1.0000
  O   O57       1.0  0.44304992554678074  0.8857708452205202  0.1270931773914867  1.0000
  O   O58       1.0  0.5572198523679643  0.4427821962645948  0.626582167854629  1.0000
  O   O59       1.0  0.8850426743513394  0.44244014883690136  0.6262428008717505  1.0000
  O   O60       1.0  0.5575548529124956  0.11494221135714608  0.626249232441893  1.0000
