data_image0
_chemical_formula_structural       Cu8H64C104N24O40
_chemical_formula_sum              "Cu8 H64 C104 N24 O40"
_cell_length_a       18.84789782587836
_cell_length_b       18.847893675591127
_cell_length_c       23.104066802342498
_cell_angle_alpha    111.04231218537667
_cell_angle_beta     111.04241176660129
_cell_angle_gamma    96.87395505582522

_space_group_name_H-M_alt    "P 1"
_space_group_IT_number       1

loop_
  _space_group_symop_operation_xyz
  'x, y, z'

loop_
  _atom_site_type_symbol
  _atom_site_label
  _atom_site_symmetry_multiplicity
  _atom_site_fract_x
  _atom_site_fract_y
  _atom_site_fract_z
  _atom_site_occupancy
  Cu  Cu1       1.0  0.503796897843948  0.94698193159698  0.4507611842434329  1.0000
  Cu  Cu2       1.0  0.9469811056075201  0.5037953083687442  0.4507592763933914  1.0000
  Cu  Cu3       1.0  0.05302151841213036  0.4962060807431213  0.5492346770341284  1.0000
  Cu  Cu4       1.0  0.496207708091312  0.05302313439426613  0.5492371256002145  1.0000
  Cu  Cu5       1.0  0.9418602830336552  0.9418600646144812  0.4544964514667739  1.0000
  Cu  Cu6       1.0  0.5126015460926822  0.5126015873631147  0.45448498436299184  1.0000
  Cu  Cu7       1.0  0.05813931783984579  0.058141101310773956  0.5455039693773857  1.0000
  Cu  Cu8       1.0  0.4874068045480585  0.4874069979449019  0.5455040217427084  1.0000
  H   H1        1.0  0.261702353214865  0.8332242153889312  0.3097606101729937  1.0000
  H   H2        1.0  0.04807146612912314  0.47656188542501354  0.3097908996757112  1.0000
  H   H3        1.0  0.16677836789790487  0.7382964589481062  0.6902396852969445  1.0000
  H   H4        1.0  0.5234375042996079  0.9519275162764629  0.6902106677809456  1.0000
  H   H5        1.0  0.7382968445836086  0.166774128414417  0.6902399997039127  1.0000
  H   H6        1.0  0.9519284973087566  0.5234360869017537  0.6902104758505843  1.0000
  H   H7        1.0  0.833219860770356  0.2617019080247973  0.3097605484767031  1.0000
  H   H8        1.0  0.47656212621462407  0.04807126024231686  0.30979037504900486  1.0000
  H   H9        1.0  0.24200703316683556  0.9947597279092406  0.48586180815971136  1.0000
  H   H10       1.0  0.24384700009834856  0.49112498557322937  0.4858934459376129  1.0000
  H   H11       1.0  0.0052421275974550595  0.7579977180450966  0.5141408417821153  1.0000
  H   H12       1.0  0.5088902691322658  0.7561687090517921  0.514107265294257  1.0000
  H   H13       1.0  0.7579971471037652  0.005240487356807934  0.5141402265958918  1.0000
  H   H14       1.0  0.7561681106773079  0.5088886327758004  0.5141070689930487  1.0000
  H   H15       1.0  0.994757162180008  0.2420061136814128  0.4858610484704969  1.0000
  H   H16       1.0  0.4911218305540857  0.24384586740630707  0.4858926111294437  1.0000
  H   H17       1.0  0.030235528464764506  0.8355756140247124  0.3046924569758715  1.0000
  H   H18       1.0  0.2744646177044602  0.4690821080318912  0.3047083390096432  1.0000
  H   H19       1.0  0.1644316137225276  0.9697675016440428  0.6953138121331222  1.0000
  H   H20       1.0  0.530924557365772  0.7255304068147341  0.6952838757365003  1.0000
  H   H21       1.0  0.9697672452912728  0.16442615020927326  0.6953146967669427  1.0000
  H   H22       1.0  0.7255313143827352  0.5309249311900005  0.6952842620707501  1.0000
  H   H23       1.0  0.835569695424397  0.030233366539654704  0.30469187640240153  1.0000
  H   H24       1.0  0.46908219541418106  0.27446561180539664  0.3047088664851003  1.0000
  H   H25       1.0  0.19954135669649276  0.7316504686925569  0.20911369623840403  1.0000
  H   H26       1.0  0.009582642499410125  0.47746761142666116  0.20914849779903477  1.0000
  H   H27       1.0  0.26835316961345507  0.8004506345733731  0.7908855001760385  1.0000
  H   H28       1.0  0.5225356291516479  0.9904128253674715  0.7908559139639169  1.0000
  H   H29       1.0  0.8004494736813541  0.2683491410540101  0.7908856635103163  1.0000
  H   H30       1.0  0.990413676362259  0.5225356363100461  0.7908569459768131  1.0000
  H   H31       1.0  0.7316454625547237  0.19954316369621236  0.20911454232593477  1.0000
  H   H32       1.0  0.47746579150709323  0.009582903200090729  0.2091481046497705  1.0000
  H   H33       1.0  0.967957072539214  0.6457227806756407  0.9999780296833478  1.0000
  H   H34       1.0  0.03203212948736216  0.3542814334399509  2.4448673322226086e-05  1.0000
  H   H35       1.0  0.3542825066749913  0.032030087534899096  2.3453788870098498e-05  1.0000
  H   H36       1.0  0.6457210713612156  0.9679574409691442  0.999978567247176  1.0000
  H   H37       1.0  0.1741850476292939  0.5890494063912542  0.1105803393705216  1.0000
  H   H38       1.0  0.9363876300072889  0.5215491207859132  0.11061518321808711  1.0000
  H   H39       1.0  0.4109551290495973  0.8258011252206431  0.889422480098304  1.0000
  H   H40       1.0  0.47845024694716887  0.06359820208305669  0.8893842269268362  1.0000
  H   H41       1.0  0.8258014840447531  0.4109507106256843  0.8894206530565186  1.0000
  H   H42       1.0  0.06359869817595148  0.4784506479240064  0.8893861987550834  1.0000
  H   H43       1.0  0.589044639135487  0.1741848569581705  0.11057810261618078  1.0000
  H   H44       1.0  0.5215493805102582  0.9363879182931428  0.11061740148477378  1.0000
  H   H45       1.0  0.16847567240163397  0.4969569486076821  0.9999902097953565  1.0000
  H   H46       1.0  0.8315078778238387  0.5030417371118645  1.0766110506253643e-05  1.0000
  H   H47       1.0  0.5030454924612967  0.8315092875307359  1.4010223331671605e-05  1.0000
  H   H48       1.0  0.49695440515663586  0.16847554214903937  0.9999872947336356  1.0000
  H   H49       1.0  0.7924687031545544  0.8473752336226993  0.3947424023069102  1.0000
  H   H50       1.0  0.6022813664347382  0.547381278844732  0.394830406618695  1.0000
  H   H51       1.0  0.15263866092105627  0.20754124872614452  0.6052813242176853  1.0000
  H   H52       1.0  0.45262785197618877  0.3977304369174064  0.6051735930849276  1.0000
  H   H53       1.0  0.20753887336804425  0.15263484670548177  0.6052784561129486  1.0000
  H   H54       1.0  0.39772518905575527  0.4526247551090491  0.6051668874918689  1.0000
  H   H55       1.0  0.8473718011645629  0.7924669004841363  0.3947388604071519  1.0000
  H   H56       1.0  0.5473820872758851  0.6022796834616386  0.3948288664980666  1.0000
  H   H57       1.0  0.5292524407287049  0.8105330668133918  0.4013139601172356  1.0000
  H   H58       1.0  0.8724810958032594  0.5910697233905611  0.40164435847791696  1.0000
  H   H59       1.0  0.18946646147182383  0.4707358478711541  0.5986848066622201  1.0000
  H   H60       1.0  0.40893075455326766  0.12751339434672807  0.5983605132350646  1.0000
  H   H61       1.0  0.4707373795833972  0.18946794120755325  0.598686169482029  1.0000
  H   H62       1.0  0.1275109216349506  0.40892893329321117  0.5983579678128308  1.0000
  H   H63       1.0  0.8105345561118753  0.5292570585745011  0.40131940098421387  1.0000
  H   H64       1.0  0.591066438739965  0.8724792439739489  0.4016392761049161  1.0000
  C   C1        1.0  0.08203610615883856  0.9507784870286712  0.4345839968224538  1.0000
  C   C2        1.0  0.3525799166140331  0.48381242741432123  0.4346199634454422  1.0000
  C   C3        1.0  0.049226082198131876  0.9179686069303941  0.5654218365803202  1.0000
  C   C4        1.0  0.5162030948493381  0.6474234659892345  0.5653716617528984  1.0000
  C   C5        1.0  0.917968950076073  0.0492234409758439  0.5654224738836292  1.0000
  C   C6        1.0  0.6474241645387481  0.5162016665828163  0.5653712995632957  1.0000
  C   C7        1.0  0.9507748273554525  0.08203470444875192  0.4345834531673632  1.0000
  C   C8        1.0  0.48381160350540153  0.35257925909911597  0.43462013194317717  1.0000
  C   C9        1.0  0.3484245425725589  0.9461676104232879  0.43818842572100175  1.0000
  C   C10       1.0  0.08972623493506404  0.49202437146927736  0.4381885717817866  1.0000
  C   C11       1.0  0.05383078965830636  0.6515759443639055  0.561810475574262  1.0000
  C   C12       1.0  0.5079808338208878  0.9102787095573391  0.5618120217735837  1.0000
  C   C13       1.0  0.6515757023206422  0.053830085508707444  0.5618108584110503  1.0000
  C   C14       1.0  0.910277597972545  0.5079779261890424  0.5618101502925655  1.0000
  C   C15       1.0  0.9461663517417235  0.3484246125792225  0.43818689191405014  1.0000
  C   C16       1.0  0.49202612788917593  0.08972785401644505  0.43818983122873334  1.0000
  C   C17       1.0  0.260052145781806  0.9160223989343521  0.4011953306509992  1.0000
  C   C18       1.0  0.14113800626836334  0.48518143104481487  0.4012182594225705  1.0000
  C   C19       1.0  0.08397824067062488  0.7399493370717422  0.598805388291062  1.0000
  C   C20       1.0  0.5148285079719486  0.858868988351155  0.5987817946117672  1.0000
  C   C21       1.0  0.7399492604375837  0.08397460783346836  0.5988057079777889  1.0000
  C   C22       1.0  0.8588681601615705  0.5148278934120185  0.5987822059445663  1.0000
  C   C23       1.0  0.9160185155754025  0.26005238486658316  0.4011945603943091  1.0000
  C   C24       1.0  0.48518027776706435  0.14113757017634757  0.40121773035548364  1.0000
  C   C25       1.0  0.22395774917540476  0.8559589653615162  0.3337847246048112  1.0000
  C   C26       1.0  0.10984128954758887  0.47784750440619206  0.33380607758812175  1.0000
  C   C27       1.0  0.14404484884935437  0.7760425959880094  0.6662187624335232  1.0000
  C   C28       1.0  0.5221577633107445  0.8901622205580537  0.6661923963111178  1.0000
  C   C29       1.0  0.7760427982386774  0.14404014879090002  0.6662196082218088  1.0000
  C   C30       1.0  0.8901613040693023  0.5221561071180999  0.666192591837607  1.0000
  C   C31       1.0  0.8559539637951161  0.2239569128105359  0.33378442864044905  1.0000
  C   C32       1.0  0.4778469092942289  0.10984120642974207  0.3338059796240174  1.0000
  C   C33       1.0  0.14132443536335157  0.8277159352316374  0.29909606486840085  1.0000
  C   C34       1.0  0.15779460389769884  0.47137756037251677  0.2991225348492818  1.0000
  C   C35       1.0  0.17228983476373122  0.8586771464567918  0.7009071872205368  1.0000
  C   C36       1.0  0.528625790552411  0.8422060153563251  0.7008741825740968  1.0000
  C   C37       1.0  0.8586781871322416  0.1722851198921377  0.7009085645271258  1.0000
  C   C38       1.0  0.8422062588561446  0.5286243202900494  0.7008744027642919  1.0000
  C   C39       1.0  0.827711323122756  0.14132301261668795  0.2990959769676991  1.0000
  C   C40       1.0  0.47137705139738983  0.1577944438623007  0.2991223612921914  1.0000
  C   C41       1.0  0.2139202075839108  0.9479836362716371  0.4335816959201608  1.0000
  C   C42       1.0  0.21964970330127914  0.4855888788614636  0.43360036685609776  1.0000
  C   C43       1.0  0.05202090282401876  0.7860845357484578  0.5664232644533839  1.0000
  C   C44       1.0  0.5144291617256442  0.7803609634301267  0.566401913712525  1.0000
  C   C45       1.0  0.7860832546090464  0.05201854818162114  0.5664225873361488  1.0000
  C   C46       1.0  0.7803600690640948  0.5144290344388055  0.5664019286176439  1.0000
  C   C47       1.0  0.9479792153559928  0.2139194110058824  0.4335800475996123  1.0000
  C   C48       1.0  0.4855863116143838  0.21964946132041532  0.4335995559002725  1.0000
  C   C49       1.0  0.1313074333584439  0.9186096490951526  0.3987927522548204  1.0000
  C   C50       1.0  0.2675007845090889  0.4801655585194382  0.3988274062140533  1.0000
  C   C51       1.0  0.08139373457155585  0.8686965373532658  0.6012135016592522  1.0000
  C   C52       1.0  0.5198511256120425  0.7325044722279018  0.6011734553461493  1.0000
  C   C53       1.0  0.8686962506712277  0.08138947995701064  0.6012135313807505  1.0000
  C   C54       1.0  0.7325049745143631  0.5198504601485681  0.6011738404842646  1.0000
  C   C55       1.0  0.9186044597873887  0.1313061775399192  0.3987920381721254  1.0000
  C   C56       1.0  0.480163453080614  0.26750008567302797  0.39882652413585623  1.0000
  C   C57       1.0  0.09455043252270905  0.858284924468073  0.3316209883655076  1.0000
  C   C58       1.0  0.2370997069304437  0.4733389238907506  0.3316545414844184  1.0000
  C   C59       1.0  0.14172199312768194  0.9054522754521344  0.668385779924364  1.0000
  C   C60       1.0  0.5266603122806259  0.7629008563401952  0.6683399989257522  1.0000
  C   C61       1.0  0.9054513093399805  0.14171637643105578  0.6683851331230529  1.0000
  C   C62       1.0  0.7629005644589456  0.5266586751366732  0.6683406167089245  1.0000
  C   C63       1.0  0.8582815984981237  0.09454875650208557  0.3316192255744214  1.0000
  C   C64       1.0  0.47333825746156327  0.23710001324424468  0.3316540516801468  1.0000
  C   C65       1.0  0.13671909388651224  0.7259065956920024  0.19059854889482608  1.0000
  C   C66       1.0  0.05388672085498312  0.4646939811951754  0.1906244785184583  1.0000
  C   C67       1.0  0.2740934564519862  0.8632742695293275  0.8094021380635397  1.0000
  C   C68       1.0  0.5353080858454717  0.9461046533640313  0.8093753728235384  1.0000
  C   C69       1.0  0.8632753058226826  0.27409346166974313  0.8094031946158823  1.0000
  C   C70       1.0  0.9461056481899348  0.535308025407737  0.8093752346489397  1.0000
  C   C71       1.0  0.7259035703794225  0.1367187708873559  0.19059748492826878  1.0000
  C   C72       1.0  0.46469285844231223  0.05388691926960836  0.19062460862749486  1.0000
  C   C73       1.0  0.07369376537960193  0.6802812122838021  0.12671682411941282  1.0000
  C   C74       1.0  0.05300571074997864  0.44646078142456247  0.12673110429548023  1.0000
  C   C75       1.0  0.3197237803656281  0.9262941220862971  0.8732821309373479  1.0000
  C   C76       1.0  0.5535402045806491  0.946981323148563  0.8732663328582432  1.0000
  C   C77       1.0  0.9262944866247054  0.31971978828727304  0.8732823300753766  1.0000
  C   C78       1.0  0.9469809729465413  0.5535402116966354  0.8732670744948338  1.0000
  C   C79       1.0  0.6802769015747713  0.0736944902280499  0.12671699384931404  1.0000
  C   C80       1.0  0.44646065902295357  0.053005775863567826  0.12673060027748312  1.0000
  C   C81       1.0  0.012506037730098412  0.6138548751571947  0.9999834931833078  1.0000
  C   C82       1.0  0.9874784453586329  0.3861432039838136  1.3076736117062428e-05  1.0000
  C   C83       1.0  0.3861450180584568  0.9874770393646841  1.3069228955842264e-05  1.0000
  C   C84       1.0  0.613853467180718  0.012506533461611052  0.9999838566273026  1.0000
  C   C85       1.0  0.07230313254302699  0.6250972983976126  0.06260531839605926  1.0000
  C   C86       1.0  0.9902596113626388  0.43752470958124684  0.06262037337038596  1.0000
  C   C87       1.0  0.3749068183386299  0.9276813082769736  0.9373936247589683  1.0000
  C   C88       1.0  0.5624755345939149  0.009726847804536403  0.9373760625766677  1.0000
  C   C89       1.0  0.9276828112482532  0.3749038023015458  0.9373933067901631  1.0000
  C   C90       1.0  0.009726347630014303  0.5624752799116949  0.9373758938167285  1.0000
  C   C91       1.0  0.6250937306872474  0.07230319121904227  0.06260536560580485  1.0000
  C   C92       1.0  0.43752566193332854  0.9902594470155818  0.06262120325541082  1.0000
  C   C93       1.0  0.1292482375173591  0.583414647028185  0.062254182864364765  1.0000
  C   C94       1.0  0.9329554121206199  0.47883740259873525  0.06227942821451653  1.0000
  C   C95       1.0  0.4165900778720017  0.8707380713251499  0.9377483569592898  1.0000
  C   C96       1.0  0.5211594331287729  0.06702963413136596  0.9377202862266288  1.0000
  C   C97       1.0  0.8707387639014287  0.4165866531072168  0.9377466866214093  1.0000
  C   C98       1.0  0.0670312119572928  0.5211608115161469  0.9377228423493023  1.0000
  C   C99       1.0  0.5834104929814643  0.129248289780115  0.062252435510288306  1.0000
  C   C100      1.0  0.4788386517550265  0.9329562148963433  0.06228157882580377  1.0000
  C   C101      1.0  0.12613179155447798  0.5315626351550972  0.9999964774337683  1.0000
  C   C102      1.0  0.873854666061618  0.4684359810557908  5.6267818850220376e-06  1.0000
  C   C103      1.0  0.4684397713817745  0.8738551447395794  8.361876311533552e-06  1.0000
  C   C104      1.0  0.5315593863309118  0.12612979251815662  0.9999933894765648  1.0000
  N   N1        1.0  0.10402513764326925  0.7684467135413938  0.23034062218285803  1.0000
  N   N2        1.0  0.1263283458022073  0.46190536052479564  0.23036547168081967  1.0000
  N   N3        1.0  0.23155934502882755  0.8959725194938883  0.7696610490924342  1.0000
  N   N4        1.0  0.5380948797464741  0.8736656469648169  0.7696307844598281  1.0000
  N   N5        1.0  0.8959717955973616  0.23155545360852858  0.7696630628950913  1.0000
  N   N6        1.0  0.873665851178224  0.538094515523966  0.7696313233920054  1.0000
  N   N7        1.0  0.7684420202550228  0.10402586237876224  0.23034113549016416  1.0000
  N   N8        1.0  0.4619057542072866  0.1263287584641191  0.23036532841565824  1.0000
  N   N9        1.0  0.023598026665588495  0.7496161382610681  0.1926180781366752  1.0000
  N   N10       1.0  0.16901656109357788  0.44301622662055  0.19263290089538992  1.0000
  N   N11       1.0  0.2503939704965676  0.976401293532348  0.8073878329252864  1.0000
  N   N12       1.0  0.5569832571159453  0.8309727324753738  0.8073610214653258  1.0000
  N   N13       1.0  0.9763999602959926  0.2503883538329533  0.8073884413003328  1.0000
  N   N14       1.0  0.8309730974253001  0.5569832249825879  0.8073611343121883  1.0000
  N   N15       1.0  0.7496113188698671  0.023598593372717858  0.19261887022045707  1.0000
  N   N16       1.0  0.44301715542597714  0.16901733752943932  0.19263308879197183  1.0000
  N   N17       1.0  0.005929321975237667  0.6971244295754458  0.13086121907671358  1.0000
  N   N18       1.0  0.1249240054453011  0.4337635511211816  0.13087863086725804  1.0000
  N   N19       1.0  0.3028863202596312  0.9940641034214366  0.8691432255462813  1.0000
  N   N20       1.0  0.5662366194857569  0.8750632764201287  0.8691172264570001  1.0000
  N   N21       1.0  0.9940651545115741  0.30288222691567074  0.8691441628088016  1.0000
  N   N22       1.0  0.8750625269907745  0.5662367328898058  0.8691170235757751  1.0000
  N   N23       1.0  0.6971198871935727  0.005928897286089816  0.13086142737321188  1.0000
  N   N24       1.0  0.4337642183836792  0.12492408649060852  0.13087849463343565  1.0000
  O   O1        1.0  0.009839510801874963  0.9101165914700216  0.40755395448916687  1.0000
  O   O2        1.0  0.39770526420935676  0.49742295363979844  0.40754837420114126  1.0000
  O   O3        1.0  0.0898787140428966  0.9901595102499455  0.5924425627025514  1.0000
  O   O4        1.0  0.5025902206168382  0.6022951321510347  0.5924418372031113  1.0000
  O   O5        1.0  0.9901597470400745  0.08987714051442458  0.5924425613753145  1.0000
  O   O6        1.0  0.6022955435067489  0.5025891381471226  0.5924413936362641  1.0000
  O   O7        1.0  0.9101137150455046  0.009837884534057631  0.4075530564524216  1.0000
  O   O8        1.0  0.49742110450910815  0.39770435381964836  0.40754836106494013  1.0000
  O   O9        1.0  0.38707039002643745  0.9096501140996551  0.4080034475169399  1.0000
  O   O10       1.0  0.020932231318539586  0.4984086955853754  0.4079947828236072  1.0000
  O   O11       1.0  0.09034976468412022  0.6129308459683784  0.5919929325746195  1.0000
  O   O12       1.0  0.5015951072022277  0.9790721631431223  0.5920029180623486  1.0000
  O   O13       1.0  0.612930950285275  0.09034869866565735  0.5919921870363538  1.0000
  O   O14       1.0  0.9790721122693428  0.5015934100865708  0.5920026703556617  1.0000
  O   O15       1.0  0.9096497589868947  0.38707111165272323  0.40800385213364626  1.0000
  O   O16       1.0  0.4984099723843444  0.02093196045872502  0.4079946787805256  1.0000
  O   O17       1.0  0.11643998787267411  0.015569215176192641  0.48974792341405055  1.0000
  O   O18       1.0  0.3733625159752664  0.4742083062502119  0.4897973767444412  1.0000
  O   O19       1.0  0.9844301388725756  0.883552387088038  0.5102537862241122  1.0000
  O   O20       1.0  0.5258032351301125  0.6266514547912152  0.5101927542890577  1.0000
  O   O21       1.0  0.8835540715246352  0.9844285065680582  0.5102546652803993  1.0000
  O   O22       1.0  0.6266518272033538  0.5258007522461199  0.5101922843894046  1.0000
  O   O23       1.0  0.015566506711401551  0.11643969281598733  0.48974782790524773  1.0000
  O   O24       1.0  0.4742086512946814  0.3733620930463105  0.48979860365235345  1.0000
  O   O25       1.0  0.37867298308739805  0.006166395286413739  0.4970068564077792  1.0000
  O   O26       1.0  0.11827246037126572  0.4907782363269178  0.49698998237445846  1.0000
  O   O27       1.0  0.9938332802378086  0.6213272591218981  0.5029883732334354  1.0000
  O   O28       1.0  0.509225838625575  0.8817355655925497  0.5030103154892771  1.0000
  O   O29       1.0  0.6213278247164311  0.9938307478560234  0.5029882449357855  1.0000
  O   O30       1.0  0.8817361515176713  0.5092255844870762  0.5030105541247067  1.0000
  O   O31       1.0  0.006166591558233787  0.37867278310098135  0.4970063861720745  1.0000
  O   O32       1.0  0.4907780234978817  0.11827173348451941  0.49698903080977896  1.0000
  O   O33       1.0  0.8330734539435836  0.8330749755959274  0.37986697363069055  1.0000
  O   O34       1.0  0.5467929146164963  0.5467917213320491  0.3798872612689266  1.0000
  O   O35       1.0  0.16692377833625474  0.16692334445705362  0.6201423479624139  1.0000
  O   O36       1.0  0.4532134085044959  0.4532165207152303  0.6201044624179701  1.0000
  O   O37       1.0  0.5345176927781524  0.8449544181994498  0.3791813965857073  1.0000
  O   O38       1.0  0.8449531836724374  0.5345215524217651  0.3791841130718724  1.0000
  O   O39       1.0  0.1550403658066202  0.46547652830290076  0.6208144065336468  1.0000
  O   O40       1.0  0.46547867950078375  0.1550412449029039  0.6208157930737955  1.0000
