data_image0
_chemical_formula_structural       Zn2H38C44N2O10
_chemical_formula_sum              "Zn2 H38 C44 N2 O10"
_cell_length_a       11.74645685832393
_cell_length_b       13.21840233059113
_cell_length_c       17.562090852312547
_cell_angle_alpha    94.08403655463687
_cell_angle_beta     80.69125193962569
_cell_angle_gamma    85.26164729797152

_space_group_name_H-M_alt    "P 1"
_space_group_IT_number       1

loop_
  _space_group_symop_operation_xyz
  'x, y, z'

loop_
  _atom_site_type_symbol
  _atom_site_label
  _atom_site_symmetry_multiplicity
  _atom_site_fract_x
  _atom_site_fract_y
  _atom_site_fract_z
  _atom_site_occupancy
  Zn  Zn1       1.0  0.6186102192644469  0.49788269205354413  0.4912448530516612  1.0000
  Zn  Zn2       1.0  0.38140253824176557  0.5021076055333396  0.5087565514819018  1.0000
  H   H1        1.0  0.34482524803672726  0.4435824100364557  0.2692292882367369  1.0000
  H   H2        1.0  0.6551621414969018  0.5564212538485336  0.7307760933530216  1.0000
  H   H3        1.0  0.7860524013747463  0.6241355377024149  0.406289996269507  1.0000
  H   H4        1.0  0.2139578503611972  0.3758644553777444  0.5937078907171838  1.0000
  H   H5        1.0  0.0014302825475880061  0.35099643726484697  0.6049068213345591  1.0000
  H   H6        1.0  0.998575982032598  0.6490090643801454  0.3950938695293684  1.0000
  H   H7        1.0  0.2953899830787634  0.5086433805978245  0.7612976544963599  1.0000
  H   H8        1.0  0.7046075662757546  0.491315627627742  0.23869828051323333  1.0000
  H   H9        1.0  0.37685695778643696  0.55461005554465  0.01699422071106229  1.0000
  H   H10       1.0  0.6231398509810829  0.4453659425125381  0.9830067372868139  1.0000
  H   H11       1.0  0.7105702577307225  0.4855339719417202  0.09570345687514957  1.0000
  H   H12       1.0  0.2894186032432557  0.514434511870796  0.9042975518317105  1.0000
  H   H13       1.0  0.6606069615177717  0.1906833406535853  0.5785815217119177  1.0000
  H   H14       1.0  0.33940234884649095  0.8093143933058756  0.4214300865356576  1.0000
  H   H15       1.0  0.3396336940082563  0.9937353606685447  0.3993271607033576  1.0000
  H   H16       1.0  0.6603838311432142  0.0062582257426342  0.6006795432095018  1.0000
  H   H17       1.0  0.8064289278842978  0.40382145892357363  0.5605888894904112  1.0000
  H   H18       1.0  0.19358857808745009  0.5961752250769764  0.4394053481331851  1.0000
  H   H19       1.0  0.7976276057279463  0.7374239076749448  0.9485621362497693  1.0000
  H   H20       1.0  0.8946572260342975  0.6701371589798057  0.8697731148587236  1.0000
  H   H21       1.0  0.8419359700062328  0.7985171955954371  0.8632997122479722  1.0000
  H   H22       1.0  0.7363498385657506  0.6816281433535708  0.7874192060126786  1.0000
  H   H23       1.0  0.639895265386073  0.746625215361334  0.8661137700272049  1.0000
  H   H24       1.0  0.6623080457338091  0.5966137728611045  0.9440943196576793  1.0000
  H   H25       1.0  0.7541907842196026  0.5289568192677976  0.8642861985483986  1.0000
  H   H26       1.0  0.10533556884799815  0.3298247124248876  0.13023247950944483  1.0000
  H   H27       1.0  0.20236817597185563  0.26254384020187876  0.05144044501260228  1.0000
  H   H28       1.0  0.1580759886830805  0.2014520539863938  0.13670527931461143  1.0000
  H   H29       1.0  0.3601075507966415  0.25336123866461696  0.13388511840786063  1.0000
  H   H30       1.0  0.2636504788973824  0.31834707397282364  0.21258195401733807  1.0000
  H   H31       1.0  0.24578957073527619  0.4710263056654469  0.13573081336086548  1.0000
  H   H32       1.0  0.3376679936138415  0.40338169959075293  0.0559120065162162  1.0000
  H   H33       1.0  0.5070767072421987  0.1447349582557891  0.3067438560717548  1.0000
  H   H34       1.0  0.5114718798077078  0.26463341450470784  0.3606396424418889  1.0000
  H   H35       1.0  0.387180393871148  0.24135234850655965  0.3179989756747261  1.0000
  H   H36       1.0  0.6128511238805175  0.7586320273555386  0.6819947219254131  1.0000
  H   H37       1.0  0.4885505690043743  0.735356322257708  0.6393533728796752  1.0000
  H   H38       1.0  0.49295141174813745  0.855257357617262  0.693255492250671  1.0000
  C   C1        1.0  0.4703503758973043  0.6990754243925323  0.500418332624278  1.0000
  C   C2        1.0  0.5296533996010879  0.300918208159537  0.4995868942331398  1.0000
  C   C3        1.0  0.5348554371705845  0.18766850195823542  0.5019764450145272  1.0000
  C   C4        1.0  0.465162141132474  0.8123243554933098  0.49803080685197887  1.0000
  C   C5        1.0  0.39376713708440286  0.959492668887336  0.43722053075241957  1.0000
  C   C6        1.0  0.6062447988138969  0.040505562070869396  0.562786837210595  1.0000
  C   C7        1.0  0.39344656587457655  0.8579799522308561  0.4497643303854062  1.0000
  C   C8        1.0  0.6065648009048629  0.1420145824944896  0.5502447195296297  1.0000
  C   C9        1.0  0.5330041891381967  0.8726220136728815  0.5369718808072861  1.0000
  C   C10       1.0  0.4670097452527244  0.12737497960884528  0.46302727992418363  1.0000
  C   C11       1.0  0.5350057052922422  0.9783507044003418  0.5257186558272622  1.0000
  C   C12       1.0  0.46500756808539023  0.021642185576403995  0.4742884562928323  1.0000
  C   C13       1.0  0.04052322384054461  0.40602101086365394  0.5678945683340473  1.0000
  C   C14       1.0  0.9594850971548182  0.5939812915472303  0.4321035641973479  1.0000
  C   C15       1.0  0.15633708402668128  0.41930260309995765  0.5625715338287589  1.0000
  C   C16       1.0  0.8436773131799171  0.5806995443338893  0.4374248490434026  1.0000
  C   C17       1.0  0.1467514233543881  0.5434240107995053  0.4749669956506961  1.0000
  C   C18       1.0  0.853266039103559  0.4565727697672983  0.525028958417785  1.0000
  C   C19       1.0  0.027128457106677193  0.5354383189173718  0.47587206117946573  1.0000
  C   C20       1.0  0.9728833097949164  0.46456456411572594  0.5241234610318841  1.0000
  C   C21       1.0  0.5143108822927543  0.4832004663239076  0.3485787083520576  1.0000
  C   C22       1.0  0.4856693181700251  0.5167872784954781  0.6514258856572396  1.0000
  C   C23       1.0  0.522114033151631  0.4728237370443723  0.26248338936002097  1.0000
  C   C24       1.0  0.47788757236619983  0.5271573182622262  0.7375137862283623  1.0000
  C   C25       1.0  0.42413682239440925  0.45392209858997046  0.22985311710689868  1.0000
  C   C26       1.0  0.5758499653800655  0.5460693162402492  0.7701503338843307  1.0000
  C   C27       1.0  0.425472964376972  0.4467855093007601  0.1498451440147193  1.0000
  C   C28       1.0  0.5745127045311945  0.5531990810796046  0.8501582621854238  1.0000
  C   C29       1.0  0.5291358816715784  0.4649632265944703  0.1010280265291286  1.0000
  C   C30       1.0  0.47085808408874635  0.5350145900978589  0.898977816485555  1.0000
  C   C31       1.0  0.6296777020015368  0.47672847536991725  0.13410921844342738  1.0000
  C   C32       1.0  0.37031778006430477  0.5232423814779282  0.8658946038941407  1.0000
  C   C33       1.0  0.6271255397015948  0.48068504442856164  0.21349534388799896  1.0000
  C   C34       1.0  0.3728711011132475  0.5192839231034655  0.7865020499486376  1.0000
  C   C35       1.0  0.5398181287340762  0.4756409063473157  0.017729918893273598  1.0000
  C   C36       1.0  0.4601680766526428  0.524338827443998  0.9822681928043052  1.0000
  C   C37       1.0  0.6798441734757573  0.5874769694034114  0.8805679949582695  1.0000
  C   C38       1.0  0.7151932858873522  0.6891069021292681  0.85111140330158  1.0000
  C   C39       1.0  0.8179044309498735  0.7258893211932078  0.884973038962201  1.0000
  C   C40       1.0  0.3201443613462942  0.4125131547544784  0.11943981186927739  1.0000
  C   C41       1.0  0.2848034793663743  0.3108691924941668  0.14889127114118134  1.0000
  C   C42       1.0  0.18209488358792214  0.2740769813706976  0.11503143658255512  1.0000
  C   C43       1.0  0.45522552942885136  0.2062754949061656  0.3462436844177289  1.0000
  C   C44       1.0  0.5448020253094441  0.7937137249386411  0.6537545093098841  1.0000
  N   N1        1.0  0.7925362574911645  0.512298694382352  0.48323673415426777  1.0000
  N   N2        1.0  0.20747347350653905  0.4876981061033164  0.5167582817927254  1.0000
  O   O1        1.0  0.5706045774301387  0.6517841386488996  0.4949651780848112  1.0000
  O   O2        1.0  0.4294259412189945  0.3482036052553781  0.5050207168928081  1.0000
  O   O3        1.0  0.3751240952098627  0.6582689278785027  0.5052413069111664  1.0000
  O   O4        1.0  0.6248995821152546  0.3417292942060542  0.49478141843250956  1.0000
  O   O5        1.0  0.6092050098359606  0.48437396054656995  0.37511878251322617  1.0000
  O   O6        1.0  0.39080809900858066  0.5155823495127763  0.6248857977403117  1.0000
  O   O7        1.0  0.4131943915075098  0.49003019831256733  0.3890543473213056  1.0000
  O   O8        1.0  0.5868097768706448  0.5099890491348306  0.610947437674987  1.0000
  O   O9        1.0  0.39717615739514395  0.16498204247135115  0.4137895516710656  1.0000
  O   O10       1.0  0.6028570048278752  0.8350129506397226  0.5862042252130308  1.0000
