data_image0
_chemical_formula_structural       Cu2H14C20I2N2O4
_chemical_formula_sum              "Cu2 H14 C20 I2 N2 O4"
_cell_length_a       4.1245269605311154
_cell_length_b       10.040410784682518
_cell_length_c       12.304730796442238
_cell_angle_alpha    94.78750546732832
_cell_angle_beta     97.67234108034648
_cell_angle_gamma    99.53258582362989

_space_group_name_H-M_alt    "P 1"
_space_group_IT_number       1

loop_
  _space_group_symop_operation_xyz
  'x, y, z'

loop_
  _atom_site_type_symbol
  _atom_site_label
  _atom_site_symmetry_multiplicity
  _atom_site_fract_x
  _atom_site_fract_y
  _atom_site_fract_z
  _atom_site_occupancy
  Cu  Cu1       1.0  0.23641194660935128  0.10561915860787245  0.036348129131909004  1.0000
  Cu  Cu2       1.0  0.7636061401878393  0.8943833777707508  0.9636508487639549  1.0000
  H   H1        1.0  0.5507594459856904  0.10596367399307376  0.5484257873848579  1.0000
  H   H2        1.0  0.4492165062980289  0.8940328523814922  0.4515620943669917  1.0000
  H   H3        1.0  0.9515037685231392  0.02716701270183819  0.225259505079734  1.0000
  H   H4        1.0  0.04851776493498509  0.9728324760827434  0.7747369572210449  1.0000
  H   H5        1.0  0.048532504175540114  0.37807587225840655  0.4620470245119039  1.0000
  H   H6        1.0  0.951455568313726  0.6219195884677189  0.5379518428469725  1.0000
  H   H7        1.0  0.3813899428429791  0.5970969359690981  0.422728787059235  1.0000
  H   H8        1.0  0.618597491774622  0.40289646879415386  0.5772780343232641  1.0000
  H   H9        1.0  0.7224591641900843  0.7240295450502571  0.3001213182417787  1.0000
  H   H10       1.0  0.27753934340722003  0.27597196589121603  0.6998897885566253  1.0000
  H   H11       1.0  0.816701268498683  0.6079031633227101  0.12389293056891398  1.0000
  H   H12       1.0  0.18330482471231585  0.39210443786696897  0.8761181106047221  1.0000
  H   H13       1.0  0.5792433083786435  0.36251572889742073  0.06972715155982462  1.0000
  H   H14       1.0  0.4207743112577658  0.6374908600011505  0.930276974206237  1.0000
  C   C1        1.0  0.04589492783888718  0.1346471174306956  0.2513614022197431  1.0000
  C   C2        1.0  0.9541139015220419  0.8653513761887975  0.748633655862598  1.0000
  C   C3        1.0  0.9755135111304722  0.19382398224263395  0.3519015107390688  1.0000
  C   C4        1.0  0.024482695103280473  0.8061735089357566  0.6480945841722845  1.0000
  C   C5        1.0  0.09750117310169057  0.33037780457996035  0.38453414010822246  1.0000
  C   C6        1.0  0.9024892630618168  0.6696176597693009  0.6154623860302808  1.0000
  C   C7        1.0  0.2906267033648858  0.4065434679850242  0.317263623149323  1.0000
  C   C8        1.0  0.7093750079832901  0.5934550171904007  0.6827376449116616  1.0000
  C   C9        1.0  0.34748705666360985  0.3396532307973174  0.21563630770648962  1.0000
  C   C10       1.0  0.6525184070064043  0.6603483031402106  0.7843637070183932  1.0000
  C   C11       1.0  0.4291697570681662  0.5461825299620953  0.3462443947338941  1.0000
  C   C12       1.0  0.5708281077132397  0.4538179821019383  0.653760924886541  1.0000
  C   C13       1.0  0.6157641053355788  0.6168592192620536  0.2777245899265283  1.0000
  C   C14       1.0  0.38423719283182567  0.38314331358264997  0.7222834533696203  1.0000
  C   C15       1.0  0.6677434776382539  0.5505797851159143  0.17708638638241336  1.0000
  C   C16       1.0  0.3322635636093947  0.44942477698325667  0.8229204120041022  1.0000
  C   C17       1.0  0.5366526449118466  0.41486902440005474  0.14648731501657153  1.0000
  C   C18       1.0  0.46336008543603663  0.5851375718042461  0.8535166110953515  1.0000
  C   C19       1.0  0.7741362468397455  0.1074081073715334  0.41866430036505176  1.0000
  C   C20       1.0  0.2258440913707105  0.8925762092836678  0.581324511252909  1.0000
  I   I1        1.0  0.2959288101249696  0.851728114095266  0.08822738243208049  1.0000
  I   I2        1.0  0.7040838795178175  0.14827341858499207  0.9117696770440847  1.0000
  N   N1        1.0  0.22307229882789403  0.2034699142026496  0.18494996965379332  1.0000
  N   N2        1.0  0.7769457879692963  0.7965326221759738  0.8150490082420776  1.0000
  O   O1        1.0  0.6829824296451292  0.982697967618506  0.391043626347873  1.0000
  O   O2        1.0  0.31700834794013827  0.017309713696384697  0.6089472874837727  1.0000
  O   O3        1.0  0.7007190647938155  0.17218996011967386  0.5074875352307873  1.0000
  O   O4        1.0  0.2992624195943419  0.8278075578265882  0.4925063333531768  1.0000
