data_image0
_chemical_formula_structural       Zn4P8H32C28N8O32
_chemical_formula_sum              "Zn4 P8 H32 C28 N8 O32"
_cell_length_a       7.418126402565024
_cell_length_b       9.697036204498286
_cell_length_c       16.069295258051326
_cell_angle_alpha    89.99998647343395
_cell_angle_beta     90.00028644214474
_cell_angle_gamma    89.46384726413802

_space_group_name_H-M_alt    "P 1"
_space_group_IT_number       1

loop_
  _space_group_symop_operation_xyz
  'x, y, z'

loop_
  _atom_site_type_symbol
  _atom_site_label
  _atom_site_symmetry_multiplicity
  _atom_site_fract_x
  _atom_site_fract_y
  _atom_site_fract_z
  _atom_site_occupancy
  Zn  Zn1       1.0  0.772220369822442  0.7053666752191746  0.6846419321061462  1.0000
  Zn  Zn2       1.0  0.22777998252139747  0.7946298580388103  0.184642400419655  1.0000
  Zn  Zn3       1.0  0.2277811076657486  0.2946329509852107  0.3153569435152122  1.0000
  Zn  Zn4       1.0  0.7722174507487837  0.2053698177422589  0.8153595867212076  1.0000
  P   P1        1.0  0.8923758309881576  0.3976582957925532  0.6508509398398701  1.0000
  P   P2        1.0  0.107626266203404  0.10233829543322058  0.15084742780503294  1.0000
  P   P3        1.0  0.1076242714734477  0.6023382534699309  0.3491510473042752  1.0000
  P   P4        1.0  0.8923738632098477  0.8976613472968182  0.849152070119608  1.0000
  P   P5        1.0  0.4847957892919866  0.47388013832662784  0.6477240090092735  1.0000
  P   P6        1.0  0.5152009263441998  0.0261216762154817  0.1477245512549956  1.0000
  P   P7        1.0  0.5152030010313382  0.5261205520848763  0.35227548891375454  1.0000
  P   P8        1.0  0.4847978549941061  0.9738779830402178  0.852275568972928  1.0000
  H   H1        1.0  0.15441860197872606  0.3943409168042749  0.5860420274410458  1.0000
  H   H2        1.0  0.8455747427434659  0.1056609591112476  0.08604206859291003  1.0000
  H   H3        1.0  0.8455815184563137  0.6056576947696755  0.41395933739813984  1.0000
  H   H4        1.0  0.1544226815212753  0.8943376855148703  0.9139568070238867  1.0000
  H   H5        1.0  0.5093142550959014  0.4197835675202485  0.778368227074779  1.0000
  H   H6        1.0  0.4906825146595963  0.08021511009392412  0.278371194586434  1.0000
  H   H7        1.0  0.4906953108589532  0.5802159595294896  0.2216300262509989  1.0000
  H   H8        1.0  0.5093135525485906  0.9197825199019009  0.7216295479433584  1.0000
  H   H9        1.0  0.7228584038469988  0.3509255641443759  0.4348387873126143  1.0000
  H   H10       1.0  0.2771373184817918  0.14906585658812332  0.934837817918357  1.0000
  H   H11       1.0  0.2771376993148635  0.6490761904740977  0.5651619552169223  1.0000
  H   H12       1.0  0.7228601147917928  0.8509338191927968  0.0651647915273372  1.0000
  H   H13       1.0  0.6058999624761654  0.1818910563485545  0.624813394267079  1.0000
  H   H14       1.0  0.3941018409162069  0.3181045156760193  0.12481361700719161  1.0000
  H   H15       1.0  0.3940988008818991  0.818106540595956  0.375186103656155  1.0000
  H   H16       1.0  0.6059049839568759  0.681889888646289  0.8751877478399593  1.0000
  H   H17       1.0  0.8321749770777417  0.2510841376417972  0.316945759356436  1.0000
  H   H18       1.0  0.16781684033768576  0.24891665067428898  0.8169463924028406  1.0000
  H   H19       1.0  0.16781576073599785  0.7489207765468606  0.6830549831667414  1.0000
  H   H20       1.0  0.8321792448643565  0.7510830416321497  0.18305746165096085  1.0000
  H   H21       1.0  0.8923611437525452  0.9938260997754824  0.3117725538070816  1.0000
  H   H22       1.0  0.10763251084532753  0.5061704742639466  0.8117749517002937  1.0000
  H   H23       1.0  0.1076350223146392  0.0061828729332021005  0.688225699502688  1.0000
  H   H24       1.0  0.89236762756655  0.4938301996213281  0.1882264131387572  1.0000
  H   H25       1.0  0.828460898676596  0.8568745822030408  0.4417707244704872  1.0000
  H   H26       1.0  0.1715382132475511  0.6431208514138902  0.941772626095606  1.0000
  H   H27       1.0  0.17154191788449683  0.1431239963205968  0.5582250396283471  1.0000
  H   H28       1.0  0.8284727187760977  0.3568807214208007  0.05822811645089131  1.0000
  H   H29       1.0  0.6898895329575865  0.4511510836895526  0.5367990320188056  1.0000
  H   H30       1.0  0.3101059063245231  0.04884356369483811  0.0367997244564506  1.0000
  H   H31       1.0  0.3101146406975062  0.5488485094628075  0.4632017105201173  1.0000
  H   H32       1.0  0.6898915269354406  0.9511561120866576  0.9632003957699311  1.0000
  C   C1        1.0  0.8088368455408386  0.18279620350696044  0.3694122576127158  1.0000
  C   C2        1.0  0.19116080330601196  0.3171890272806266  0.8694129340249503  1.0000
  C   C3        1.0  0.191155258334895  0.8172107564669345  0.6305897295215175  1.0000
  C   C4        1.0  0.8088393261276607  0.6828106154485597  0.13059029772864508  1.0000
  C   C5        1.0  0.8388935766235974  0.04260562718855001  0.367641844982451  1.0000
  C   C6        1.0  0.16110148253015666  0.4573940736431156  0.8676411875778813  1.0000
  C   C7        1.0  0.16110117844630173  0.9573961439563022  0.6323564083262313  1.0000
  C   C8        1.0  0.8389013070963216  0.5426014114122496  0.1323601772645873  1.0000
  C   C9        1.0  0.800697129092491  0.9673293749118699  0.4396249776214489  1.0000
  C   C10       1.0  0.1993019144171342  0.5326609039119676  0.9396269588603233  1.0000
  C   C11       1.0  0.19929762597740816  0.032672396232975104  0.5603732756872335  1.0000
  C   C12       1.0  0.8007076515513276  0.46733862313719504  0.06037378368476711  1.0000
  C   C13       1.0  0.7311287715940297  0.030292303375453907  0.5107575198420946  1.0000
  C   C14       1.0  0.26886642774793057  0.46970751174471553  0.0107568118607801  1.0000
  C   C15       1.0  0.2688659565038094  0.9697063743026888  0.4892394888571374  1.0000
  C   C16       1.0  0.7311458343840372  0.530291982252564  0.9892451752970431  1.0000
  C   C17       1.0  0.7023515123967243  0.1758988725649715  0.5100188004775248  1.0000
  C   C18       1.0  0.2976449190956032  0.3240885525000436  0.0100206687884921  1.0000
  C   C19       1.0  0.29764327862344697  0.8241070232026642  0.48997883052607705  1.0000
  C   C20       1.0  0.7023592725431342  0.6759131029633567  0.9899813183599521  1.0000
  C   C21       1.0  0.6992478028622885  0.9451611988463496  0.5867669726478724  1.0000
  C   C22       1.0  0.3007595403259131  0.554832186729051  0.08677075435694802  1.0000
  C   C23       1.0  0.3007469521906003  0.05484057229920581  0.41322816913668003  1.0000
  C   C24       1.0  0.6992554359225593  0.4451693365286787  0.9132281212797011  1.0000
  C   C25       1.0  0.6759034971642421  0.39022414959474366  0.5941985507859044  1.0000
  C   C26       1.0  0.32409938229747587  0.10977863805171492  0.09419428785103182  1.0000
  C   C27       1.0  0.3240939091372752  0.6097724327194739  0.4058028140503325  1.0000
  C   C28       1.0  0.6759061933392374  0.8902271255099665  0.9058014762504243  1.0000
  N   N1        1.0  0.7455577556562359  0.24489820304997786  0.43895536743598745  1.0000
  N   N2        1.0  0.2544299951417699  0.2551015641924721  0.9389543306419058  1.0000
  N   N3        1.0  0.2544329282235935  0.7551005242048489  0.5610447527827488  1.0000
  N   N4        1.0  0.7455687592448967  0.7448950015956656  0.0610482788055222  1.0000
  N   N5        1.0  0.6361406560178083  0.2464261602948241  0.5757857606459851  1.0000
  N   N6        1.0  0.3638511924635566  0.2535716122336211  0.0757834344710417  1.0000
  N   N7        1.0  0.3638540361569937  0.7535683927593838  0.4242168487969522  1.0000
  N   N8        1.0  0.6361462407964069  0.7464280635478744  0.9242166857553402  1.0000
  O   O1        1.0  0.7691860195086662  0.8241170258026429  0.585414170735362  1.0000
  O   O2        1.0  0.23081325634651512  0.6758805841720986  0.08541466334949631  1.0000
  O   O3        1.0  0.23081142272270233  0.17588368113522532  0.4145828379668259  1.0000
  O   O4        1.0  0.7691909442670238  0.3241221024475323  0.9145848345795715  1.0000
  O   O5        1.0  0.6085970305707988  0.9962795694706656  0.6467041546879528  1.0000
  O   O6        1.0  0.3914056118994155  0.5037179793111051  0.14670317263115612  1.0000
  O   O7        1.0  0.39139498338671064  0.0037170789480355988  0.3532916093986742  1.0000
  O   O8        1.0  0.6086134445207421  0.4962876189925894  0.8532925914857188  1.0000
  O   O9        1.0  0.882195649914152  0.29447808695088906  0.7216318867336968  1.0000
  O   O10       1.0  0.11780583756307553  0.2055143636773309  0.22163336131693262  1.0000
  O   O11       1.0  0.11780849677226969  0.7055184127346267  0.27836823350059353  1.0000
  O   O12       1.0  0.8821942558998971  0.7944811544299173  0.7783667589127888  1.0000
  O   O13       1.0  0.9366859202035087  0.5454389775100736  0.6749684032313965  1.0000
  O   O14       1.0  0.0633102910465624  0.9545586409237289  0.1749641160950972  1.0000
  O   O15       1.0  0.0633142182185864  0.45456169637477484  0.325034828522135  1.0000
  O   O16       1.0  0.9366857581847866  0.045436926760771705  0.8250366264348303  1.0000
  O   O17       1.0  0.0318882020878348  0.3437764403389352  0.5842017357305026  1.0000
  O   O18       1.0  0.9681091487592256  0.156223324532931  0.0842014272585132  1.0000
  O   O19       1.0  0.9681132574303176  0.6562211235538413  0.4157983845006399  1.0000
  O   O20       1.0  0.031888284493931  0.8437763512488489  0.9157974483582123  1.0000
  O   O21       1.0  0.4458221408891204  0.3817357839395968  0.7266216440432345  1.0000
  O   O22       1.0  0.5541727147166284  0.11826293396027408  0.22662412880925595  1.0000
  O   O23       1.0  0.554182077701256  0.6182689649913586  0.27337785388570524  1.0000
  O   O24       1.0  0.44582067429809064  0.8817367913990429  0.7733741244980197  1.0000
  O   O25       1.0  0.32599491981471834  0.4720049820521909  0.5878332111414863  1.0000
  O   O26       1.0  0.6740011316984963  0.027995828832438004  0.0878384722212999  1.0000
  O   O27       1.0  0.6740065666652909  0.5279956753077144  0.4121662867846254  1.0000
  O   O28       1.0  0.3259963105532933  0.9720048781045777  0.9121622703098424  1.0000
  O   O29       1.0  0.5375710697291183  0.6186870339963164  0.6734103127608009  1.0000
  O   O30       1.0  0.4624264725838358  0.8813105686258778  0.1734113047387638  1.0000
  O   O31       1.0  0.46242772058399584  0.381313656415614  0.3265873182477534  1.0000
  O   O32       1.0  0.5375709427027003  0.11868704484414393  0.8265894377925705  1.0000
