data_image0
_chemical_formula_structural       Ni4H24C8O24
_chemical_formula_sum              "Ni4 H24 C8 O24"
_cell_length_a       6.954189066016171
_cell_length_b       8.603658010164084
_cell_length_c       9.284885601228188
_cell_angle_alpha    98.05836126299532
_cell_angle_beta     89.99977980541422
_cell_angle_gamma    89.99995597211657

_space_group_name_H-M_alt    "P 1"
_space_group_IT_number       1

loop_
  _space_group_symop_operation_xyz
  'x, y, z'

loop_
  _atom_site_type_symbol
  _atom_site_label
  _atom_site_symmetry_multiplicity
  _atom_site_fract_x
  _atom_site_fract_y
  _atom_site_fract_z
  _atom_site_occupancy
  Ni  Ni1       1.0  1.4261937195999996e-06  0.49999803503011003  0.499999171631913  1.0000
  Ni  Ni2       1.0  0.500002458159649  0.5000015258426983  0.9999992509258959  1.0000
  Ni  Ni3       1.0  0.4999990787579023  0.9999991061029906  0.4999996929955516  1.0000
  Ni  Ni4       1.0  1.4144007706999999e-06  0.9999984236059589  0.999999715349638  1.0000
  H   H1        1.0  0.3960860381120739  0.19972613828450386  0.7290843136434262  1.0000
  H   H2        1.0  0.8961007949352079  0.8002788447027456  0.7709081809339722  1.0000
  H   H3        1.0  0.6039126346350158  0.8002729312136552  0.2709139394028099  1.0000
  H   H4        1.0  0.1038993157828187  0.1997214218621508  0.22909453030914048  1.0000
  H   H5        1.0  0.3373703454307345  0.0307674945688916  0.767286230771731  1.0000
  H   H6        1.0  0.8373807963765498  0.9692269971606892  0.7327072838744115  1.0000
  H   H7        1.0  0.6626283273112037  0.9692315865264188  0.23271417779304931  1.0000
  H   H8        1.0  0.1626193143491932  0.030773252008486893  0.2672921940908992  1.0000
  H   H9        1.0  0.612113303005671  0.25902311254790783  0.44828448117170444  1.0000
  H   H10       1.0  0.1121132141187005  0.740975817181187  0.05170407334383498  1.0000
  H   H11       1.0  0.38788824570225694  0.740977136620508  0.5517149967912829  1.0000
  H   H12       1.0  0.8878868966063818  0.259022090040169  0.9482961880565169  1.0000
  H   H13       1.0  0.388586067685523  0.28356652992452064  0.48253317095981874  1.0000
  H   H14       1.0  0.8885949296078052  0.71643094557826  0.017456501948551334  1.0000
  H   H15       1.0  0.6114154810285084  0.7164325337735492  0.5174640043225267  1.0000
  H   H16       1.0  0.1114023051542219  0.2835716455402634  0.9825421925863438  1.0000
  H   H17       1.0  0.0358746530860401  0.1722947259543872  0.6189271164965859  1.0000
  H   H18       1.0  0.5358859803392733  0.8277107185852942  0.8810816262148718  1.0000
  H   H19       1.0  0.9641283335982748  0.827703192862593  0.3810753004176703  1.0000
  H   H20       1.0  0.4641141303870597  0.17228249894182573  0.1189191242962977  1.0000
  H   H21       1.0  0.7229838479312392  0.4196521169380105  0.7313315513151508  1.0000
  H   H22       1.0  0.22299583182591223  0.5803448375267165  0.7686615480967305  1.0000
  H   H23       1.0  0.2770162627787797  0.5803516828436415  0.2686737569328415  1.0000
  H   H24       1.0  0.7770042789104181  0.419651872627135  0.2313342551044286  1.0000
  C   C1        1.0  0.889777345410529  0.17406124978567314  0.5723243545400436  1.0000
  C   C2        1.0  0.3897883179604022  0.8259473078735408  0.927677223911239  1.0000
  C   C3        1.0  0.1102242032906346  0.8259378429052687  0.427678209538648  1.0000
  C   C4        1.0  0.6102089168032521  0.1740564513196077  0.0723205400264959  1.0000
  C   C5        1.0  0.7880135417859505  0.5310425129486377  0.7804792756043568  1.0000
  C   C6        1.0  0.2880158089398534  0.46894972374793303  0.7195216479221854  1.0000
  C   C7        1.0  0.21198513094863355  0.46896244331124853  0.2195229465302475  1.0000
  C   C8        1.0  0.7119843017878011  0.5310481776748402  0.2804775357188944  1.0000
  O   O1        1.0  0.9066989814503401  0.5991439931178348  0.7062488246765923  1.0000
  O   O2        1.0  0.40669521287385635  0.4008516340752947  0.793751080545448  1.0000
  O   O3        1.0  0.09330400524330429  0.4008550763780505  0.2937494283627018  1.0000
  O   O4        1.0  0.5933063358359829  0.5991462673467183  0.2062481030933228  1.0000
  O   O5        1.0  0.7393562020392322  0.5869807277765204  0.9095197844533089  1.0000
  O   O6        1.0  0.23935914219038068  0.41301388485224766  0.590477278984352  1.0000
  O   O7        1.0  0.2606367187730783  0.4130289007849157  0.0904787153019342  1.0000
  O   O8        1.0  0.760640968537274  0.5869840165705327  0.409521904656728  1.0000
  O   O9        1.0  0.8434456664196543  0.286928357506774  0.5030308827856018  1.0000
  O   O10       1.0  0.3434621767981979  0.7130801794912428  0.9969579116844187  1.0000
  O   O11       1.0  0.1565573202617898  0.7130730829298031  0.49697197561498996  1.0000
  O   O12       1.0  0.6565379339221096  0.28692359709611287  0.0030430855264925163  1.0000
  O   O13       1.0  0.7771545899686031  0.06279470956456382  0.5924163299772045  1.0000
  O   O14       1.0  0.2771684196297386  0.9372175002355688  0.9075882080002274  1.0000
  O   O15       1.0  0.22284408277238296  0.9372055454039482  0.4075842257496872  1.0000
  O   O16       1.0  0.722825939168878  0.0627839170112736  0.0924103393771816  1.0000
  O   O17       1.0  0.35919907911075194  0.09230192188079661  0.6851705525357872  1.0000
  O   O18       1.0  0.8592106398507794  0.9077007871045237  0.8148282330150494  1.0000
  O   O19       1.0  0.640805345562505  0.9076971534129042  0.3148287782604626  1.0000
  O   O20       1.0  0.1407880328892475  0.0923006417371894  0.1851724698739545  1.0000
  O   O21       1.0  0.48158055525964016  0.21480133733994217  0.4220844355408389  1.0000
  O   O22       1.0  0.9815804301367377  0.7851855736856308  0.07792193548689143  1.0000
  O   O23       1.0  0.5184224314333504  0.7851953902081164  0.5779146009335037  1.0000
  O   O24       1.0  0.018419680588344495  0.21481233353571844  0.9220783259134605  1.0000
