data_image0
_chemical_formula_structural       Ho4H32C24N4O28
_chemical_formula_sum              "Ho4 H32 C24 N4 O28"
_cell_length_a       7.563085616057605
_cell_length_b       9.034364452053973
_cell_length_c       13.767285209021118
_cell_angle_alpha    90.00000154498946
_cell_angle_beta     90.00019915436717
_cell_angle_gamma    89.99960134007164

_space_group_name_H-M_alt    "P 1"
_space_group_IT_number       1

loop_
  _space_group_symop_operation_xyz
  'x, y, z'

loop_
  _atom_site_type_symbol
  _atom_site_label
  _atom_site_symmetry_multiplicity
  _atom_site_fract_x
  _atom_site_fract_y
  _atom_site_fract_z
  _atom_site_occupancy
  Ho  Ho1       1.0  0.2552076790646112  0.7065780208320405  0.8124930417808544  1.0000
  Ho  Ho2       1.0  0.24478744075821618  0.2934211448953548  0.31249249013877994  1.0000
  Ho  Ho3       1.0  0.7447899459003294  0.20658125781947237  0.6875088008614654  1.0000
  Ho  Ho4       1.0  0.7552115676499722  0.7934238280072564  0.1875075537169479  1.0000
  H   H1        1.0  0.4358675586482264  0.3194755545249777  0.980378885783601  1.0000
  H   H2        1.0  0.0641352427761532  0.6805191887699282  0.4803787268275599  1.0000
  H   H3        1.0  0.5641383895150369  0.8194727113449929  0.5196229593758659  1.0000
  H   H4        1.0  0.9358594091143287  0.18052462117061202  0.0196198617954195  1.0000
  H   H5        1.0  0.5266366556486872  0.5008914809824533  0.9852375932594554  1.0000
  H   H6        1.0  0.973368078631971  0.4991036519679924  0.4852396583359919  1.0000
  H   H7        1.0  0.4733639901000756  0.0008907694534769999  0.5147627920947428  1.0000
  H   H8        1.0  0.0266345200985327  0.9991039596293588  0.0147582110158879  1.0000
  H   H9        1.0  0.33207640246615  0.6208274246105673  0.0684321136393038  1.0000
  H   H10       1.0  0.16792906102189417  0.37916619920678585  0.5684288608350627  1.0000
  H   H11       1.0  0.667926675682203  0.12082226458648647  0.4315693791032515  1.0000
  H   H12       1.0  0.8320763941762763  0.8791695460750547  0.9315686274930357  1.0000
  H   H13       1.0  0.16806594437560565  0.48510834223627336  0.0943644477771386  1.0000
  H   H14       1.0  0.3319357178337228  0.5148874961539391  0.594363687804922  1.0000
  H   H15       1.0  0.8319314811263894  0.9851017271757668  0.40563850577601096  1.0000
  H   H16       1.0  0.6680714233644168  0.014891189578719401  0.905633066068475  1.0000
  H   H17       1.0  0.0040169602922404  0.40408819524489564  0.9635247554501873  1.0000
  H   H18       1.0  0.4959830891882078  0.5959131888514194  0.46351742285505537  1.0000
  H   H19       1.0  0.9959856446787043  0.9040972104606979  0.5364807233849831  1.0000
  H   H20       1.0  0.5040149058282424  0.0959078707548784  0.036475353013536  1.0000
  H   H21       1.0  0.16881392576476628  0.27093501398817205  0.9386841375724657  1.0000
  H   H22       1.0  0.33118464313918133  0.729064155584261  0.43868375930127  1.0000
  H   H23       1.0  0.8312016787210937  0.7709372478181251  0.5613220646750179  1.0000
  H   H24       1.0  0.6688069634597228  0.2290645134784129  0.0613133776785162  1.0000
  H   H25       1.0  0.1234600522587641  0.017213921685645103  0.8079851215349194  1.0000
  H   H26       1.0  0.37653503881552564  0.9827852439040966  0.30798338210966136  1.0000
  H   H27       1.0  0.8765378142418784  0.5172203212219985  0.692013811460285  1.0000
  H   H28       1.0  0.6234624058245116  0.4827858716309024  0.1920144868746405  1.0000
  H   H29       1.0  0.3348063048003027  0.017408113790040095  0.8000498429426628  1.0000
  H   H30       1.0  0.16519005787576194  0.9825899446687534  0.300043344932277  1.0000
  H   H31       1.0  0.6651942045562295  0.5174091112243104  0.6999534482169949  1.0000
  H   H32       1.0  0.834804743945078  0.48259154745123567  0.1999530713259574  1.0000
  C   C1        1.0  0.4352891895372082  0.42846385311237617  0.9450611028302803  1.0000
  C   C2        1.0  0.0647133866788323  0.5715319959889558  0.4450609425473999  1.0000
  C   C3        1.0  0.5647171807957178  0.9284632213889668  0.5549385656732042  1.0000
  C   C4        1.0  0.9352834874583708  0.0715330053124319  0.05493764365521509  1.0000
  C   C5        1.0  0.5065098515012849  0.41399333878600697  0.8418875975392338  1.0000
  C   C6        1.0  0.9934939687177078  0.5859995760183238  0.3418897026793104  1.0000
  C   C7        1.0  0.4934966383275493  0.9139942346146128  0.6581135233619833  1.0000
  C   C8        1.0  0.0064988193025002005  0.08600492639548209  0.1581117892795092  1.0000
  C   C9        1.0  0.21405196142761437  0.5649168089524251  0.0394713169552645  1.0000
  C   C10       1.0  0.28595199516968955  0.4350812415235197  0.5394704680845948  1.0000
  C   C11       1.0  0.7859436451729066  0.06490874417288948  0.4605301745374817  1.0000
  C   C12       1.0  0.7140543204905755  0.9350852811577821  0.960527021487124  1.0000
  C   C13       1.0  0.07527605057187971  0.683703656485406  0.023473116264462104  1.0000
  C   C14       1.0  0.424735737290682  0.31629439347887717  0.5234747067697327  1.0000
  C   C15       1.0  0.9247198972921922  0.1836980993041664  0.4765298305880918  1.0000
  C   C16       1.0  0.5752675926874032  0.8162970334306863  0.9765242328781483  1.0000
  C   C17       1.0  0.12435932422296499  0.3835938711878484  0.9204626393807871  1.0000
  C   C18       1.0  0.37564045068515367  0.6164075115937777  0.42045943739358194  1.0000
  C   C19       1.0  0.8756474166382375  0.8835991656491513  0.579542112643125  1.0000
  C   C20       1.0  0.6243547306573235  0.11640591687724819  0.07953551800675031  1.0000
  C   C21       1.0  0.062423941998964894  0.38580892745906686  0.8155711676417993  1.0000
  C   C22       1.0  0.43756855300196656  0.6141968796784097  0.31557098838201375  1.0000
  C   C23       1.0  0.9375761694858653  0.8858171827156128  0.6844292262673974  1.0000
  C   C24       1.0  0.5624240021756607  0.11419454432925137  0.1844239669666905  1.0000
  N   N1        1.0  0.25853566325264415  0.4949482952597464  0.9460545960822201  1.0000
  N   N2        1.0  0.24146824149961077  0.5050486607527416  0.4460525901276995  1.0000
  N   N3        1.0  0.7414648691953402  0.9949499479980939  0.5539450738934804  1.0000
  N   N4        1.0  0.7585331482810105  0.0050495993348676  0.0539423628034115  1.0000
  O   O1        1.0  0.4728576198675327  0.5186837005629954  0.7821793536555859  1.0000
  O   O2        1.0  0.027146562110715405  0.4813221055200784  0.2821776674713021  1.0000
  O   O3        1.0  0.5271455233935497  0.018678252423306698  0.7178203057367724  1.0000
  O   O4        1.0  0.9728548612458211  0.9813201930243667  0.2178165696861356  1.0000
  O   O5        1.0  0.5993718258380911  0.30098899108982374  0.8225403695171352  1.0000
  O   O6        1.0  0.9006199710871171  0.6990061369280767  0.3225386694197923  1.0000
  O   O7        1.0  0.4006223750877638  0.8009893250440429  0.6774672860972758  1.0000
  O   O8        1.0  0.09936791708020111  0.1990142641113124  0.1774635514057934  1.0000
  O   O9        1.0  0.061605747339363894  0.7394851661841031  0.9386724194654831  1.0000
  O   O10       1.0  0.4383941436950067  0.260510682729823  0.4386656966652041  1.0000
  O   O11       1.0  0.9383942503794102  0.23947066108967618  0.5613308766295404  1.0000
  O   O12       1.0  0.5616038142327399  0.7605233520452472  0.061333620098537295  1.0000
  O   O13       1.0  0.9837227872559567  0.724729890846696  0.0951475124333143  1.0000
  O   O14       1.0  0.5162847483989097  0.27527076460170014  0.5951367064107843  1.0000
  O   O15       1.0  0.016278110644755404  0.2247274432635749  0.4048547089762309  1.0000
  O   O16       1.0  0.48371627593825656  0.7752684046335145  0.9048586005249605  1.0000
  O   O17       1.0  0.09142601775921122  0.5004544269200226  0.7642364568774624  1.0000
  O   O18       1.0  0.40857143872722185  0.49955469928875107  0.2642325883277579  1.0000
  O   O19       1.0  0.9085865314776457  0.00046002585766299995  0.7357639284783631  1.0000
  O   O20       1.0  0.5914298340690038  0.9995528095927926  0.23576310195401362  1.0000
  O   O21       1.0  0.9754907990718922  0.2743197144546201  0.7878512429764513  1.0000
  O   O22       1.0  0.5245007765711948  0.7256931226596919  0.2878451990650674  1.0000
  O   O23       1.0  0.024510233147445604  0.7743222543644279  0.7121593174901548  1.0000
  O   O24       1.0  0.4754842468300069  0.22568576337728527  0.2121490323950113  1.0000
  O   O25       1.0  0.2330701706831775  0.9778057981337652  0.8373214482234701  1.0000
  O   O26       1.0  0.2669251074303672  0.022195582121035798  0.3373151216187011  1.0000
  O   O27       1.0  0.7669305033308973  0.4778089045774225  0.6626811268098294  1.0000
  O   O28       1.0  0.7330708519057085  0.5221972873760239  0.16268128440762553  1.0000
