data_image0
_chemical_formula_structural       Co2H16C26N2O10
_chemical_formula_sum              "Co2 H16 C26 N2 O10"
_cell_length_a       7.054601664493303
_cell_length_b       9.841753361621633
_cell_length_c       12.290806607168454
_cell_angle_alpha    88.35419874795946
_cell_angle_beta     74.10479845515935
_cell_angle_gamma    84.90493110774464

_space_group_name_H-M_alt    "P 1"
_space_group_IT_number       1

loop_
  _space_group_symop_operation_xyz
  'x, y, z'

loop_
  _atom_site_type_symbol
  _atom_site_label
  _atom_site_symmetry_multiplicity
  _atom_site_fract_x
  _atom_site_fract_y
  _atom_site_fract_z
  _atom_site_occupancy
  Co  Co1       1.0  0.9999956460384997  0.5000032360682384  0.5000041062966999  1.0000
  Co  Co2       1.0  0.4999949218643567  0.50000120100502  0.49999824112249763  1.0000
  H   H1        1.0  0.891082367679815  0.1594394973589246  0.6313994468738782  1.0000
  H   H2        1.0  0.5004820906019563  0.0934550498535529  0.6293011984759217  1.0000
  H   H3        1.0  0.4111226070784326  0.2845895627445501  0.08532176006332998  1.0000
  H   H4        1.0  0.30390844901971564  0.2966229754015473  0.29575727974100363  1.0000
  H   H5        1.0  0.47709222684323277  0.84060984157545  0.6312018015075366  1.0000
  H   H6        1.0  0.8694560810189176  0.9065067168647475  0.6296502733888544  1.0000
  H   H7        1.0  0.5033845429965709  0.7156683277609873  0.08465188483096137  1.0000
  H   H8        1.0  0.4003033331979325  0.7039095417941824  0.29508648557249717  1.0000
  H   H9        1.0  0.10892268061162022  0.8405190231868572  0.36861564993711227  1.0000
  H   H10       1.0  0.49953161220159376  0.9064943002485324  0.3707018617556627  1.0000
  H   H11       1.0  0.5888907482439483  0.7154138158367971  0.9147241075022731  1.0000
  H   H12       1.0  0.6960384619822123  0.7034987318231175  0.7042942374449409  1.0000
  H   H13       1.0  0.5229179440118445  0.15933850359870413  0.36878403240433494  1.0000
  H   H14       1.0  0.13055439335826  0.09345080143975791  0.3703445501866226  1.0000
  H   H15       1.0  0.49667751803819027  0.2843259528237141  0.915299784561668  1.0000
  H   H16       1.0  0.5997145732678959  0.29620920202971496  0.7048550795986869  1.0000
  C   C1        1.0  0.19539964696337375  0.14191758020204054  0.6329869987372945  1.0000
  C   C2        1.0  0.016167616545829235  0.08849749385665721  0.6359989897089874  1.0000
  C   C3        1.0  0.36004201188191604  0.05179343892616829  0.6351016216404373  1.0000
  C   C4        1.0  0.21633225863540456  0.29176378585223267  0.6131694621947473  1.0000
  C   C5        1.0  0.41140747628863034  0.381449866123944  0.12564236136542917  1.0000
  C   C6        1.0  0.35385363393599095  0.3829376591856999  0.24196620780955405  1.0000
  C   C7        1.0  0.17105785634848306  0.8580693115449665  0.6333344956268759  1.0000
  C   C8        1.0  0.34760247496222274  0.9115231945976563  0.6359563955889767  1.0000
  C   C9        1.0  0.004394940344625102  0.9481458813282162  0.6354233178678043  1.0000
  C   C10       1.0  0.1706079810427216  0.7082511870646188  0.6132070629740338  1.0000
  C   C11       1.0  0.4626502293053251  0.61885192176279  0.1252780902339197  1.0000
  C   C12       1.0  0.4041268766402553  0.6174252466589608  0.24159353628102304  1.0000
  C   C13       1.0  0.804610389315151  0.8580480929772989  0.36701470290442006  1.0000
  C   C14       1.0  0.9838411274662705  0.9114661350784488  0.3640072588726325  1.0000
  C   C15       1.0  0.6399681565865691  0.9481640751552903  0.36489799126020006  1.0000
  C   C16       1.0  0.7836650281537133  0.7082090439658515  0.38681430202768036  1.0000
  C   C17       1.0  0.5885964922534513  0.6185800683291873  0.8743662876729558  1.0000
  C   C18       1.0  0.6461312458842557  0.617137162976519  0.7580395594888214  1.0000
  C   C19       1.0  0.8289401306326739  0.14189839798203252  0.3666716145159512  1.0000
  C   C20       1.0  0.6524065823184346  0.08843329958295242  0.3640429716612274  1.0000
  C   C21       1.0  0.9956081130517377  0.051819792235626515  0.36457794771145297  1.0000
  C   C22       1.0  0.8293628748156938  0.2917256936206202  0.3868102733920508  1.0000
  C   C23       1.0  0.5373599730382496  0.3811739491556594  0.874711352795799  1.0000
  C   C24       1.0  0.5958670810710487  0.38264652813981576  0.7583975003842411  1.0000
  C   C25       1.0  0.4689764899200385  0.5000877137539064  0.06175426508963968  1.0000
  C   C26       1.0  0.5310425628840324  0.4999310089174359  0.9382435984778323  1.0000
  N   N1        1.0  0.3509886743263949  0.5001707664920901  0.2984401738895385  1.0000
  N   N2        1.0  0.6490071386801405  0.49990406142794813  0.7015590635147928  1.0000
  O   O1        1.0  0.059787539141368175  0.3695310945489112  0.6181662014591608  1.0000
  O   O2        1.0  0.3917094570366831  0.32911252352003123  0.5886506000672111  1.0000
  O   O3        1.0  0.3231210961975038  0.6316209467856382  0.617876738262666  1.0000
  O   O4        1.0  0.01921433753174298  0.6704301181914617  0.5879980137334754  1.0000
  O   O5        1.0  0.9402068497963258  0.6304396895991006  0.3818237267344884  1.0000
  O   O6        1.0  0.6082878711811547  0.6708664448446627  0.41131292983220646  1.0000
  O   O7        1.0  0.6768527847790441  0.36835288247812775  0.3821304696486365  1.0000
  O   O8        1.0  0.9807328579306545  0.32955286418645363  0.41204088404861483  1.0000
  O   O9        1.0  0.2957766190697699  0.49986623218462267  0.41127175057814463  1.0000
  O   O10       1.0  0.7042243365372374  0.5001463688339172  0.5887271881712406  1.0000
