data_image0
_chemical_formula_structural       Co3H72C126N18Cl6
_chemical_formula_sum              "Co3 H72 C126 N18 Cl6"
_cell_length_a       9.281014909199538
_cell_length_b       19.126264707378173
_cell_length_c       19.125679547343967
_cell_angle_alpha    117.43439053682175
_cell_angle_beta     99.3003800723552
_cell_angle_gamma    99.32471672240078

_space_group_name_H-M_alt    "P 1"
_space_group_IT_number       1

loop_
  _space_group_symop_operation_xyz
  'x, y, z'

loop_
  _atom_site_type_symbol
  _atom_site_label
  _atom_site_symmetry_multiplicity
  _atom_site_fract_x
  _atom_site_fract_y
  _atom_site_fract_z
  _atom_site_occupancy
  Co  Co1       1.0  0.5000157694987877  1.9238866436e-05  0.5000054939185431  1.0000
  Co  Co2       1.0  5.570093989439188e-06  0.4999936716875409  0.5000153785686335  1.0000
  Co  Co3       1.0  0.4999972503099457  0.49998660241651993  0.9999807197166392  1.0000
  H   H1        1.0  0.9824263091936771  0.23290439719671943  0.5771388939829833  1.0000
  H   H2        1.0  0.4047673011178858  0.4226326411257161  0.6558056019341976  1.0000
  H   H3        1.0  0.7493666432997799  0.34421741815737755  0.7670032529075071  1.0000
  H   H4        1.0  0.01757857669213055  0.7671092640231404  0.4228613014885453  1.0000
  H   H5        1.0  0.5952370625516608  0.5773712309829834  0.34420625025023815  1.0000
  H   H6        1.0  0.25062569489682557  0.6557711586915855  0.23298387770127954  1.0000
  H   H7        1.0  0.07848491918920081  0.1468499301720954  0.646257503043664  1.0000
  H   H8        1.0  0.43177923805340157  0.35348329341831425  0.500623859427307  1.0000
  H   H9        1.0  0.93117417755402  0.49950226252251884  0.8529374179902335  1.0000
  H   H10       1.0  0.9215010087095551  0.8531563882237518  0.353738869616933  1.0000
  H   H11       1.0  0.568213553058193  0.6465236369038646  0.4993874499115874  1.0000
  H   H12       1.0  0.06880410079143923  0.5004887604447105  0.14705444432809855  1.0000
  H   H13       1.0  0.8175541152298322  0.8871435329976048  0.6570756029948228  1.0000
  H   H14       1.0  0.16106046513043987  0.34301399260926496  0.23025740543316428  1.0000
  H   H15       1.0  0.9306441964092187  0.7698899065026198  0.11269524640928803  1.0000
  H   H16       1.0  0.1824671045241644  0.11285911674390547  0.34293334612601  1.0000
  H   H17       1.0  0.8389497833413913  0.6569776442914801  0.7697377666517512  1.0000
  H   H18       1.0  0.06937479168610848  0.23011702599769274  0.8873003386163633  1.0000
  H   H19       1.0  0.5331437506655661  0.78855686197231  0.5993132682600404  1.0000
  H   H20       1.0  0.9343683229475132  0.40065349878086914  0.1893072753681224  1.0000
  H   H21       1.0  0.7450138204308913  0.8107656588300785  0.21139357168728165  1.0000
  H   H22       1.0  0.46686668101173723  0.21144823431504278  0.4006917804497121  1.0000
  H   H23       1.0  0.06562865127150977  0.5993399725096039  0.8106918852064809  1.0000
  H   H24       1.0  0.25499446475132  0.18923515498916288  0.7885994011929114  1.0000
  H   H25       1.0  0.8496528944017074  0.1831393068524179  0.3950574605946713  1.0000
  H   H26       1.0  0.4540517466788643  0.6050882982148522  0.7881804414016572  1.0000
  H   H27       1.0  0.6662095747894767  0.21193379620217456  0.8168831031034287  1.0000
  H   H28       1.0  0.150336090654882  0.816857834588795  0.6049459026444309  1.0000
  H   H29       1.0  0.5459343074013602  0.39490517242589357  0.21181420357341812  1.0000
  H   H30       1.0  0.333787711569343  0.7880755818410065  0.18311922911655645  1.0000
  H   H31       1.0  0.643700892882741  0.320239790003427  0.5829930816789569  1.0000
  H   H32       1.0  0.06029796780873641  0.41698692651088703  0.7372663948287723  1.0000
  H   H33       1.0  0.32325174078794566  0.26263029741028276  0.6796185744257813  1.0000
  H   H34       1.0  0.3562879618990492  0.6797549041447722  0.4170138493247961  1.0000
  H   H35       1.0  0.939684023760222  0.5830071557109873  0.26272559949668306  1.0000
  H   H36       1.0  0.6767469439109349  0.7373796924962548  0.32038519498630796  1.0000
  H   H37       1.0  0.9169670270689566  0.05398224309114849  0.7749412180956838  1.0000
  H   H38       1.0  0.14193804491986836  0.22515923350901088  0.2791924469369036  1.0000
  H   H39       1.0  0.8630755758654729  0.7209786809505587  0.9458933741376184  1.0000
  H   H40       1.0  0.08303030254188556  0.9460228523020289  0.2250633268645145  1.0000
  H   H41       1.0  0.8580576654787249  0.774836072979674  0.7208116431945228  1.0000
  H   H42       1.0  0.1369166802953358  0.27901846095477356  0.054099788373441975  1.0000
  H   H43       1.0  0.09551136894571491  0.9812817819604687  0.5651127863979041  1.0000
  H   H44       1.0  0.5304684748753133  0.4349618540700462  0.41593073553083576  1.0000
  H   H45       1.0  0.11391195761286341  0.5837963653343222  0.018665411904706143  1.0000
  H   H46       1.0  0.9044915109967846  0.018730043523966296  0.4348958174596618  1.0000
  H   H47       1.0  0.4695225598234387  0.5650328404322309  0.5840674778007156  1.0000
  H   H48       1.0  0.8860806030198064  0.41620138847050464  0.9813243964246894  1.0000
  H   H49       1.0  0.9511836980551893  0.312529834428659  0.3949790103156444  1.0000
  H   H50       1.0  0.555743171458637  0.6051002641976166  0.917594276132938  1.0000
  H   H51       1.0  0.6386769496940732  0.08253978068069048  0.6875035237720512  1.0000
  H   H52       1.0  0.0488028014955118  0.6874666948198962  0.6050338104316354  1.0000
  H   H53       1.0  0.44424043210145203  0.39488831205117236  0.08239269293252244  1.0000
  H   H54       1.0  0.3613230488515383  0.9174793862795738  0.3125019631739434  1.0000
  H   H55       1.0  0.7534060325690107  0.4438685222688575  0.574960619006376  1.0000
  H   H56       1.0  0.17814042936269905  0.4248891222703505  0.8688450461752667  1.0000
  H   H57       1.0  0.3096921765057061  0.13107684725024873  0.5559961492684024  1.0000
  H   H58       1.0  0.24659544471667505  0.5561273963162774  0.42504786486906454  1.0000
  H   H59       1.0  0.8218548377995489  0.5751031254887093  0.13114609687531228  1.0000
  H   H60       1.0  0.6903127537491967  0.8689325312586998  0.4440088732890216  1.0000
  H   H61       1.0  0.16161856651194736  0.0613700210030643  0.8577744716401413  1.0000
  H   H62       1.0  0.30344184975874094  0.14224999074634326  0.20351299530479136  1.0000
  H   H63       1.0  0.1005821000048355  0.7964706033867227  0.9387122944587816  1.0000
  H   H64       1.0  0.8383816010203375  0.9386320155764593  0.142230454622279  1.0000
  H   H65       1.0  0.696552154923559  0.8577440921378494  0.7964862145174224  1.0000
  H   H66       1.0  0.8994130840045571  0.20353020948962094  0.061282266148403174  1.0000
  H   H67       1.0  0.33680843876721395  0.9858306190856324  0.6464923555389531  1.0000
  H   H68       1.0  0.6901949919914188  0.3534908616797877  0.33892236395860914  1.0000
  H   H69       1.0  0.3508883590518081  0.6605986728503337  0.014246990560856385  1.0000
  H   H70       1.0  0.6631915128798695  0.014177535452148499  0.3535138044842157  1.0000
  H   H71       1.0  0.30979385966259787  0.6465038326389559  0.6610772468772409  1.0000
  H   H72       1.0  0.6490985689900057  0.3394009159317974  0.985744267904316  1.0000
  C   C1        1.0  0.7605369381781203  0.13760714870430485  0.5308421033672985  1.0000
  C   C2        1.0  0.22943584829278052  0.4690689194024955  0.6068388257176948  1.0000
  C   C3        1.0  0.6227224797508413  0.39314800737949435  0.8622894480723531  1.0000
  C   C4        1.0  0.23947930706140133  0.8624095721141599  0.469166143140157  1.0000
  C   C5        1.0  0.7705634876362951  0.5309227164343681  0.3931696083183097  1.0000
  C   C6        1.0  0.37727793731191633  0.6068436291155591  0.13769397379669357  1.0000
  C   C7        1.0  0.8388828782855599  0.0675993068802967  0.5862160852887328  1.0000
  C   C8        1.0  0.2525922813952376  0.41371042136503877  0.48147660214120686  1.0000
  C   C9        1.0  0.770957021575178  0.5185891253943067  0.9322249166165901  1.0000
  C   C10       1.0  0.16111602862597596  0.932419859994283  0.4137898389748357  1.0000
  C   C11       1.0  0.7473968809861874  0.5862848845121178  0.5185342948487771  1.0000
  C   C12       1.0  0.2290236102140639  0.4814000625700102  0.06775687300512351  1.0000
  C   C13       1.0  0.7143215724411931  0.9524168395122741  0.5986252871858612  1.0000
  C   C14       1.0  0.11603167590710221  0.4014777392230967  0.3539257454737594  1.0000
  C   C15       1.0  0.7619654582233223  0.6461859996049313  0.047537942777147124  1.0000
  C   C16       1.0  0.285699348498163  0.04760049329259889  0.4013888361214626  1.0000
  C   C17       1.0  0.8839669562360299  0.5985059432981072  0.6460768770106994  1.0000
  C   C18       1.0  0.23803880323138324  0.3538111433890662  0.9524441348109179  1.0000
  C   C19       1.0  0.48310920261312856  0.8713818892276705  0.5504056049950207  1.0000
  C   C20       1.0  0.9330240359195869  0.449602914603254  0.3210111577113182  1.0000
  C   C21       1.0  0.6120649126856534  0.679043931043708  0.1286938088950293  1.0000
  C   C22       1.0  0.5168976974822713  0.12863360727690315  0.4496055282484974  1.0000
  C   C23       1.0  0.06696363774781126  0.550385049650245  0.6789962395543797  1.0000
  C   C24       1.0  0.38792908529426734  0.32095015220591694  0.8712897148531125  1.0000
  C   C25       1.0  0.9185474588684958  0.17811029127602743  0.5738171387112558  1.0000
  C   C26       1.0  0.3443525364523197  0.42600374208799957  0.6043538612011972  1.0000
  C   C27       1.0  0.7402660058306694  0.39567280188898474  0.8217889344365261  1.0000
  C   C28       1.0  0.08146393759118085  0.8219076528886473  0.4261876317590349  1.0000
  C   C29       1.0  0.6556495553624088  0.5739933999915933  0.3956609860393029  1.0000
  C   C30       1.0  0.2597294736421746  0.6043133281067129  0.17819260894712838  1.0000
  C   C31       1.0  0.6700918671819737  0.16604810658427735  0.4901306529341838  1.0000
  C   C32       1.0  0.1796495881403928  0.5099009156048453  0.6759761888800427  1.0000
  C   C33       1.0  0.5037187474088681  0.3239953957737569  0.8338604468379457  1.0000
  C   C34       1.0  0.3299162982977391  0.8339655546368119  0.509879210836459  1.0000
  C   C35       1.0  0.8203449420374583  0.4900876609404179  0.3240304589898741  1.0000
  C   C36       1.0  0.49627276059690195  0.6759980755268271  0.16612207703566628  1.0000
  C   C37       1.0  0.967147257065925  0.13459611411896327  0.6081711915545754  1.0000
  C   C38       1.0  0.35864439100384976  0.3916374469142099  0.5264897324549623  1.0000
  C   C39       1.0  0.8321904351638096  0.47359946495103594  0.86522261782374  1.0000
  C   C40       1.0  0.03285370172190464  0.865420605694865  0.3918348114928064  1.0000
  C   C41       1.0  0.6413534658898428  0.6083621420425871  0.47352643350602364  1.0000
  C   C42       1.0  0.1677942582430559  0.5263891114808812  0.1347597309710551  1.0000
  C   C43       1.0  0.8428235215378947  0.012373547240464697  0.6146724493233364  1.0000
  C   C44       1.0  0.22834445182217414  0.3853721107426507  0.39783412401345686  1.0000
  C   C45       1.0  0.8302670832980681  0.6022623441674497  0.9874762628102617  1.0000
  C   C46       1.0  0.15718735523496713  0.9876499029464367  0.385338477696777  1.0000
  C   C47       1.0  0.7716480293837479  0.614618912705005  0.6021792423714132  1.0000
  C   C48       1.0  0.16971808699042154  0.3977250088678729  0.012498762432755831  1.0000
  C   C49       1.0  0.7175378481931316  0.8911716331601763  0.6225585817761327  1.0000
  C   C50       1.0  0.09552137667550645  0.3775348951686793  0.26876006305619876  1.0000
  C   C51       1.0  0.8266354537145729  0.731361419563939  0.1087440350317337  1.0000
  C   C52       1.0  0.282481540556752  0.1088426406832212  0.37744930619755485  1.0000
  C   C53       1.0  0.9044795723617725  0.622451234634191  0.7312459600654861  1.0000
  C   C54       1.0  0.1733678891860535  0.268633888011756  0.8912360791112165  1.0000
  C   C55       1.0  0.5741549772330713  0.8410859537303776  0.5928728737065255  1.0000
  C   C56       1.0  0.9818177948274923  0.4071514980895968  0.24829696364720624  1.0000
  C   C57       1.0  0.7334661768531703  0.7517891579113892  0.15889187427590196  1.0000
  C   C58       1.0  0.42585956519451434  0.158929543325236  0.4071372897904837  1.0000
  C   C59       1.0  0.018173327715785927  0.5928346310395934  0.7517088123795971  1.0000
  C   C60       1.0  0.2665332792971356  0.24820492576664313  0.8410894628843552  1.0000
  C   C61       1.0  0.7389066884340849  0.24152209933663468  0.48971835764968574  1.0000
  C   C62       1.0  0.24872930387303427  0.5103395234697742  0.7518692247805417  1.0000
  C   C63       1.0  0.49705535029760023  0.24812184613683996  0.7584234262701416  1.0000
  C   C64       1.0  0.26110343988842283  0.7584823849903229  0.5102926595874067  1.0000
  C   C65       1.0  0.7512728643921704  0.4896490538579598  0.2481265188292879  1.0000
  C   C66       1.0  0.502952892973056  0.7518832502593112  0.24157047108464266  1.0000
  C   C67       1.0  0.9890530165968202  0.0173007635905762  0.6642416551608363  1.0000
  C   C68       1.0  0.3249397795578872  0.33578853257395724  0.35311148323425806  1.0000
  C   C69       1.0  0.9716399404168216  0.6469018346539599  0.9825576931935772  1.0000
  C   C70       1.0  0.010961530370920387  0.9827300284887954  0.33576771399532396  1.0000
  C   C71       1.0  0.675062356849338  0.6642043267825455  0.6469087139612809  1.0000
  C   C72       1.0  0.028343127745657185  0.35307695320235416  0.0174100833057835  1.0000
  C   C73       1.0  0.8273031578379885  0.24005378818761608  0.4366073344667072  1.0000
  C   C74       1.0  0.39023423446268174  0.5634584784709561  0.8034940384785402  1.0000
  C   C75       1.0  0.5870217914815187  0.1965551102699621  0.7599371417969252  1.0000
  C   C76       1.0  0.17270159613723016  0.759942130557114  0.563404020409088  1.0000
  C   C77       1.0  0.6097618593157891  0.436528875031378  0.19649334540103777  1.0000
  C   C78       1.0  0.4129941459349452  0.8034609988317242  0.2400666158551558  1.0000
  C   C79       1.0  0.7121873357501229  0.3161935601936747  0.5406589274764855  1.0000
  C   C80       1.0  0.17109818043478234  0.4593339388394994  0.7755577007744492  1.0000
  C   C81       1.0  0.39580912164951343  0.2243866941530968  0.6837106760645072  1.0000
  C   C82       1.0  0.2878148867862294  0.6838060291545675  0.4593533977376438  1.0000
  C   C83       1.0  0.8288976077547615  0.5406528028242547  0.2244304229411184  1.0000
  C   C84       1.0  0.6041979483981024  0.775626967189396  0.3162907362484049  1.0000
  C   C85       1.0  0.009227579008573591  0.039090099364372584  0.7467587766402987  1.0000
  C   C86       1.0  0.2624016772356014  0.2532825333506991  0.292373879693308  1.0000
  C   C87       1.0  0.9701800504835206  0.7076619537837203  0.9608154725287366  1.0000
  C   C88       1.0  0.9907715428945139  0.9609229496006789  0.2532438223859755  1.0000
  C   C89       1.0  0.7376007620795946  0.7467109379905562  0.7076393032366112  1.0000
  C   C90       1.0  0.029805908084249096  0.2923247873768913  0.03916508392405393  1.0000
  C   C91       1.0  0.10910436098593804  0.9988172564288783  0.6291794739695573  1.0000
  C   C92       1.0  0.47997683538269337  0.37085930442609777  0.36948031255010244  1.0000
  C   C93       1.0  0.11013527537253492  0.6303330953537479  0.001122431400332795  1.0000
  C   C94       1.0  0.8909107085729889  0.0012080294699146  0.3708305359355323  1.0000
  C   C95       1.0  0.5200242062626756  0.6291335550152581  0.6305330017951079  1.0000
  C   C96       1.0  0.8898555292941169  0.3696524226068191  0.9988553266599993  1.0000
  C   C97       1.0  0.8835065447564999  0.3118499869124704  0.4363170992871587  1.0000
  C   C98       1.0  0.44677364227582206  0.5636950265783154  0.8755463743273282  1.0000
  C   C99       1.0  0.5716153399543061  0.12450829299444877  0.6881501620192552  1.0000
  C   C100      1.0  0.11649947683716284  0.6881440964269673  0.5636982148071255  1.0000
  C   C101      1.0  0.5532241953324757  0.43628926815868124  0.12443607661155902  1.0000
  C   C102      1.0  0.42840287110428216  0.8755145460389  0.3118547835298455  1.0000
  C   C103      1.0  0.7728561820593924  0.3850259919672608  0.536242740551657  1.0000
  C   C104      1.0  0.23625773935773253  0.4636713411996992  0.8487543220045738  1.0000
  C   C105      1.0  0.3878366756664278  0.15117790176159923  0.6148713083448314  1.0000
  C   C106      1.0  0.2271554313306439  0.6149705389108817  0.46377466222712377  1.0000
  C   C107      1.0  0.7637415373851157  0.5363092828846446  0.15122602730615134  1.0000
  C   C108      1.0  0.6121846775620483  0.8488424903697689  0.3851301414556899  1.0000
  C   C109      1.0  0.14537696354172172  0.04274536784029689  0.7933309649235484  1.0000
  C   C110      1.0  0.3518362902832379  0.20668522923877927  0.2493396781220909  1.0000
  C   C111      1.0  0.10284679799161006  0.7506232431780829  0.9573041659827695  1.0000
  C   C112      1.0  0.8546243434168161  0.9572676811986651  0.20667494242065482  1.0000
  C   C113      1.0  0.6481642686717778  0.7933088539158746  0.7506673651773711  1.0000
  C   C114      1.0  0.8971414360055833  0.24937022781674048  0.042681761320117924  1.0000
  C   C115      1.0  0.24516810871426745  0.0011208096899082  0.6746273258466857  1.0000
  C   C116      1.0  0.5704583291381269  0.3253602589211226  0.3262373645246441  1.0000
  C   C117      1.0  0.24402724331801554  0.6734656761335175  0.9988878796075299  1.0000
  C   C118      1.0  0.7548403202194077  0.9988977459588633  0.3253821996934359  1.0000
  C   C119      1.0  0.42954131305010884  0.6746319887177847  0.6737718982827802  1.0000
  C   C120      1.0  0.7559616419812798  0.32652473605900667  0.0010914605956954752  1.0000
  C   C121      1.0  0.2628848145755924  0.023549327387634395  0.7566939762378055  1.0000
  C   C122      1.0  0.5059520844578885  0.2432884749715924  0.2666478855249821  1.0000
  C   C123      1.0  0.23951410764301062  0.7331616779304041  0.9765317104051263  1.0000
  C   C124      1.0  0.7371216039465125  0.9764673927693364  0.24331350030563206  1.0000
  C   C125      1.0  0.4940498739542604  0.7567062199855171  0.733363209312273  1.0000
  C   C126      1.0  0.7604742998810039  0.2668299577074363  0.02345286187333775  1.0000
  N   N1        1.0  0.7126327718791643  0.06949195227894478  0.5380567551939137  1.0000
  N   N2        1.0  0.1744891503741782  0.46188006050473246  0.5315062131374616  1.0000
  N   N3        1.0  0.6428807487554662  0.4685026315935159  0.9303673364606908  1.0000
  N   N4        1.0  0.2873652592834971  0.9305210965517006  0.4619483726264803  1.0000
  N   N5        1.0  0.8254945518261534  0.538115245053646  0.46850216461818656  1.0000
  N   N6        1.0  0.35710268038415194  0.531487780060978  0.06961889615265458  1.0000
  N   N7        1.0  0.5690483559927343  0.9403241476735501  0.5549596842449346  1.0000
  N   N8        1.0  0.014315141808253794  0.44508398364904167  0.3854325414717508  1.0000
  N   N9        1.0  0.6288286212507898  0.6146388220413569  0.059699391175555984  1.0000
  N   N10       1.0  0.4309693324027606  0.05968890227300959  0.4450558722788003  1.0000
  N   N11       1.0  0.9856823966900805  0.554899698896115  0.6145658125080544  1.0000
  N   N12       1.0  0.37117996728621705  0.3853626037382796  0.9402876131772899  1.0000
  N   N13       1.0  0.8575514832539568  0.3834423605999645  0.48509814961330017  1.0000
  N   N14       1.0  0.3721149564796278  0.5148248519132324  0.8983022217404725  1.0000
  N   N15       1.0  0.4741728701420769  0.10167879664191296  0.6165097134346595  1.0000
  N   N16       1.0  0.14247511189249448  0.6165535593954913  0.5149243279380897  1.0000
  N   N17       1.0  0.6278938808457114  0.4851508785510958  0.1016729613351686  1.0000
  N   N18       1.0  0.5258632465000729  0.8983471026990271  0.38349229333872603  1.0000
  Cl  Cl1       1.0  0.4333292344500776  0.028664636988331396  0.813984804938805  1.0000
  Cl  Cl2       1.0  0.6188721127937243  0.18585558035506006  0.21442616966737657  1.0000
  Cl  Cl3       1.0  0.4049402886581318  0.7852894354218518  0.9714044385221499  1.0000
  Cl  Cl4       1.0  0.5666687166875022  0.9713569767890602  0.18603106060609045  1.0000
  Cl  Cl5       1.0  0.38111634669541417  0.8141317721577152  0.7855810072475934  1.0000
  Cl  Cl6       1.0  0.5950409108335323  0.21470525888181408  0.02857313581823457  1.0000
