data_image0
_chemical_formula_structural       Zn2H22C24N6O10
_chemical_formula_sum              "Zn2 H22 C24 N6 O10"
_cell_length_a       8.171903000275659
_cell_length_b       8.667214928611386
_cell_length_c       9.930129052420728
_cell_angle_alpha    104.51091948570978
_cell_angle_beta     101.3950536021082
_cell_angle_gamma    99.99286912410653

_space_group_name_H-M_alt    "P 1"
_space_group_IT_number       1

loop_
  _space_group_symop_operation_xyz
  'x, y, z'

loop_
  _atom_site_type_symbol
  _atom_site_label
  _atom_site_symmetry_multiplicity
  _atom_site_fract_x
  _atom_site_fract_y
  _atom_site_fract_z
  _atom_site_occupancy
  Zn  Zn1       1.0  0.6633061309786612  0.9823364899941395  0.6507714227809558  1.0000
  Zn  Zn2       1.0  0.3366869479996879  0.017664404316761313  0.34922367349948047  1.0000
  H   H1        1.0  0.873960870119909  0.9405443008161782  0.4183997779123771  1.0000
  H   H2        1.0  0.1260334996111254  0.0594669066622444  0.5815880589699489  1.0000
  H   H3        1.0  0.8769730010427207  0.7399914583088075  0.1988065556179207  1.0000
  H   H4        1.0  0.12302394222752606  0.26000592420242435  0.8011821567470463  1.0000
  H   H5        1.0  0.45278656643844056  0.41345031326329007  0.2652909530371801  1.0000
  H   H6        1.0  0.5472170898127331  0.5865475549197541  0.7347109549026241  1.0000
  H   H7        1.0  0.47184941476945136  0.6312051575711665  0.4854800335315304  1.0000
  H   H8        1.0  0.5281455440343592  0.3687982510550539  0.5145139617293565  1.0000
  H   H9        1.0  0.8494690773826007  0.34628986053900945  0.7978045923869317  1.0000
  H   H10       1.0  0.1505231267747574  0.6537039915549483  0.20218152210703974  1.0000
  H   H11       1.0  0.8554960028325526  0.5729059153242488  0.007583102537822111  1.0000
  H   H12       1.0  0.144491502666277  0.4270895305443004  0.9923976963144554  1.0000
  H   H13       1.0  0.4614345604377378  0.23737647167028797  0.09912775306273149  1.0000
  H   H14       1.0  0.538595828248816  0.7626073213522844  0.9008966199837616  1.0000
  H   H15       1.0  0.4698537977842747  0.0294390834642968  0.8809835232459376  1.0000
  H   H16       1.0  0.5301570304338625  0.9705384350601635  0.11902330205435153  1.0000
  H   H17       1.0  0.9872535679486704  0.3252478336622885  0.4836892707878633  1.0000
  H   H18       1.0  0.012742794972481817  0.674755011603743  0.5163158731035224  1.0000
  H   H19       1.0  0.8214236488170811  0.42557388248381045  0.43780742300462794  1.0000
  H   H20       1.0  0.17858172284215357  0.5744352337199032  0.5621935742574706  1.0000
  H   H21       1.0  0.856691900554722  0.2673810309983651  0.3019885575586798  1.0000
  H   H22       1.0  0.14330418715211118  0.7326203962268352  0.6980202164486471  1.0000
  C   C1        1.0  0.7827587614427713  0.8221722208646227  0.3819349201964286  1.0000
  C   C2        1.0  0.2172268193660472  0.17782905784384437  0.6180551530863028  1.0000
  C   C3        1.0  0.783352209919059  0.7064852711593445  0.25681699265597757  1.0000
  C   C4        1.0  0.21663586970843338  0.29350242417577016  0.743168966691222  1.0000
  C   C5        1.0  0.6650501502313589  0.553952900343262  0.20943585193822398  1.0000
  C   C6        1.0  0.3349469275680761  0.4460358451001341  0.790550674317636  1.0000
  C   C7        1.0  0.5500762709608223  0.5275698191278906  0.2942163128457835  1.0000
  C   C8        1.0  0.4499242613547522  0.4724308357417541  0.7057808127814552  1.0000
  C   C9        1.0  0.5590230648072917  0.6496665153569267  0.41808549747386076  1.0000
  C   C10       1.0  0.44096893447831326  0.35033094625053  0.5819035251326241  1.0000
  C   C11       1.0  0.7680564290807368  0.3276037944804314  0.8695882449207275  1.0000
  C   C12       1.0  0.23193656461094744  0.6723921205949139  0.1304065754794976  1.0000
  C   C13       1.0  0.7707995809423664  0.45368289509517007  0.9888104191195736  1.0000
  C   C14       1.0  0.22919304783812317  0.546320094050877  0.0111932111565949  1.0000
  C   C15       1.0  0.662992098405816  0.4255371367477707  0.07844038589094275  1.0000
  C   C16       1.0  0.3370222204048617  0.574462684542965  0.9215686095884479  1.0000
  C   C17       1.0  0.5525743980944852  0.2691227531062239  0.03822192232625101  1.0000
  C   C18       1.0  0.4474535023395275  0.7308798441191013  0.9618018511178121  1.0000
  C   C19       1.0  0.5566066891659602  0.1504916843560338  0.9162770870026975  1.0000
  C   C20       1.0  0.4434106384054317  0.8495004676500669  0.08373441914177693  1.0000
  C   C21       1.0  0.7297919945546668  0.18677302769797413  0.4515485232598735  1.0000
  C   C22       1.0  0.27020955764498916  0.8132394553491124  0.5484618515685894  1.0000
  C   C23       1.0  0.8583823261863516  0.307470561033  0.4161126121007754  1.0000
  C   C24       1.0  0.1416187758476823  0.6925358146502987  0.5838951296616202  1.0000
  N   N1        1.0  0.6725622679007586  0.7959105576886499  0.4626166712852111  1.0000
  N   N2        1.0  0.32742965663208423  0.20409534771156498  0.5373785289649149  1.0000
  N   N3        1.0  0.663731190245585  0.17728137310031394  0.8332578499805265  1.0000
  N   N4        1.0  0.3362709810117862  0.8226986078602677  0.1667271778083473  1.0000
  N   N5        1.0  0.9015172550674748  0.8688424475623505  0.8131166274029126  1.0000
  N   N6        1.0  0.0984772939928291  0.1311681800908673  0.1868831840830154  1.0000
  O   O1        1.0  0.9693777708033336  0.9766196123690064  0.7621321213103869  1.0000
  O   O2        1.0  0.0306208667426802  0.023378576504100596  0.2378651074527696  1.0000
  O   O3        1.0  0.7342551719652093  0.8311478822944524  0.7840661513340237  1.0000
  O   O4        1.0  0.2657402563585336  0.1688481140296929  0.21592601923635607  1.0000
  O   O5        1.0  0.9862319905576201  0.7985959397514008  0.8860968170044075  1.0000
  O   O6        1.0  0.013764472562065989  0.2014200386303457  0.11392076771263497  1.0000
  O   O7        1.0  0.7732002454462831  0.15929553946350689  0.5722496085945465  1.0000
  O   O8        1.0  0.22679426315966109  0.8407099639978384  0.42775292066207277  1.0000
  O   O9        1.0  0.585760319895762  0.12379505644088339  0.35969308712274994  1.0000
  O   O10       1.0  0.4142369134684216  0.8762201001902598  0.6403153271335214  1.0000
