data_image0
_chemical_formula_structural       CoH48C38N4O4
_chemical_formula_sum              "Co1 H48 C38 N4 O4"
_cell_length_a       8.32819881063689
_cell_length_b       11.031758252151368
_cell_length_c       11.539194369645436
_cell_angle_alpha    103.56079849886603
_cell_angle_beta     97.35330352324675
_cell_angle_gamma    98.22810996831583

_space_group_name_H-M_alt    "P 1"
_space_group_IT_number       1

loop_
  _space_group_symop_operation_xyz
  'x, y, z'

loop_
  _atom_site_type_symbol
  _atom_site_label
  _atom_site_symmetry_multiplicity
  _atom_site_fract_x
  _atom_site_fract_y
  _atom_site_fract_z
  _atom_site_occupancy
  Co  Co1       1.0  0.49978017973030836  0.9997463552986475  0.5000084424378104  1.0000
  H   H1        1.0  0.8474013471653379  0.07897712946742531  0.5151656583538868  1.0000
  H   H2        1.0  0.15256770385450844  0.92105375998608  0.484843917578843  1.0000
  H   H3        1.0  0.035688769597648204  0.2788838113499992  0.5151094383502015  1.0000
  H   H4        1.0  0.9643198810830426  0.7211696110994835  0.4849277158937967  1.0000
  H   H5        1.0  0.602645333075948  0.44217804016218315  0.4483665183969452  1.0000
  H   H6        1.0  0.3973668446276761  0.5578554462711907  0.5516743902051575  1.0000
  H   H7        1.0  0.4316391035580125  0.2335916576739622  0.44969164382989407  1.0000
  H   H8        1.0  0.5684136951933355  0.7663965176570995  0.5503083525816594  1.0000
  H   H9        1.0  0.8205737462033794  0.0438867867385468  0.854767400929639  1.0000
  H   H10       1.0  0.17944797886327998  0.9561273299214508  0.14523113209379107  1.0000
  H   H11       1.0  0.49937936045296294  0.2860478549520025  0.012637286437893639  1.0000
  H   H12       1.0  0.5006092506363373  0.71393053340676  0.9873564983273871  1.0000
  H   H13       1.0  0.5515303108611392  0.20027146924496728  0.1663110534891886  1.0000
  H   H14       1.0  0.4484743213320783  0.7997419368848567  0.8336953117763958  1.0000
  H   H15       1.0  0.7247496883780825  0.1642797508404286  0.25006851456359414  1.0000
  H   H16       1.0  0.2752371587519562  0.8357109959354005  0.7499260828429545  1.0000
  H   H17       1.0  0.6041681966878159  0.047556088222847806  0.12373967588371224  1.0000
  H   H18       1.0  0.3958174919606137  0.9524490784996188  0.8762805058771621  1.0000
  H   H19       1.0  0.9179984076361478  0.3711369203282119  0.06769300213976247  1.0000
  H   H20       1.0  0.08201281445499123  0.6288401622837725  0.9322843415138709  1.0000
  H   H21       1.0  0.9044135223097953  0.35853357306503847  0.2175547922950828  1.0000
  H   H22       1.0  0.09562083128309956  0.6414441586327231  0.7824152515475976  1.0000
  H   H23       1.0  0.735336779329849  0.3925669269763716  0.12800081284515852  1.0000
  H   H24       1.0  0.26469030454714476  0.607434758834252  0.871992016858272  1.0000
  H   H25       1.0  0.8742420811106298  0.02166647442178519  0.04633363870161842  1.0000
  H   H26       1.0  0.1257535340710305  0.9783156673158826  0.9536650673963724  1.0000
  H   H27       1.0  0.9817550200931748  0.1456132644646857  0.17180222413189486  1.0000
  H   H28       1.0  0.018243711032916173  0.8543716841746445  0.8281956448334856  1.0000
  H   H29       1.0  0.0024051987559233104  0.15403474832775294  0.022338825203462427  1.0000
  H   H30       1.0  0.9975915958254901  0.8459473455553663  0.9776547772433093  1.0000
  H   H31       1.0  0.2319346878092503  0.2877690085421277  0.9955439537353289  1.0000
  H   H32       1.0  0.7680551168427528  0.7122093497449171  0.004447332447469459  1.0000
  H   H33       1.0  0.13583226387682862  0.38627595677489523  0.917757781899319  1.0000
  H   H34       1.0  0.8641471578016393  0.6137092062693342  0.08224098835493276  1.0000
  H   H35       1.0  0.35003839492407707  0.42632850754127805  0.9741642381946467  1.0000
  H   H36       1.0  0.6499427163164812  0.5736633314437257  0.02584221263722245  1.0000
  H   H37       1.0  0.1330348927905831  0.11156923823645572  0.663855540330083  1.0000
  H   H38       1.0  0.8669725883419375  0.8884316430695024  0.3361275415181667  1.0000
  H   H39       1.0  0.012287274420927505  0.2074839538590041  0.7500087936769833  1.0000
  H   H40       1.0  0.9877203076434783  0.7925074902908024  0.24998176437109998  1.0000
  H   H41       1.0  0.1099628457373711  0.0979167580264928  0.8112893631678804  1.0000
  H   H42       1.0  0.8900434964500761  0.9020698761008958  0.18868963025963137  1.0000
  H   H43       1.0  0.406716353168413  0.43391865402064417  0.7634975775791306  1.0000
  H   H44       1.0  0.5932903268389538  0.5660834007464572  0.23651688747674637  1.0000
  H   H45       1.0  0.190003439043025  0.40289343249753523  0.7140421969022415  1.0000
  H   H46       1.0  0.8100132949073284  0.5971150995635527  0.28596419536634  1.0000
  H   H47       1.0  0.31587075749855137  0.3060539542246374  0.635946404299631  1.0000
  H   H48       1.0  0.6841430924314125  0.6939527127854034  0.36406018561444864  1.0000
  C   C1        1.0  0.8002523582281215  0.16217311734246206  0.5006824620778974  1.0000
  C   C2        1.0  0.19971832570199413  0.8378643769204714  0.49932437415754566  1.0000
  C   C3        1.0  0.9027958781815927  0.27235215183207373  0.5009044967343572  1.0000
  C   C4        1.0  0.09722435489492656  0.7277135709157678  0.49914593013071623  1.0000
  C   C5        1.0  0.8326589181002078  0.37774434053458344  0.48529885592292754  1.0000
  C   C6        1.0  0.1673389713892064  0.6222854188322486  0.5147295455790799  1.0000
  C   C7        1.0  0.6600424150976352  0.36356330490795585  0.46452681096937465  1.0000
  C   C8        1.0  0.339989259697589  0.6364804172586177  0.5355155009318299  1.0000
  C   C9        1.0  0.5655186523729512  0.2497484392906273  0.4649834707795721  1.0000
  C   C10       1.0  0.4345275382491351  0.7502473450121628  0.5350089276189255  1.0000
  C   C11       1.0  0.47536636557938283  0.12847176675114014  0.7203522321781863  1.0000
  C   C12       1.0  0.524552222035787  0.8714438987161728  0.279654424011625  1.0000
  C   C13       1.0  0.6180160599906657  0.0708964011422637  0.7345358915792063  1.0000
  C   C14       1.0  0.3818922087105747  0.9290118036871745  0.26547339839131484  1.0000
  C   C15       1.0  0.7145609978588183  0.0907427475995135  0.8487092027073831  1.0000
  C   C16       1.0  0.2854569730387056  0.909261026920369  0.1512971265442645  1.0000
  C   C17       1.0  0.6719015225893089  0.16875144646939333  0.9489533393568482  1.0000
  C   C18       1.0  0.3280939680555335  0.8312401027863673  0.05103354876008846  1.0000
  C   C19       1.0  0.5307746311177226  0.2255036119544158  0.932928872072225  1.0000
  C   C20       1.0  0.4692162983163967  0.7744889757283601  0.06706389746258175  1.0000
  C   C21       1.0  0.42960044505034023  0.20776995873740836  0.8223657615284596  1.0000
  C   C22       1.0  0.5703967200980316  0.792233029494298  0.17763158173801233  1.0000
  C   C23       1.0  0.7692460698928727  0.19448270157474207  0.07630153699303581  1.0000
  C   C24       1.0  0.2307509811131041  0.8054955829790345  0.9236903881072042  1.0000
  C   C25       1.0  0.655026813087474  0.14904249621682203  0.15875266307447336  1.0000
  C   C26       1.0  0.3449812735226915  0.8509604466187214  0.8412551904868342  1.0000
  C   C27       1.0  0.8353197277492724  0.3377739374750064  0.12520304055031062  1.0000
  C   C28       1.0  0.16469582655833653  0.6622107324229916  0.8747806888100842  1.0000
  C   C29       1.0  0.9152095866786212  0.12470624262819288  0.07870828028263335  1.0000
  C   C30       1.0  0.08477801938754946  0.8752778451223833  0.921284928012469  1.0000
  C   C31       1.0  0.2771307528017317  0.2691120785062182  0.8093686488159835  1.0000
  C   C32       1.0  0.7228640450007758  0.7308862127613693  0.1906317853997949  1.0000
  C   C33       1.0  0.24833947923305288  0.34661330901199244  0.9316238539283506  1.0000
  C   C34       1.0  0.7516527399746805  0.6533698055153038  0.06837302486756165  1.0000
  C   C35       1.0  0.12372818676825399  0.16507098427870662  0.7549182694803992  1.0000
  C   C36       1.0  0.876276206745743  0.8349271256912729  0.24507085963792022  1.0000
  C   C37       1.0  0.2987299241326157  0.3583117633896293  0.7254713886301334  1.0000
  C   C38       1.0  0.7012814282980812  0.6417043890647635  0.2745309855366005  1.0000
  N   N1        1.0  0.6347977252487027  0.151608337065646  0.4850057875189508  1.0000
  N   N2        1.0  0.3652370201251999  0.848410744685971  0.5149074796011492  1.0000
  N   N3        1.0  0.9213821073540485  0.4966111677122028  0.4897915764863186  1.0000
  N   N4        1.0  0.0785969930739583  0.5034794453585646  0.510226782119304  1.0000
  O   O1        1.0  0.3933703784015066  0.1016777350611875  0.608161459204901  1.0000
  O   O2        1.0  0.6067450636205223  0.8984652270415905  0.39181915324461875  1.0000
  O   O3        1.0  0.6516798564727182  0.9984010191853017  0.6345433513445261  1.0000
  O   O4        1.0  0.3484040452004394  0.0016977485151060008  0.3654455345395179  1.0000
