data_image0
_chemical_formula_structural       Nd6P2H38C26N2O48
_chemical_formula_sum              "Nd6 P2 H38 C26 N2 O48"
_cell_length_a       10.891920232
_cell_length_b       10.779740835245798
_cell_length_c       11.7625
_cell_angle_alpha    90.0
_cell_angle_beta     90.0
_cell_angle_gamma    106.31370804102563

_space_group_name_H-M_alt    "P 1"
_space_group_IT_number       1

loop_
  _space_group_symop_operation_xyz
  'x, y, z'

loop_
  _atom_site_type_symbol
  _atom_site_label
  _atom_site_symmetry_multiplicity
  _atom_site_fract_x
  _atom_site_fract_y
  _atom_site_fract_z
  _atom_site_occupancy
  Nd  Nd1       1.0  0.031739312346140004  0.6942005335205366  0.1048926673751325  1.0000
  Nd  Nd2       1.0  0.9682549102742186  0.305798678908026  0.6048841657810868  1.0000
  Nd  Nd3       1.0  0.8103519390309799  0.6929246445921606  0.6064000000000007  1.0000
  Nd  Nd4       1.0  0.18965016590966846  0.3070765010014469  0.1063906482465455  1.0000
  Nd  Nd5       1.0  0.5781707390555937  0.6097608510252144  0.2571859723698182  1.0000
  Nd  Nd6       1.0  0.42182968640229035  0.39024416089847597  0.7571868225292276  1.0000
  P   P1        1.0  0.4793565888994848  0.6696435379794181  0.5585351753453764  1.0000
  P   P2        1.0  0.5206478896909204  0.3303595407792272  0.05853262486716199  1.0000
  H   H1        1.0  0.9242472737058804  0.41295305065848703  0.0336017003188118  1.0000
  H   H2        1.0  0.07575353243750271  0.5870500281001583  0.5335999999999999  1.0000
  H   H3        1.0  0.9104416000572186  0.4234153398711555  0.1605390010627019  1.0000
  H   H4        1.0  0.0895585119191722  0.5765819393923621  0.6605398512221043  1.0000
  H   H5        1.0  0.3950242055283227  0.3639946793622215  0.34440892667375067  1.0000
  H   H6        1.0  0.6049797356358368  0.6360064662313789  0.8444080765143482  1.0000
  H   H7        1.0  0.513311242635929  0.3106731545639292  0.3386354941551559  1.0000
  H   H8        1.0  0.48669522891872674  0.689333790524806  0.8386354941551559  1.0000
  H   H9        1.0  0.5641524704238847  0.6704361356470443  0.0065122210414472  1.0000
  H   H10       1.0  0.4358476863208693  0.32956790969412  0.5065139213602521  1.0000
  H   H11       1.0  0.7079335972111522  0.7177290852587745  0.0400544102019111  1.0000
  H   H12       1.0  0.2920683957571129  0.2822749600823968  0.5400561105207231  1.0000
  H   H13       1.0  0.801360963453412  0.8640087843143291  0.2336255047821467  1.0000
  H   H14       1.0  0.1986429777107475  0.1359923612792784  0.7336195536663154  1.0000
  H   H15       1.0  0.7637650417613459  0.8665808604040279  0.3596097768331532  1.0000
  H   H16       1.0  0.23623426407568363  0.1334135191119259  0.8596012752391076  1.0000
  H   H17       1.0  0.4287800194770455  0.8284994422221531  0.386628692879917  1.0000
  H   H18       1.0  0.5712257579106179  0.1715017033714545  0.8866278427205074  1.0000
  H   H19       1.0  0.2835863385789352  0.7316536730634411  0.543590223166845  1.0000
  H   H20       1.0  0.7164159231024526  0.2683513388602492  0.0435876726886306  1.0000
  H   H21       1.0  0.39196271848996395  0.8417058592133416  0.6361377258235947  1.0000
  H   H22       1.0  0.6080444024633209  0.1583001192928677  0.1361377258235947  1.0000
  H   H23       1.0  0.3168258377226394  0.0070415536690973  0.5156726886291167  1.0000
  H   H24       1.0  0.6831794470071345  0.9929644248371189  0.0156794899043575  1.0000
  H   H25       1.0  0.2336296456827966  0.8840702045479674  0.4174520722635506  1.0000
  H   H26       1.0  0.7663756390469841  0.1159357739582489  0.9174571732199794  1.0000
  H   H27       1.0  0.3681798493330247  0.9930765484096115  0.2586984059511153  1.0000
  H   H28       1.0  0.6318305186134195  0.0069245971839962  0.7587043570669536  1.0000
  H   H29       1.0  0.3037027363184919  0.1076212311083466  0.3284709883103076  1.0000
  H   H30       1.0  0.6963039591809306  0.8923799144852609  0.8284794899043604  1.0000
  H   H31       1.0  0.5428910662419213  0.0312670114053333  0.5558843783209326  1.0000
  H   H32       1.0  0.45711038930009107  0.9687351007707933  0.0558852284803422  1.0000
  H   H33       1.0  0.6196762166545753  0.9213551587321264  0.49451987247609  1.0000
  H   H34       1.0  0.38032707511094793  0.0786469534439931  0.9945190223166875  1.0000
  H   H35       1.0  0.6795246347692725  0.135442375824546  0.3924786397449509  1.0000
  H   H36       1.0  0.3204786569962579  0.8645597363515803  0.892476939426146  1.0000
  H   H37       1.0  0.5962456266087628  0.0069352295917327  0.3008408076514328  1.0000
  H   H38       1.0  0.4037622557155345  0.9930668825843938  0.8008408076514327  1.0000
  C   C1        1.0  0.38381065529056  0.7869924555840909  0.5564998937300771  1.0000
  C   C2        1.0  0.6161914496500885  0.21300869000950942  0.056496493092453186  1.0000
  C   C3        1.0  0.3254025242456535  0.9549168370434912  0.4371477151966019  1.0000
  C   C4        1.0  0.6746010362329926  0.0450862417151541  0.9371536663124331  1.0000
  C   C5        1.0  0.36947305930075913  0.0476689502125893  0.337950265674813  1.0000
  C   C6        1.0  0.6305348230235452  0.9523331619635371  0.8379570669500538  1.0000
  C   C7        1.0  0.5507867447904502  0.976441663214672  0.4789228480340099  1.0000
  C   C8        1.0  0.4492161662895739  0.0235623821264923  0.9789228480340098  1.0000
  C   C9        1.0  0.5871624188202702  0.0642922364172662  0.3764267800212551  1.0000
  C   C10       1.0  0.4128423284832579  0.935711808923898  0.8764276301806575  1.0000
  C   C11       1.0  0.984487528591181  0.6679413861590646  0.37974835281615066  1.0000
  C   C12       1.0  0.015491534018877911  0.3320462272792355  0.8797304994686498  1.0000
  C   C13       1.0  0.846404035374519  0.6335871101800805  0.3354023379383619  1.0000
  C   C14       1.0  0.1535800432481764  0.3664053361708355  0.835387885228478  1.0000
  C   C15       1.0  0.1119428136736786  0.99951205483773  0.0293815090329446  1.0000
  C   C16       1.0  0.8880479828800958  0.0004649261928407  0.5293874601487758  1.0000
  C   C17       1.0  0.04873617404929582  0.998438181656347  0.1480756641870329  1.0000
  C   C18       1.0  0.9512535924203434  0.0015416991217876  0.6480867162593  1.0000
  C   C19       1.0  0.2910317510179823  0.5951818868535028  0.1440255047821495  1.0000
  C   C20       1.0  0.7089679802729094  0.4048173255750598  0.6440204038257207  1.0000
  C   C21       1.0  0.3354684149785712  0.7377354102886855  0.18081785334750577  1.0000
  C   C22       1.0  0.6645284500046671  0.2622667018874409  0.6808136025504794  1.0000
  C   C23       1.0  0.852640500958742  0.6848478810425433  0.8830291179596158  1.0000
  C   C24       1.0  0.1473569686547691  0.3151464984734105  0.3830291179596159  1.0000
  C   C25       1.0  0.9741651231284861  0.6537171577727392  0.8368323060573885  1.0000
  C   C26       1.0  0.025830935715383408  0.3462820546558234  0.33683825717321975  1.0000
  N   N1        1.0  0.42182881333211947  0.8813193106917865  0.4600884165781096  1.0000
  N   N2        1.0  0.5781735603216517  0.11868280148433999  0.9600901168969216  1.0000
  O   O1        1.0  0.4048780367322422  0.559704441984529  0.6341900106269946  1.0000
  O   O2        1.0  0.5951219632717724  0.4402957370265526  0.1341891604675851  1.0000
  O   O3        1.0  0.6129675100567269  0.7391746516631912  0.6058763018065889  1.0000
  O   O4        1.0  0.3870303850106539  0.2608245607653643  0.1058746014877769  1.0000
  O   O5        1.0  0.484608450011784  0.6378081760514505  0.4317373007438903  1.0000
  O   O6        1.0  0.5153898705094591  0.3621958692897209  0.9317398512221047  1.0000
  O   O7        1.0  0.49471201089432537  0.1342718443910158  0.3566265674814061  1.0000
  O   O8        1.0  0.5052945726327138  0.8657322009501556  0.8566316684378349  1.0000
  O   O9        1.0  0.9999886482004997  0.6978513157042201  0.48424569606801526  1.0000
  O   O10       1.0  4.925021230009808e-06  0.3021488633068614  0.9842482465462294  1.0000
  O   O11       1.0  0.07116183219092423  0.6643843624799644  0.3100879914984063  1.0000
  O   O12       1.0  0.9288301959560884  0.3356003512107719  0.8100888416578087  1.0000
  O   O13       1.0  0.7547470942454382  0.6109681125945627  0.4070750265674831  1.0000
  O   O14       1.0  0.2452443292713014  0.3890243337563462  0.907063974495216  1.0000
  O   O15       1.0  0.8287630346396853  0.6329713971138844  0.22929394261424105  1.0000
  O   O16       1.0  0.1712194317042659  0.3670152497418968  0.7292888416578123  1.0000
  O   O17       1.0  0.11296228336154002  0.8932778696477327  0.9864748140276305  1.0000
  O   O18       1.0  0.8870365745859489  0.1067281088584835  0.486472263549416  1.0000
  O   O19       1.0  0.1606553847137633  0.11112509274876461  0.9859392136025491  1.0000
  O   O20       1.0  0.8393404054169837  0.8888731530972792  0.4859511158342186  1.0000
  O   O21       1.0  0.9869446055184099  0.8887784280101698  0.1873130712008475  1.0000
  O   O22       1.0  0.013044197968135104  0.1112343165736931  0.6873249734325171  1.0000
  O   O23       1.0  0.0646499299535392  0.10591907928799321  0.1967549415515393  1.0000
  O   O24       1.0  0.9353474052519246  0.8940946318783959  0.6967591923485656  1.0000
  O   O25       1.0  0.36496178694208226  0.5243362209404907  0.1605891604675875  1.0000
  O   O26       1.0  0.6350379443488023  0.4756629914880719  0.6605883103081851  1.0000
  O   O27       1.0  0.18046966686708998  0.5516238121048289  0.10115706695005139  1.0000
  O   O28       1.0  0.8195294150251725  0.4483763669062526  0.601154516471837  1.0000
  O   O29       1.0  0.4400283792076607  0.7718731717828646  0.2350716259298622  1.0000
  O   O30       1.0  0.5599772862076194  0.2281308735583067  0.735073326248674  1.0000
  O   O31       1.0  0.2625084489821035  0.8060863267137108  0.1550027630180679  1.0000
  O   O32       1.0  0.7374845868133802  0.19391191913232572  0.6549900106269959  1.0000
  O   O33       1.0  0.7625829580257459  0.6784114080319057  0.812902019128586  1.0000
  O   O34       1.0  0.23742277459356842  0.3215829714840481  0.31289266737513083  1.0000
  O   O35       1.0  0.8501992596611672  0.7124438120312391  0.987253560042511  1.0000
  O   O36       1.0  0.1498003596573412  0.2875583001448874  0.4872442082890558  1.0000
  O   O37       1.0  0.9837256975797218  0.6506269934515174  0.7299383634431464  1.0000
  O   O38       1.0  0.016279923067202207  0.3493702858120002  0.22992051009564557  1.0000
  O   O39       1.0  0.05172921036846393  0.6309831368671652  0.9080612114771538  1.0000
  O   O40       1.0  0.9482797020399758  0.3690160755613903  0.4080416578108412  1.0000
  O   O41       1.0  0.8944748307311842  0.46640796384475175  0.0896034006376212  1.0000
  O   O42       1.0  0.1055264680700887  0.5335902820012919  0.5895999999999972  1.0000
  O   O43       1.0  0.48839113767199643  0.387893432206198  0.3628344314558944  1.0000
  O   O44       1.0  0.5116090190727577  0.6121106131349734  0.8628344314559016  1.0000
  O   O45       1.0  0.6210351060805406  0.7166784100579093  0.0681377258235898  1.0000
  O   O46       1.0  0.3789659687759652  0.283325635283262  0.5681377258235898  1.0000
  O   O47       1.0  0.7252032242515015  0.8423264051921393  0.2825912858660971  1.0000
  O   O48       1.0  0.274798567207668  0.1576670077412885  0.7825870350690778  1.0000
