data_image0
_chemical_formula_structural       Sr4H8C20N8O16
_chemical_formula_sum              "Sr4 H8 C20 N8 O16"
_cell_length_a       6.835367977893757
_cell_length_b       6.966122153695344
_cell_length_c       13.595104334570705
_cell_angle_alpha    89.99894695878479
_cell_angle_beta     90.00028871921542
_cell_angle_gamma    107.46752088567945

_space_group_name_H-M_alt    "P 1"
_space_group_IT_number       1

loop_
  _space_group_symop_operation_xyz
  'x, y, z'

loop_
  _atom_site_type_symbol
  _atom_site_label
  _atom_site_symmetry_multiplicity
  _atom_site_fract_x
  _atom_site_fract_y
  _atom_site_fract_z
  _atom_site_occupancy
  Sr  Sr1       1.0  0.22527862427052275  0.38541294447104957  0.5451277900807341  1.0000
  Sr  Sr2       1.0  0.27472069236179664  0.6145872857405338  0.0451284014002411  1.0000
  Sr  Sr3       1.0  0.7747191015650259  0.614583618636992  0.4548721298302212  1.0000
  Sr  Sr4       1.0  0.7252818763806417  0.3854152498853411  0.9548715184887229  1.0000
  H   H1        1.0  0.35862201686831713  0.8523737688480684  0.2547675570092309  1.0000
  H   H2        1.0  0.14138043547544749  0.14762942838012091  0.7547682412937817  1.0000
  H   H3        1.0  0.6413786132953091  0.14762728525449384  0.7452323628842307  1.0000
  H   H4        1.0  0.858621650392351  0.8523716025101395  0.24523167860166242  1.0000
  H   H5        1.0  0.3650631170035937  0.9221044840380446  0.43653560916834516  1.0000
  H   H6        1.0  0.13493862638864582  0.0778997230842009  0.9365362002237914  1.0000
  H   H7        1.0  0.634936057455846  0.07789659327682591  0.5634643107231412  1.0000
  H   H8        1.0  0.8650620037753995  0.922101331031641  0.0634629841107781  1.0000
  C   C1        1.0  0.37004322470480133  0.0344866291356354  0.38084990924386364  1.0000
  C   C2        1.0  0.12996004639305184  0.9655150270927708  0.8808516625530487  1.0000
  C   C3        1.0  0.6299564326305571  0.9655159529546754  0.6191478039644309  1.0000
  C   C4        1.0  0.8700415566005545  0.034484499075155405  0.11914752178998358  1.0000
  C   C5        1.0  0.3695444178675515  0.16390124338715853  0.23205676492879224  1.0000
  C   C6        1.0  0.1304566123307681  0.8360982593168206  0.7320560645895566  1.0000
  C   C7        1.0  0.6304547565918882  0.8360998339277188  0.7679431549626871  1.0000
  C   C8        1.0  0.8695435349586519  0.16390129006340712  0.2679431197515001  1.0000
  C   C9        1.0  0.37947236416012936  0.31014689401143875  0.3041254122834188  1.0000
  C   C10       1.0  0.12053196921761614  0.6898560033476359  0.8041268038624307  1.0000
  C   C11       1.0  0.6205263274246847  0.6898526785678246  0.6958745076145474  1.0000
  C   C12       1.0  0.8794681780709438  0.31014354600604577  0.19587385159642418  1.0000
  C   C13       1.0  0.38227630904059134  0.5238743527123191  0.3035102144356401  1.0000
  C   C14       1.0  0.11772122940178782  0.4761301874514744  0.803522445036215  1.0000
  C   C15       1.0  0.6177243211234613  0.47612670140352276  0.6964889698989224  1.0000
  C   C16       1.0  0.8822789178876322  0.5238693619287532  0.19647673930483475  1.0000
  C   C17       1.0  0.37602717123846924  0.1526350434283046  0.1229072412022987  1.0000
  C   C18       1.0  0.12397638642399046  0.8473849970683248  0.6229093598823424  1.0000
  C   C19       1.0  0.6239720032209704  0.8473660338865658  0.8770926786891876  1.0000
  C   C20       1.0  0.8760223051608167  0.1526145755109312  0.37709056001563107  1.0000
  N   N1        1.0  0.381041367379936  0.22597435681397127  0.3961559994100766  1.0000
  N   N2        1.0  0.11896285162264779  0.7740297564795855  0.8961573271504903  1.0000
  N   N3        1.0  0.6189573242053046  0.7740252157785579  0.6038431849289977  1.0000
  N   N4        1.0  0.8810377785414046  0.22597129763625654  0.1038418571840722  1.0000
  N   N5        1.0  0.36267132923835277  0.992520506788516  0.2841296758421379  1.0000
  N   N6        1.0  0.1373315575873875  0.007492210305017002  0.7841302028196822  1.0000
  N   N7        1.0  0.6373278452206536  0.007480570513081403  0.7158709796082476  1.0000
  N   N8        1.0  0.8626700454053592  0.9925073158363561  0.2158704526411555  1.0000
  O   O1        1.0  0.4149667168099712  0.6118502082611031  0.3875261140167723  1.0000
  O   O2        1.0  0.08503896088081583  0.3881587307964694  0.8875221740035996  1.0000
  O   O3        1.0  0.58503585193246  0.3881523273647717  0.6124738058721846  1.0000
  O   O4        1.0  0.9149616692823771  0.6118423232928195  0.1124784814487683  1.0000
  O   O5        1.0  0.35137339166510634  0.60914357122725  0.2249557590413005  1.0000
  O   O6        1.0  0.1486329867567662  0.39085459025758235  0.7249504858804627  1.0000
  O   O7        1.0  0.6486282113284999  0.390855954940676  0.7750434253017316  1.0000
  O   O8        1.0  0.8513642491234278  0.6091450055207164  0.2750501695744276  1.0000
  O   O9        1.0  0.4149695600446464  0.315365588503788  0.0717204496417452  1.0000
  O   O10       1.0  0.0850287669170627  0.6846261351119342  0.5717181215228351  1.0000
  O   O11       1.0  0.5850300972889926  0.6846369935334169  0.9282802058021531  1.0000
  O   O12       1.0  0.914968958918486  0.3153704279961006  0.428281798388113  1.0000
  O   O13       1.0  0.3491307231435244  0.9798373923686727  0.0871264490784895  1.0000
  O   O14       1.0  0.15086806872864858  0.020155279873272005  0.5871290977895782  1.0000
  O   O15       1.0  0.6508669956117288  0.020163708158506207  0.9128734708110144  1.0000
  O   O16       1.0  0.8491315956852857  0.9798427647447955  0.41287155767576417  1.0000
