data_image0
_chemical_formula_structural       Zn4H28C44N28O20
_chemical_formula_sum              "Zn4 H28 C44 N28 O20"
_cell_length_a       7.156366624326939
_cell_length_b       11.77799004404885
_cell_length_c       16.978389564557908
_cell_angle_alpha    90.00006829147203
_cell_angle_beta     92.76059100183839
_cell_angle_gamma    89.99967147439776

_space_group_name_H-M_alt    "P 1"
_space_group_IT_number       1

loop_
  _space_group_symop_operation_xyz
  'x, y, z'

loop_
  _atom_site_type_symbol
  _atom_site_label
  _atom_site_symmetry_multiplicity
  _atom_site_fract_x
  _atom_site_fract_y
  _atom_site_fract_z
  _atom_site_occupancy
  Zn  Zn1       1.0  0.18667029088028636  0.07859820901881419  0.27266543259537457  1.0000
  Zn  Zn2       1.0  0.8133269199109777  0.5785966430431486  0.22733419236081426  1.0000
  Zn  Zn3       1.0  0.813323384695181  0.9214025963072885  0.7273337838904792  1.0000
  Zn  Zn4       1.0  0.18667795970551274  0.42140161514004143  0.7726657979567263  1.0000
  H   H1        1.0  0.25532248841175686  0.37860110290021953  0.519215917835048  1.0000
  H   H2        1.0  0.7446862355881689  0.8785976702345337  0.9807831631787138  1.0000
  H   H3        1.0  0.744686562670047  0.6214022495224966  0.48078296328189646  1.0000
  H   H4        1.0  0.2553172324718389  0.12139888986800432  0.019216214844718093  1.0000
  H   H5        1.0  0.22031741378243905  0.7362734355872076  0.563245363889983  1.0000
  H   H6        1.0  0.7796926703073979  0.2362715054856963  0.9367553949875641  1.0000
  H   H7        1.0  0.7796874658143339  0.2637290678024939  0.4367546264289004  1.0000
  H   H8        1.0  0.22031505771950313  0.7637267526945807  0.0632469983502801  1.0000
  H   H9        1.0  0.3438877600990152  0.6186587218365601  0.3308868303785317  1.0000
  H   H10       1.0  0.6561048565014713  0.11865506363911038  0.16911157218477504  1.0000
  H   H11       1.0  0.656103092331925  0.38134547965864135  0.6691111615212577  1.0000
  H   H12       1.0  0.34389164223428986  0.8813389493526813  0.8308888688860846  1.0000
  H   H13       1.0  0.4376877714405508  0.47903026017519307  0.26315028402058255  1.0000
  H   H14       1.0  0.5623196960512615  0.9790329883235671  0.23684923510007388  1.0000
  H   H15       1.0  0.5623086514265765  0.5209688470614752  0.7368466217523846  1.0000
  H   H16       1.0  0.4376922161054395  0.020965269848915096  0.7631526382521514  1.0000
  H   H17       1.0  0.17533064112158311  0.25594780181593535  0.41996370190516785  1.0000
  H   H18       1.0  0.8246663210905538  0.7559433935439799  0.08003605800688969  1.0000
  H   H19       1.0  0.8246700796191602  0.7440563996651478  0.5800379868330336  1.0000
  H   H20       1.0  0.17533153863443826  0.24405316656780945  0.9199626384920093  1.0000
  H   H21       1.0  0.18836108738181417  0.7986327969709988  0.2964877651546942  1.0000
  H   H22       1.0  0.8116424729062716  0.2986311993599315  0.2035121370707245  1.0000
  H   H23       1.0  0.8116437669411808  0.2013680083351232  0.7035110467304833  1.0000
  H   H24       1.0  0.1883596341447955  0.7013670588291062  0.7964889855260111  1.0000
  H   H25       1.0  0.4089301976912765  0.8891242789271913  0.5251992998035959  1.0000
  H   H26       1.0  0.5910742570645054  0.3891205300060037  0.9748008970507412  1.0000
  H   H27       1.0  0.5910565211810663  0.11087822449515979  0.47480156894760467  1.0000
  H   H28       1.0  0.4089334330477925  0.6108760300902033  0.025199728636827994  1.0000
  C   C1        1.0  0.2944950054957545  0.4884499099607711  0.41793196010426203  1.0000
  C   C2        1.0  0.7055081651026356  0.9884476217436529  0.0820669065095885  1.0000
  C   C3        1.0  0.7055084625366418  0.5115525934308779  0.5820674179210457  1.0000
  C   C4        1.0  0.29449249246944476  0.0115489383632692  0.9179318361432891  1.0000
  C   C5        1.0  0.26105009088676917  0.4649927238408085  0.4966642538714581  1.0000
  C   C6        1.0  0.738957519674173  0.9649901816824952  0.0033358456086318915  1.0000
  C   C7        1.0  0.7389547760731218  0.5350089305071037  0.5033351472305654  1.0000
  C   C8        1.0  0.2610445747399979  0.035007227464760114  0.9966646877712434  1.0000
  C   C9        1.0  0.23615600964171077  0.5550115677271422  0.5488002170421922  1.0000
  C   C10       1.0  0.7638515488958361  0.05500971829047069  0.9511997690400308  1.0000
  C   C11       1.0  0.7638502815076079  0.4449934827845184  0.4512003855710631  1.0000
  C   C12       1.0  0.2361519444379425  0.9449885398956467  0.04880078741710749  1.0000
  C   C13       1.0  0.2460701384240878  0.6670798853060732  0.5227170188626145  1.0000
  C   C14       1.0  0.7539391516108082  0.16707641781474789  0.9772819056374331  1.0000
  C   C15       1.0  0.7539333169674761  0.3329226180850923  0.47728176994611  1.0000
  C   C16       1.0  0.24606712693316973  0.8329209913247057  0.022718107756823296  1.0000
  C   C17       1.0  0.28686601492591984  0.6882607793866451  0.4446743802575384  1.0000
  C   C18       1.0  0.7131413685264006  0.18825927078993487  0.05532549849445449  1.0000
  C   C19       1.0  0.713137453110427  0.3117408749637036  0.5553249977674994  1.0000
  C   C20       1.0  0.2868635363756908  0.8117381383529363  0.9446756702559824  1.0000
  C   C21       1.0  0.3131039345864081  0.60016076563371  0.3915586834239092  1.0000
  C   C22       1.0  0.6868972726696753  0.10015859222429674  0.1084410243656464  1.0000
  C   C23       1.0  0.68689532403846  0.3998408887234604  0.6084400361535883  1.0000
  C   C24       1.0  0.31310063761863194  0.899837967889454  0.8915600289995849  1.0000
  C   C25       1.0  0.3789908361264409  0.4031923178966893  0.288327453815853  1.0000
  C   C26       1.0  0.6210117401843362  0.9031939472435725  0.2116719251546613  1.0000
  C   C27       1.0  0.6210042004500805  0.5968084874255126  0.7116700180972444  1.0000
  C   C28       1.0  0.37899734885150577  0.09680261285019037  0.7883287236098866  1.0000
  C   C29       1.0  0.2458808775451118  0.2898634386065382  0.3701482929527344  1.0000
  C   C30       1.0  0.7541157822379175  0.7898602134822355  0.1298520775717265  1.0000
  C   C31       1.0  0.7541170074260465  0.7101407628779555  0.6298515819817396  1.0000
  C   C32       1.0  0.2458849006158275  0.21013634662566014  0.8701478435143171  1.0000
  C   C33       1.0  0.24377188535139988  0.8465933884568813  0.3469256515724055  1.0000
  C   C34       1.0  0.7562312420477326  0.3465901999092652  0.153074870124712  1.0000
  C   C35       1.0  0.7562287974747407  0.15340911494013204  0.653074269515514  1.0000
  C   C36       1.0  0.24377086500727072  0.6534072092384804  0.8469262524717536  1.0000
  C   C37       1.0  0.3552580338099247  0.894932611978419  0.46436172775312196  1.0000
  C   C38       1.0  0.6447432456063212  0.3949304603900359  0.0356388013617916  1.0000
  C   C39       1.0  0.644732907114715  0.1050698914376014  0.5356403886622089  1.0000
  C   C40       1.0  0.3552602350866252  0.6050677977955914  0.9643611658787562  1.0000
  C   C41       1.0  0.1980845923801695  0.534436041482742  0.6339629640164546  1.0000
  C   C42       1.0  0.8019175742487403  0.0344330616859452  0.8660375059941144  1.0000
  C   C43       1.0  0.8019174640957374  0.46556476382824746  0.36603580171474437  1.0000
  C   C44       1.0  0.19808310858134348  0.9655685926697686  0.133962415093535  1.0000
  N   N1        1.0  0.3104920231279492  0.39812117912423156  0.3629156422648875  1.0000
  N   N2        1.0  0.6895105876686003  0.8981190424584895  0.1370831442887592  1.0000
  N   N3        1.0  0.6895086470613023  0.6018804752309848  0.6370836896061717  1.0000
  N   N4        1.0  0.31049149410868176  0.10187751764697593  0.8629167998742702  1.0000
  N   N5        1.0  0.275434215646257  0.23390641389797656  0.30464273845232265  1.0000
  N   N6        1.0  0.7245601661059738  0.7339042551580731  0.19535755061839666  1.0000
  N   N7        1.0  0.7245566873558927  0.7660960895165728  0.6953576103132662  1.0000
  N   N8        1.0  0.2754461124380043  0.2660931539813872  0.8046424627758667  1.0000
  N   N9        1.0  0.36036409713518214  0.30497607070952165  0.25240518285841057  1.0000
  N   N10       1.0  0.6396323969565147  0.8049768478891863  0.2475940187678489  1.0000
  N   N11       1.0  0.6396253690288205  0.6950247346234024  0.7475933751799031  1.0000
  N   N12       1.0  0.36037669206749706  0.1950222593284892  0.7524066299975019  1.0000
  N   N13       1.0  0.29740089864102254  0.803159799909551  0.4189760324383655  1.0000
  N   N14       1.0  0.7026026195998795  0.30315667478166125  0.08102387264240457  1.0000
  N   N15       1.0  0.7025955621328137  0.19684270349379318  0.5810226409854238  1.0000
  N   N16       1.0  0.297400886386562  0.6968390362810409  0.9189772730305137  1.0000
  N   N17       1.0  0.26800905885914256  0.9578338903221492  0.3493434591758983  1.0000
  N   N18       1.0  0.7319860278916436  0.4578316317500537  0.1506564280952958  1.0000
  N   N19       1.0  0.7319818315021747  0.042168613091917  0.6506563003731074  1.0000
  N   N20       1.0  0.26801606652253435  0.5421657773971944  0.8493441052845796  1.0000
  N   N21       1.0  0.3390521411856753  0.9889622308584337  0.4232090229489529  1.0000
  N   N22       1.0  0.6609426437601726  0.48895839562982246  0.0767902947422598  1.0000
  N   N23       1.0  0.6609331661183475  0.011041121607171103  0.5767912335089489  1.0000
  N   N24       1.0  0.33906083694066064  0.5110381644732058  0.9232096724977621  1.0000
  N   N25       1.0  0.8294331892208645  0.10897413197559298  0.332465517688199  1.0000
  N   N26       1.0  0.17056096681323402  0.6089747194870937  0.16753525871030914  1.0000
  N   N27       1.0  0.1705577137891723  0.8910266733563503  0.6675348310768499  1.0000
  N   N28       1.0  0.829442488578337  0.39102778390407167  0.8324635300984153  1.0000
  O   O1        1.0  0.24490721467340387  0.4346226870473302  0.6607523972906717  1.0000
  O   O2        1.0  0.7550982163335291  0.9346206705326522  0.8392478513435577  1.0000
  O   O3        1.0  0.7550962786327631  0.5653815144278981  0.33924815916834206  1.0000
  O   O4        1.0  0.2448982570890266  0.06538013478857609  0.16075141129627468  1.0000
  O   O5        1.0  0.12898506324281558  0.6117286722426201  0.6737892108235355  1.0000
  O   O6        1.0  0.8710149232264256  0.11172792787701978  0.8262083387873602  1.0000
  O   O7        1.0  0.8710113975231406  0.38827552924332315  0.32620946260078637  1.0000
  O   O8        1.0  0.1289843733288265  0.888272028399008  0.17379214843934676  1.0000
  O   O9        1.0  0.9036651484418455  0.0932123397185194  0.2641765073375168  1.0000
  O   O10       1.0  0.09632776772538419  0.593214155333463  0.23582482525775106  1.0000
  O   O11       1.0  0.0963257672169107  0.9067867675313153  0.7358244306435822  1.0000
  O   O12       1.0  0.903675700307012  0.40678834805818553  0.7641745527675565  1.0000
  O   O13       1.0  0.9348332913022545  0.11197790794530252  0.39350378908668654  1.0000
  O   O14       1.0  0.06516084947530489  0.6119770616871347  0.1064975784228679  1.0000
  O   O15       1.0  0.0651590106313265  0.8880228973842108  0.606496582755355  1.0000
  O   O16       1.0  0.9348412196493214  0.3880220455417458  0.8935017765243812  1.0000
  O   O17       1.0  0.6562013705493541  0.12027602530161369  0.3329198396379027  1.0000
  O   O18       1.0  0.3437940667796369  0.6202760036958849  0.167080377750537  1.0000
  O   O19       1.0  0.3437923302998839  0.8797264781080687  0.6670805552816572  1.0000
  O   O20       1.0  0.6562079644027816  0.37972734873803654  0.8329172095483058  1.0000
