data_image0
_chemical_formula_structural       Sr3H33C33N3O15
_chemical_formula_sum              "Sr3 H33 C33 N3 O15"
_cell_length_a       9.797658003299647
_cell_length_b       10.61123303319044
_cell_length_c       10.611047887743016
_cell_angle_alpha    119.99341069687087
_cell_angle_beta     90.00319982771262
_cell_angle_gamma    90.0063546220611

_space_group_name_H-M_alt    "P 1"
_space_group_IT_number       1

loop_
  _space_group_symop_operation_xyz
  'x, y, z'

loop_
  _atom_site_type_symbol
  _atom_site_label
  _atom_site_symmetry_multiplicity
  _atom_site_fract_x
  _atom_site_fract_y
  _atom_site_fract_z
  _atom_site_occupancy
  Sr  Sr1       1.0  0.831919658653888  0.0986988500465387  0.12217539424460712  1.0000
  Sr  Sr2       1.0  0.1652227258268368  0.8777767596332496  0.9764254828377831  1.0000
  Sr  Sr3       1.0  0.49860395306081523  0.023453929172383398  0.901255983687399  1.0000
  H   H1        1.0  0.11317285845942138  0.8562233658092709  0.6589576958967102  1.0000
  H   H2        1.0  0.4465270247020356  0.3411627032390925  0.19699510256160122  1.0000
  H   H3        1.0  0.7797266414884164  0.802922651149764  0.14401418058089638  1.0000
  H   H4        1.0  0.18817879073630914  0.8409237472840658  0.4278028995034617  1.0000
  H   H5        1.0  0.5214949374800497  0.5724548938189784  0.4126349954487055  1.0000
  H   H6        1.0  0.8548596760040256  0.5872714085754963  0.15956794059049886  1.0000
  H   H7        1.0  0.8004310768485894  0.007531274190362999  0.389539525388642  1.0000
  H   H8        1.0  0.13408430143040556  0.6102747115687778  0.6178833202996474  1.0000
  H   H9        1.0  0.46738505206178615  0.38193272076648555  0.9924737821606585  1.0000
  H   H10       1.0  0.7224292926575515  0.018893721801099196  0.6206379960386954  1.0000
  H   H11       1.0  0.056052280134757396  0.3791402815988362  0.3982632445332186  1.0000
  H   H12       1.0  0.38919349461220065  0.6016226480258025  0.9811801626505243  1.0000
  H   H13       1.0  0.9006162037667876  0.6160332850025654  0.5302321307258852  1.0000
  H   H14       1.0  0.2344143360637148  0.46951031600212906  0.08547562237161797  1.0000
  H   H15       1.0  0.5669815830573413  0.9142727178365252  0.38414207597197275  1.0000
  H   H16       1.0  0.7217628070694744  0.6444569673737065  0.5264379650180119  1.0000
  H   H17       1.0  0.0556820418104422  0.4735779598834142  0.1182631624957864  1.0000
  H   H18       1.0  0.3881442021626356  0.8819302951469796  0.3555815795446053  1.0000
  H   H19       1.0  0.800682885899576  0.4817224704229235  0.3836017677041995  1.0000
  H   H20       1.0  0.13461906917592606  0.6163280484325783  0.0981451458032511  1.0000
  H   H21       1.0  0.46700999620085065  0.901977379818348  0.5184441171155428  1.0000
  H   H22       1.0  0.7311059848858504  0.5144495889528784  0.7886041541151843  1.0000
  H   H23       1.0  0.0640183262319312  0.2115322215988442  0.7260324208163028  1.0000
  H   H24       1.0  0.3974322307866558  0.2740327986821427  0.48533134123046306  1.0000
  H   H25       1.0  0.6661938328591858  0.6543534493964742  0.7570698581995927  1.0000
  H   H26       1.0  0.9991468533377769  0.24319721647339068  0.8975168768076643  1.0000
  H   H27       1.0  0.3325930288727649  0.10254583150066308  0.34548151043808434  1.0000
  H   H28       1.0  0.8441502325443505  0.6476821536593319  0.7903311489448656  1.0000
  H   H29       1.0  0.17705429453905452  0.20950235342941434  0.8574079818586428  1.0000
  H   H30       1.0  0.5105310137423159  0.14252176580301784  0.352237925795734  1.0000
  H   H31       1.0  0.7432293228862791  0.30535940138504714  0.5973469957087971  1.0000
  H   H32       1.0  0.0761597130433316  0.4027110037728859  0.7081957981540086  1.0000
  H   H33       1.0  0.40959152562881224  0.2920213029315164  0.6945635601314849  1.0000
  C   C1        1.0  0.8688580317877239  0.9493903895397794  0.7940886992968289  1.0000
  C   C2        1.0  0.20229702671261407  0.2058560513560366  0.15515623671821296  1.0000
  C   C3        1.0  0.5354414161401166  0.8447184105563322  0.05069365774699008  1.0000
  C   C4        1.0  0.9122256320899141  0.9370391068280384  0.6530279640132975  1.0000
  C   C5        1.0  0.24571363989199566  0.3469150767785223  0.2838726375309761  1.0000
  C   C6        1.0  0.5788873096584196  0.7160544391406276  0.0631046973768647  1.0000
  C   C7        1.0  0.043528706810604896  0.887142934717822  0.599043779457915  1.0000
  C   C8        1.0  0.3769238743638184  0.4010363721006415  0.2878101942702003  1.0000
  C   C9        1.0  0.7101628163439244  0.7121028584233643  0.1131537212530348  1.0000
  C   C10       1.0  0.0863775017318744  0.8800890209299296  0.47082273948328185  1.0000
  C   C11       1.0  0.4198077293750941  0.5293024611810607  0.40891026838033895  1.0000
  C   C12       1.0  0.7531190898753479  0.5909985288947653  0.1202508730728269  1.0000
  C   C13       1.0  0.9992387847474618  0.9230109515868037  0.39452039764346847  1.0000
  C   C14       1.0  0.33277061979310213  0.6054494245130257  0.5282574847519116  1.0000
  C   C15       1.0  0.6660673694579983  0.47163586948393293  0.07715072899616623  1.0000
  C   C16       1.0  0.0486976523593299  0.9131012441656168  0.2559882475180403  1.0000
  C   C17       1.0  0.38226811968624463  0.7438789178324398  0.656956157325233  1.0000
  C   C18       1.0  0.7156279095712319  0.3429660512981201  0.0869287255895941  1.0000
  C   C19       1.0  0.8674394644084699  0.9728727516536252  0.44852947448195835  1.0000
  C   C20       1.0  0.20100208735129846  0.5513759682836296  0.5241826782081419  1.0000
  C   C21       1.0  0.5342693001131806  0.47570165233307193  0.02724548962051196  1.0000
  C   C22       1.0  0.8242160976926415  0.9799364128747569  0.5769796726102215  1.0000
  C   C23       1.0  0.15776506783146968  0.4229063787596345  0.4028621098611255  1.0000
  C   C24       1.0  0.49095581311839703  0.5970377250752179  0.02017654517222677  1.0000
  C   C25       1.0  0.800819800300154  0.5614733861215625  0.5000852659588872  1.0000
  C   C26       1.0  0.13457932212673998  0.4998244784800648  0.06136119006785644  1.0000
  C   C27       1.0  0.4671649197016024  0.9386245130566948  0.4386164322588542  1.0000
  C   C28       1.0  0.7528116523696724  0.5814734654702248  0.7389719586556467  1.0000
  C   C29       1.0  0.0858341236363103  0.26108888426108484  0.8426501332720451  1.0000
  C   C30       1.0  0.41917534069644097  0.15738710412811227  0.4184119996438013  1.0000
  C   C31       1.0  0.7656519742998215  0.3436296497605298  0.5196347269309385  1.0000
  C   C32       1.0  0.0989508789814053  0.480393146524527  0.8240885221886246  1.0000
  C   C33       1.0  0.4319867197993971  0.1760322542918047  0.6563561531276748  1.0000
  N   N1        1.0  0.7742789284379796  0.48842635999084655  0.5829880320756757  1.0000
  N   N2        1.0  0.10764039099454689  0.4170217660025984  0.9055088084738119  1.0000
  N   N3        1.0  0.440596853074446  0.0945362356791932  0.5115657943038131  1.0000
  O   O1        1.0  0.9542847775762766  0.9171657331089093  0.8648866276027434  1.0000
  O   O2        1.0  0.2877345726406588  0.13509537860787185  0.05218290361875691  1.0000
  O   O3        1.0  0.6209098088655763  0.9476897447077807  0.08278950711406483  1.0000
  O   O4        1.0  0.7499063448431401  0.9965833232264887  0.8423212556632014  1.0000
  O   O5        1.0  0.08336567504839822  0.15755177652395957  0.1541621115704785  1.0000
  O   O6        1.0  0.41645039051116567  0.8457252465895024  0.003598287954623914  1.0000
  O   O7        1.0  0.17515635869381194  0.892698033881217  0.22614432309624288  1.0000
  O   O8        1.0  0.5087534830718639  0.7736347557174881  0.6664924956096172  1.0000
  O   O9        1.0  0.8421265546585985  0.33351636647346067  0.10722018152922885  1.0000
  O   O10       1.0  0.960839134433769  0.9222344606714469  0.1712861003425984  1.0000
  O   O11       1.0  0.29444689107955213  0.828535580262006  0.7508877965940786  1.0000
  O   O12       1.0  0.6278132512088775  0.24902258034040867  0.0777083313936728  1.0000
  O   O13       1.0  0.780888129864401  0.2551486403663502  0.3870152814078835  1.0000
  O   O14       1.0  0.1142975117370781  0.6129956396743951  0.8681648439147339  1.0000
  O   O15       1.0  0.44722202890299195  0.13197453277689417  0.7449323356178895  1.0000
