data_image0
_chemical_formula_structural       Zn2H24C34N4O8
_chemical_formula_sum              "Zn2 H24 C34 N4 O8"
_cell_length_a       9.180520274947881
_cell_length_b       9.1473305586889
_cell_length_c       10.437122067570224
_cell_angle_alpha    79.56403396282208
_cell_angle_beta     88.4057394419445
_cell_angle_gamma    62.45705186542286

_space_group_name_H-M_alt    "P 1"
_space_group_IT_number       1

loop_
  _space_group_symop_operation_xyz
  'x, y, z'

loop_
  _atom_site_type_symbol
  _atom_site_label
  _atom_site_symmetry_multiplicity
  _atom_site_fract_x
  _atom_site_fract_y
  _atom_site_fract_z
  _atom_site_occupancy
  Zn  Zn1       1.0  0.9097022529000824  0.09875046011139692  0.8383963607270818  1.0000
  Zn  Zn2       1.0  0.0903005679632399  0.9012494870134092  0.16160306138342412  1.0000
  H   H1        1.0  0.8610173212119606  0.8607550927731183  0.45382760764574215  1.0000
  H   H2        1.0  0.13898274755533888  0.13924611447322385  0.5461717000165933  1.0000
  H   H3        1.0  0.4910297873723763  0.9258150757205499  0.9220993448753634  1.0000
  H   H4        1.0  0.5089691799684813  0.07418615082540468  0.07789903126377601  1.0000
  H   H5        1.0  0.7461201415366929  0.8296060106355371  0.8012000230657961  1.0000
  H   H6        1.0  0.25387779657112475  0.17039269193320913  0.19879971615291947  1.0000
  H   H7        1.0  0.8085969919802808  0.6114531520311105  0.6658668260686441  1.0000
  H   H8        1.0  0.1914064932530408  0.3885429619906661  0.334136983944923  1.0000
  H   H9        1.0  0.6212202009626253  0.48685764267877835  0.6572031808241479  1.0000
  H   H10       1.0  0.3787837720538081  0.5131397760215392  0.34279754646306776  1.0000
  H   H11       1.0  0.33817178108792956  0.5866245743792932  0.5632931700163939  1.0000
  H   H12       1.0  0.6618261570198883  0.41337412818945307  0.436706569202322  1.0000
  H   H13       1.0  0.16899057622405425  0.440955410163177  0.5496594885152107  1.0000
  H   H14       1.0  0.8310068019072502  0.5590445310038562  0.4503410388270909  1.0000
  H   H15       1.0  0.13797724819634283  0.375428252259411  0.9656291040883931  1.0000
  H   H16       1.0  0.8620222605944433  0.6245741935852183  0.03437099169752138  1.0000
  H   H17       1.0  0.3071458801425208  0.5190127729533602  0.9809660171736642  1.0000
  H   H18       1.0  0.6928536071815402  0.4809897070432072  0.019032157663005502  1.0000
  H   H19       1.0  0.03601722725305481  0.8477867962403921  0.6442691342006128  1.0000
  H   H20       1.0  0.9639817615545281  0.1522143961536173  0.3557311628877784  1.0000
  H   H21       1.0  0.5614747917261056  0.1000752554794531  0.4494314505536254  1.0000
  H   H22       1.0  0.4385279891439069  0.8999271836942526  0.5505685583779896  1.0000
  H   H23       1.0  0.560300551370645  0.2453435731318123  0.6622683357307653  1.0000
  H   H24       1.0  0.4397006802831242  0.7546550886140652  0.3377332375829027  1.0000
  C   C1        1.0  0.5202158958193907  0.8302667628929185  0.8628807185188523  1.0000
  C   C2        1.0  0.4797809008686756  0.16973445102433973  0.13711867599778324  1.0000
  C   C3        1.0  0.6624387415447899  0.7769141785312713  0.7944681563430721  1.0000
  C   C4        1.0  0.33756085796598273  0.22308326613957527  0.20553172627525382  1.0000
  C   C5        1.0  0.6973145184684455  0.6544229147281159  0.7192896790764822  1.0000
  C   C6        1.0  0.3026889345647846  0.34557325052158216  0.28071124951321025  1.0000
  C   C7        1.0  0.5906513501413712  0.5857188624310226  0.7134580621042943  1.0000
  C   C8        1.0  0.4093514707219513  0.41428108469377634  0.28654136000621133  1.0000
  C   C9        1.0  0.4453890413140512  0.6392634342790872  0.7804363927092697  1.0000
  C   C10       1.0  0.5546109552598465  0.3607403162440762  0.2195606203503004  1.0000
  C   C11       1.0  0.41080273792380245  0.7643295448082484  0.8554378570551794  1.0000
  C   C12       1.0  0.5891950879973108  0.23567419308622561  0.14456017438187982  1.0000
  C   C13       1.0  0.33784033801320856  0.5600274777575435  0.773218788796683  1.0000
  C   C14       1.0  0.6621624828501211  0.4399724693672625  0.2267806333138225  1.0000
  C   C15       1.0  0.2973312953783562  0.5369274525216314  0.6519688954827815  1.0000
  C   C16       1.0  0.7026698933419623  0.4630712775281439  0.34802883593238226  1.0000
  C   C17       1.0  0.20243816338758341  0.455948078935741  0.6439074250921311  1.0000
  C   C18       1.0  0.7975580733239698  0.5440543735798047  0.3560927575480903  1.0000
  C   C19       1.0  0.14632058964345163  0.39527053630703074  0.7572309854786571  1.0000
  C   C20       1.0  0.8536756578014604  0.6047318991325454  0.24277015763617982  1.0000
  C   C21       1.0  0.18305572668980122  0.42140102744847513  0.878021948530247  1.0000
  C   C22       1.0  0.8169415499881582  0.578603931968303  0.12197783150502063  1.0000
  C   C23       1.0  0.27769665459151566  0.5023875608864331  0.885927182583153  1.0000
  C   C24       1.0  0.7223016913127938  0.49761743045865364  0.11407064755142933  1.0000
  C   C25       1.0  0.051388815589959266  0.30118266401019167  0.7483212421661282  1.0000
  C   C26       1.0  0.9486096961678641  0.6988172066293075  0.2516830981232374  1.0000
  C   C27       1.0  0.25474726477692383  0.839156901072208  0.9234393222848998  1.0000
  C   C28       1.0  0.7452522947405313  0.16084303564753816  0.07656114715452841  1.0000
  C   C29       1.0  0.9074785461333335  0.9374669365112567  0.6205512137594269  1.0000
  C   C30       1.0  0.0925220933438382  0.06253301506082919  0.37944826625394534  1.0000
  C   C31       1.0  0.6583048810827634  0.07056756752224663  0.5215812858795772  1.0000
  C   C32       1.0  0.3416962383842943  0.9294361295493591  0.4784185796524271  1.0000
  C   C33       1.0  0.659881809648205  0.1431124531120389  0.6257448564459909  1.0000
  C   C34       1.0  0.34011826985245375  0.8568887370583268  0.3742554116909673  1.0000
  N   N1        1.0  0.8166227703422778  0.0589783972787217  0.6863778405465129  1.0000
  N   N2        1.0  0.18337787986825294  0.9410215372173883  0.313622599941482  1.0000
  N   N3        1.0  0.8149520843204174  0.9416501904949612  0.5206836910119537  1.0000
  N   N4        1.0  0.185047424470369  0.058352255349660695  0.47931640477396814  1.0000
  O   O1        1.0  0.02654849795771948  0.27182451932344526  0.6395003961500196  1.0000
  O   O2        1.0  0.9734478724072633  0.728172863714427  0.36050341522110335  1.0000
  O   O3        1.0  0.9980279232439175  0.25391675582177703  0.8556723887161014  1.0000
  O   O4        1.0  0.0019722499168608643  0.7460818569198224  0.14433209497287441  1.0000
  O   O5        1.0  0.1202393079699746  0.8824722981928518  0.8601606115919369  1.0000
  O   O6        1.0  0.8797624621935825  0.11752515910669101  0.13983825264890024  1.0000
  O   O7        1.0  0.2685843719037281  0.8585423111789938  0.03978858129577389  1.0000
  O   O8        1.0  0.7314157583235997  0.14145636986649626  0.9602120604947051  1.0000
