data_image0
_chemical_formula_structural       Zn2H34C48N6O8
_chemical_formula_sum              "Zn2 H34 C48 N6 O8"
_cell_length_a       5.814397084812128
_cell_length_b       11.355417632008526
_cell_length_c       18.86944313981443
_cell_angle_alpha    79.84028092291454
_cell_angle_beta     81.13562539655243
_cell_angle_gamma    75.17043837550064

_space_group_name_H-M_alt    "P 1"
_space_group_IT_number       1

loop_
  _space_group_symop_operation_xyz
  'x, y, z'

loop_
  _atom_site_type_symbol
  _atom_site_label
  _atom_site_symmetry_multiplicity
  _atom_site_fract_x
  _atom_site_fract_y
  _atom_site_fract_z
  _atom_site_occupancy
  Zn  Zn1       1.0  0.5275164557287372  0.7794558877739634  0.8853038612055781  1.0000
  Zn  Zn2       1.0  0.8075387609177511  0.27920906911788984  0.3853656545811361  1.0000
  H   H1        1.0  0.7056842994520169  0.30986640576500685  0.5397771101526629  1.0000
  H   H2        1.0  0.4448888420345656  0.8101385536632433  0.039536347391269516  1.0000
  H   H3        1.0  0.6498732840727972  0.7550493648438488  0.7287775455419235  1.0000
  H   H4        1.0  0.8660338173925695  0.2550264471113336  0.2289543714744582  1.0000
  H   H5        1.0  0.9458402703829805  0.6583048783355849  0.028015111903947326  1.0000
  H   H6        1.0  0.36941242120894924  0.1577463848231915  0.5278839338767938  1.0000
  H   H7        1.0  0.3866157647663825  0.7219737566295166  0.60143271383982  1.0000
  H   H8        1.0  0.2891162212433329  0.22257951798035688  0.1016137025364614  1.0000
  H   H9        1.0  0.34612249388079885  0.38984874255875457  0.23228366909783196  1.0000
  H   H10       1.0  0.030414425426073324  0.8904238649788425  0.7321939391633662  1.0000
  H   H11       1.0  0.3561179822184286  0.3811367420626865  0.6276150833551951  1.0000
  H   H12       1.0  0.6352953010314338  0.88139187078972  0.12736858764873918  1.0000
  H   H13       1.0  0.013718551539299122  0.6821093515960469  0.6460439157075439  1.0000
  H   H14       1.0  0.6578311348672871  0.18241526672994715  0.1460708064442358  1.0000
  H   H15       1.0  0.9344629691729127  0.5041266031415004  0.446840939883927  1.0000
  H   H16       1.0  0.11364063810421529  0.005228875468262099  0.9465327527961377  1.0000
  H   H17       1.0  0.5865925103986882  0.4387856984233238  0.11323677136748961  1.0000
  H   H18       1.0  0.8611129560581149  0.9391873044162934  0.612998037777892  1.0000
  H   H19       1.0  0.7044102979929932  0.6051086299733512  0.14610139434674346  1.0000
  H   H20       1.0  0.5450624428089411  0.10467779773475881  0.6461157226364803  1.0000
  H   H21       1.0  0.3040043803526873  0.4324101798615344  0.36631897961763116  1.0000
  H   H22       1.0  0.8965762364525818  0.9332281208563341  0.866038891586548  1.0000
  H   H23       1.0  0.004649514721286961  0.61046199246001  0.9105198117961988  1.0000
  H   H24       1.0  0.47502056215873284  0.10937964468814698  0.41056191816502957  1.0000
  H   H25       1.0  0.5843397423537484  0.3987590558808235  0.7584677133083132  1.0000
  H   H26       1.0  0.2594204036841034  0.8984103108038753  0.2580188340707749  1.0000
  H   H27       1.0  0.7608400443916565  0.6503226348515625  0.5235515112156647  1.0000
  H   H28       1.0  0.06448155819275309  0.15118155069021097  0.023585687097529697  1.0000
  H   H29       1.0  0.3884675602835512  0.5370858494914329  0.8354894428817586  1.0000
  H   H30       1.0  0.23968217800740632  0.036202498774827084  0.3353660564963192  1.0000
  H   H31       1.0  0.9156660531845519  0.2469721409153465  0.7284960568483213  1.0000
  H   H32       1.0  0.1097593592604867  0.7469356512587667  0.22789380419350638  1.0000
  H   H33       1.0  0.10751212091863506  0.25521871765285903  0.6515234778165534  1.0000
  H   H34       1.0  0.9864177269735351  0.7553942217446872  0.1509376142650609  1.0000
  C   C1        1.0  0.011129825952018235  0.49442649061830224  0.19639893256050553  1.0000
  C   C2        1.0  0.2976282036182596  0.9945125025751621  0.6963728542253306  1.0000
  C   C3        1.0  0.28160021132681107  0.5531468320674334  0.06384879346749268  1.0000
  C   C4        1.0  0.10199949882289173  0.053162387181508605  0.5636917393856463  1.0000
  C   C5        1.0  0.8652249340248519  0.46021993059333244  0.26667672376701285  1.0000
  C   C6        1.0  0.40703763795914955  0.9602698527304622  0.7667015717361493  1.0000
  C   C7        1.0  0.432364763607524  0.5945111041437413  0.9963534424358895  1.0000
  C   C8        1.0  0.9776084158183664  0.09449389805412518  0.4961580011246055  1.0000
  C   C9        1.0  0.5308545397472669  0.35419765220629523  0.5216926228940791  1.0000
  C   C10       1.0  0.5932680944628002  0.8546234407563701  0.0214593800501319  1.0000
  C   C11       1.0  0.81741578394292  0.7057164111545828  0.7500774415389415  1.0000
  C   C12       1.0  0.7266558258360118  0.20559789373882606  0.25018597701438233  1.0000
  C   C13       1.0  0.2362830645745787  0.6038190554379453  0.7333206867734104  1.0000
  C   C14       1.0  0.4266866146294249  0.10366021650840197  0.2332825993169081  1.0000
  C   C15       1.0  0.03237966861727417  0.5991999861668802  0.07287723885431767  1.0000
  C   C16       1.0  0.29645613568466433  0.09893297277576348  0.5727690575335487  1.0000
  C   C17       1.0  0.5091876207717903  0.6348179272424302  0.6184300813069399  1.0000
  C   C18       1.0  0.23708350970731837  0.13529118223039655  0.11844630709774148  1.0000
  C   C19       1.0  0.25953112155750097  0.4470860238640098  0.18694118145113947  1.0000
  C   C20       1.0  0.1057267719676319  0.9474473184016503  0.6868636187327933  1.0000
  C   C21       1.0  0.10828640828140829  0.4470205874432408  0.5457393366048605  1.0000
  C   C22       1.0  0.8986457415020938  0.947705652782062  0.045460057180577045  1.0000
  C   C23       1.0  0.3332794380001333  0.39301810901123685  0.5704645981011892  1.0000
  C   C24       1.0  0.7032238637479369  0.893492003484283  0.0702156681523647  1.0000
  C   C25       1.0  0.8892436777541594  0.4845924269793753  0.5953831209369013  1.0000
  C   C26       1.0  0.030541629802748074  0.985137471677582  0.09515495579158535  1.0000
  C   C27       1.0  0.4597353845219697  0.5644772984143456  0.6858851770638451  1.0000
  C   C28       1.0  0.28994774847006255  0.0645885699517095  0.18575955091813506  1.0000
  C   C29       1.0  0.8380471347131008  0.4124147880482737  0.6633443236334315  1.0000
  C   C30       1.0  0.08647789915347218  0.9126060529389759  0.16298217846250648  1.0000
  C   C31       1.0  0.022124166405291183  0.6653225113946989  0.7042261756708468  1.0000
  C   C32       1.0  0.6082224896967361  0.16535654916935974  0.2042615068491145  1.0000
  C   C33       1.0  0.10193641779108036  0.4637947846961195  0.47032142366837343  1.0000
  C   C34       1.0  0.9632852012901625  0.964677026290829  0.9700255277970695  1.0000
  C   C35       1.0  0.39322777394571057  0.47470975219131606  0.12105387464335142  1.0000
  C   C36       1.0  0.010807665080264586  0.9750056849229481  0.6209013426821385  1.0000
  C   C37       1.0  0.8979966027770273  0.5698112442074502  0.1383717258877581  1.0000
  C   C38       1.0  0.3942596851770974  0.0695903586700695  0.6383360111538321  1.0000
  C   C39       1.0  0.30753120804347855  0.4229180643174785  0.4246057001769116  1.0000
  C   C40       1.0  0.8443581226217566  0.9236812602025705  0.9243248371035333  1.0000
  C   C41       1.0  0.015959839262329762  0.624970730506021  0.8517110291236348  1.0000
  C   C42       1.0  0.5077857489328325  0.12420592624327749  0.3517424721620229  1.0000
  C   C43       1.0  0.6243359911084031  0.4555832123764032  0.7072555740466839  1.0000
  C   C44       1.0  0.2133631333571276  0.9555288214625292  0.20693102641401845  1.0000
  C   C45       1.0  0.7204746417310516  0.5941549771633418  0.5749483716703949  1.0000
  C   C46       1.0  0.10988786010305064  0.09479531703797049  0.07489436405559499  1.0000
  C   C47       1.0  0.22819306242875873  0.5825557789342568  0.8091480567211348  1.0000
  C   C48       1.0  0.38059377353622675  0.0818855668796559  0.30909915030554197  1.0000
  N   N1        1.0  0.8138493110782365  0.6877703703946806  0.8227604135589173  1.0000
  N   N2        1.0  0.6756883665583119  0.18730020268233005  0.3228694144389266  1.0000
  N   N3        1.0  0.5192370163005647  0.3663593544821068  0.44984735142319465  1.0000
  N   N4        1.0  0.6643333688012304  0.8668739083594514  0.9495995495621229  1.0000
  N   N5        1.0  0.9871464800421704  0.30253608780596847  0.6876552453543993  1.0000
  N   N6        1.0  0.023239453639774945  0.8026089556211814  0.18714571622437146  1.0000
  O   O1        1.0  0.32142122964930336  0.6924582003347978  0.9562094729424399  1.0000
  O   O2        1.0  0.030664205530307333  0.19248161160290772  0.45604325899500237  1.0000
  O   O3        1.0  0.9878241201848824  0.377168645592313  0.3128114470765269  1.0000
  O   O4        1.0  0.3215156413487532  0.8770261502298454  0.8127236245427266  1.0000
  O   O5        1.0  0.647067292902442  0.5412263178658775  0.9837625762906864  1.0000
  O   O6        1.0  0.8289138920936738  0.04114021072577149  0.483523736105667  1.0000
  O   O7        1.0  0.6455142320617  0.5055468548564831  0.2764717673697845  1.0000
  O   O8        1.0  0.5712743390876163  0.005750053618463399  0.7766263231562646  1.0000
