data_image0
_chemical_formula_structural       Zn2H8C8O12
_chemical_formula_sum              "Zn2 H8 C8 O12"
_cell_length_a       7.212169143024414
_cell_length_b       7.450883008752892
_cell_length_c       7.902677538221598
_cell_angle_alpha    119.47171329552226
_cell_angle_beta     90.02799205078682
_cell_angle_gamma    118.91094772288193

_space_group_name_H-M_alt    "P 1"
_space_group_IT_number       1

loop_
  _space_group_symop_operation_xyz
  'x, y, z'

loop_
  _atom_site_type_symbol
  _atom_site_label
  _atom_site_symmetry_multiplicity
  _atom_site_fract_x
  _atom_site_fract_y
  _atom_site_fract_z
  _atom_site_occupancy
  Zn  Zn1       1.0  0.499994868289079  0.4999916766875644  0.4999915299893446  1.0000
  Zn  Zn2       1.0  0.9999989672643108  0.4999994078932914  0.9999988167499441  1.0000
  H   H1        1.0  0.7870982089571399  0.9488967870633545  0.5574279171739464  1.0000
  H   H2        1.0  0.8377393445337732  0.05102316392363802  0.9427412400385369  1.0000
  H   H3        1.0  0.21289846532857126  0.05110321250456452  0.4425768100216701  1.0000
  H   H4        1.0  0.16225363186860878  0.9489694416448416  0.057252453151790075  1.0000
  H   H5        1.0  0.7761279174119694  0.7135940799113174  0.3619984520734152  1.0000
  H   H6        1.0  0.06236113615521083  0.2861328543720276  0.1380133383213504  1.0000
  H   H7        1.0  0.22386691858248042  0.2864077931377764  0.6380008195421214  1.0000
  H   H8        1.0  0.9376300018833207  0.7138671690569611  0.8619838063382235  1.0000
  C   C1        1.0  0.24094470635120055  0.7237360961752302  0.4440675170134513  1.0000
  C   C2        1.0  0.517013594614049  0.2763679543999872  0.055652209245543836  1.0000
  C   C3        1.0  0.7590542734760106  0.2762601940903622  0.5559354845901014  1.0000
  C   C4        1.0  0.48299788528203197  0.7236394772074848  0.9443496528252313  1.0000
  C   C5        1.0  0.32840724342709404  0.9175329077404016  0.6592220055193326  1.0000
  C   C6        1.0  0.4106521693079941  0.08274482937384421  0.8404437374666076  1.0000
  C   C7        1.0  0.6715954450064388  0.0824708026261831  0.34078318446275807  1.0000
  C   C8        1.0  0.5893556004499133  0.917255178403842  0.15955719988660647  1.0000
  O   O1        1.0  0.24504525240875816  0.5349432319498818  0.38934970769573624  1.0000
  O   O2        1.0  0.709707270269334  0.4653364965080657  0.11035739103259361  1.0000
  O   O3        1.0  0.7549491011620688  0.46504935087376253  0.6106515676029434  1.0000
  O   O4        1.0  0.29030374390836045  0.5346727746493587  0.8896503885493562  1.0000
  O   O5        1.0  0.16595475067354246  0.758775445547315  0.32445235325841565  1.0000
  O   O6        1.0  0.40742149297680896  0.2410214501593799  0.17530638051952255  1.0000
  O   O7        1.0  0.8340507090198841  0.24122271596699116  0.6755451936204369  1.0000
  O   O8        1.0  0.5925876722592207  0.7589841239983245  0.8246958820597856  1.0000
  O   O9        1.0  0.7638531799839967  0.7847201842495152  0.5022199970942226  1.0000
  O   O10       1.0  0.9786871724566452  0.2151199941678286  0.997928718638818  1.0000
  O   O11       1.0  0.2361351746849749  0.21527426944273748  0.49777708585765634  1.0000
  O   O12       1.0  0.021303965581886186  0.7848800292611527  0.002068426020756006  1.0000
