data_image0
_chemical_formula_structural       Gd4Cr4H16C24N4O24
_chemical_formula_sum              "Gd4 Cr4 H16 C24 N4 O24"
_cell_length_a       6.670432277001065
_cell_length_b       7.0849759550021325
_cell_length_c       19.148700158003148
_cell_angle_alpha    89.9999363609002
_cell_angle_beta     89.99998425904685
_cell_angle_gamma    89.99993747566789

_space_group_name_H-M_alt    "P 1"
_space_group_IT_number       1

loop_
  _space_group_symop_operation_xyz
  'x, y, z'

loop_
  _atom_site_type_symbol
  _atom_site_label
  _atom_site_symmetry_multiplicity
  _atom_site_fract_x
  _atom_site_fract_y
  _atom_site_fract_z
  _atom_site_occupancy
  Gd  Gd1       1.0  0.38303468656867057  0.6409430662115555  0.2240140114655986  1.0000
  Gd  Gd2       1.0  0.1169649353124385  0.3590572331326242  0.7240140776846147  1.0000
  Gd  Gd3       1.0  0.6169673190297756  0.14094399320541845  0.2759857769890743  1.0000
  Gd  Gd4       1.0  0.8830319197321116  0.8590570446475569  0.7759856129896221  1.0000
  Cr  Cr1       1.0  0.8299637318875313  0.62062652206469  0.2794814671827481  1.0000
  Cr  Cr2       1.0  0.6700370032193561  0.37937309384344803  0.779481520079294  1.0000
  Cr  Cr3       1.0  0.170035298814021  0.12062666620940383  0.2205198962975743  1.0000
  Cr  Cr4       1.0  0.3299658250286797  0.8793722321977883  0.720520251170349  1.0000
  H   H1        1.0  0.3980051160049882  0.33035375059756694  0.9545670564101769  1.0000
  H   H2        1.0  0.10199581976896611  0.6696472672529198  0.45456700479773815  1.0000
  H   H3        1.0  0.6019962695724104  0.8303545454835374  0.5454321238169513  1.0000
  H   H4        1.0  0.8980031544502652  0.16964577386392674  0.0454322496466588  1.0000
  H   H5        1.0  0.9890898655804463  0.7088909226063793  0.11623537402025622  1.0000
  H   H6        1.0  0.5109110007021087  0.2911091839409393  0.6162349558594968  1.0000
  H   H7        1.0  0.010912061726003197  0.2088907405638595  0.3837638643153198  1.0000
  H   H8        1.0  0.4890889309421027  0.7911090786486028  0.8837642404766727  1.0000
  H   H9        1.0  0.8976516661996997  0.7028839918664077  0.9892147390883537  1.0000
  H   H10       1.0  0.6023489003763558  0.29711640512268644  0.4892148403559986  1.0000
  H   H11       1.0  0.1023498662555937  0.20288342488527178  0.5107839712331241  1.0000
  H   H12       1.0  0.3976499269666078  0.7971146924488013  0.010784883994631402  1.0000
  H   H13       1.0  0.4734263517614038  0.35373689292795524  0.0832154752571057  1.0000
  H   H14       1.0  0.026574882410628203  0.6462638295868572  0.5832159543020765  1.0000
  H   H15       1.0  0.5265754086466573  0.8537366496562627  0.4167831813946634  1.0000
  H   H16       1.0  0.9734237169781464  0.14626396502766434  0.9167833014890264  1.0000
  C   C1        1.0  0.3034129836615022  0.41357068469184116  0.9892430267119181  1.0000
  C   C2        1.0  0.1965879242495774  0.5864288175020889  0.48924300037609925  1.0000
  C   C3        1.0  0.6965898051818513  0.913571486037263  0.510757686042922  1.0000
  C   C4        1.0  0.8034111458572825  0.08642752608648863  0.0107578549130452  1.0000
  C   C5        1.0  0.0757533183597232  0.6268375378942891  0.0788010390248743  1.0000
  C   C6        1.0  0.42424642020647235  0.37316319788961755  0.5788010706011661  1.0000
  C   C7        1.0  0.9242487034934683  0.1268362994512771  0.42119771076284707  1.0000
  C   C8        1.0  0.5757519177377758  0.8731628905253785  0.921198614282929  1.0000
  C   C9        1.0  0.0251374388102548  0.6229745655868585  0.0084730309510661  1.0000
  C   C10       1.0  0.4748623562684386  0.37702497013150094  0.5084730561892883  1.0000
  C   C11       1.0  0.9748645874935918  0.12297447490094984  0.4915251981934077  1.0000
  C   C12       1.0  0.52513447807155  0.8770273265809864  0.9915261048805208  1.0000
  C   C13       1.0  0.3460237802481529  0.4282750018964309  0.06035908423376671  1.0000
  C   C14       1.0  0.1539774722902152  0.5717257893143499  0.5603590596831722  1.0000
  C   C15       1.0  0.6539778942733604  0.9282745582640646  0.4396400640509128  1.0000
  C   C16       1.0  0.8460212129857183  0.07172457628571043  0.9396402267039649  1.0000
  C   C17       1.0  0.14413090272515214  0.5192366565898113  0.9622845246823674  1.0000
  C   C18       1.0  0.3558685276942413  0.48076433806640756  0.46228452676314197  1.0000
  C   C19       1.0  0.8558693421840714  0.019236641378071802  0.5377142610210939  1.0000
  C   C20       1.0  0.6441300880401643  0.9807637011652232  0.037714599976332905  1.0000
  C   C21       1.0  0.105341833683319  0.5360371316896604  0.8852573625781943  1.0000
  C   C22       1.0  0.3946576586316297  0.4639626830354049  0.3852573679131623  1.0000
  C   C23       1.0  0.8946568927139111  0.03603825632387721  0.6147408940003274  1.0000
  C   C24       1.0  0.6053424756157922  0.9639618547139577  0.11474176572288292  1.0000
  N   N1        1.0  0.2377953319782264  0.5367947673775292  0.1042351522635698  1.0000
  N   N2        1.0  0.2622058853037572  0.4632058919630424  0.6042351620950015  1.0000
  N   N3        1.0  0.7622067936263051  0.03679377283926751  0.3957641567127724  1.0000
  N   N4        1.0  0.7377938480421591  0.9632054935791601  0.895764485829062  1.0000
  O   O1        1.0  0.0360089123732337  0.6945896055613475  0.8654246555198881  1.0000
  O   O2        1.0  0.4639920950305553  0.3054116802077331  0.3654247194256612  1.0000
  O   O3        1.0  0.963989631331117  0.19459201037245316  0.634574058205729  1.0000
  O   O4        1.0  0.5360082219068829  0.8054108639319824  0.1345750015197424  1.0000
  O   O5        1.0  0.1438581741319283  0.3967141855382934  0.8460401060077417  1.0000
  O   O6        1.0  0.35614134969584643  0.6032857470548763  0.34604005777110564  1.0000
  O   O7        1.0  0.8561431349812524  0.8967158030330963  0.6539590469801412  1.0000
  O   O8        1.0  0.6438592001408168  0.10328560157091003  0.15395922391246594  1.0000
  O   O9        1.0  0.6851484204784059  0.8126879462925842  0.2755020521841516  1.0000
  O   O10       1.0  0.8148523178262934  0.18731168157643205  0.7755016480901347  1.0000
  O   O11       1.0  0.31485488638112  0.3126865173775928  0.22449923246050932  1.0000
  O   O12       1.0  0.1851447351101569  0.6873137805084611  0.7244991575376292  1.0000
  O   O13       1.0  0.6808880463749389  0.4564073283390968  0.24047154930654813  1.0000
  O   O14       1.0  0.8191112209251658  0.5435924048155913  0.7404709985694282  1.0000
  O   O15       1.0  0.31911209657634737  0.9564077721012654  0.2595301985737919  1.0000
  O   O16       1.0  0.1808889959188917  0.04359242049675771  0.7595309105086372  1.0000
  O   O17       1.0  0.04021131631673569  0.6520582951614815  0.23577618136000214  1.0000
  O   O18       1.0  0.4597867969605574  0.3479405573947505  0.7357762199518803  1.0000
  O   O19       1.0  0.9597891773184911  0.15206172608603202  0.2642262136750375  1.0000
  O   O20       1.0  0.5402115700465303  0.8479379356714747  0.7642266086578146  1.0000
  O   O21       1.0  0.8749023509694851  0.5614208154145999  0.358705131439919  1.0000
  O   O22       1.0  0.6250983204776687  0.4385785623857005  0.8587051642538343  1.0000
  O   O23       1.0  0.1250967479520071  0.061419832670196704  0.1412973008002183  1.0000
  O   O24       1.0  0.3749044395469312  0.9385835381530896  0.6412981493784145  1.0000
