data_image0
_chemical_formula_structural       Zn2H44C72N4O12
_chemical_formula_sum              "Zn2 H44 C72 N4 O12"
_cell_length_a       12.430339742693544
_cell_length_b       13.196723564675262
_cell_length_c       27.327522913997118
_cell_angle_alpha    88.03588659405037
_cell_angle_beta     79.99534810049467
_cell_angle_gamma    81.29891467191023

_space_group_name_H-M_alt    "P 1"
_space_group_IT_number       1

loop_
  _space_group_symop_operation_xyz
  'x, y, z'

loop_
  _atom_site_type_symbol
  _atom_site_label
  _atom_site_symmetry_multiplicity
  _atom_site_fract_x
  _atom_site_fract_y
  _atom_site_fract_z
  _atom_site_occupancy
  Zn  Zn1       1.0  0.8944791343669891  0.4773464916059496  0.4870706808221925  1.0000
  Zn  Zn2       1.0  0.09902799707018774  0.522453655646956  0.514114446813899  1.0000
  H   H1        1.0  0.6942425709426843  0.5049501793156069  0.6358462409147378  1.0000
  H   H2        1.0  0.11608084872257511  0.7372359148125015  0.4573287068038994  1.0000
  H   H3        1.0  0.6422429232363173  0.28934861042963433  0.3988898242146206  1.0000
  H   H4        1.0  0.6712956009696426  0.5451099944275415  0.5201904361447447  1.0000
  H   H5        1.0  0.5256947609378599  0.7629369930308557  0.8671166078511519  1.0000
  H   H6        1.0  0.5264256207864193  0.6307527202675872  0.5564920506828699  1.0000
  H   H7        1.0  0.3465316949200172  0.7206895204329342  0.5983955197177907  1.0000
  H   H8        1.0  0.2685014440959391  0.43758841694093326  0.4530277125816866  1.0000
  H   H9        1.0  0.159420728259029  0.6626954900211146  0.3569235668408552  1.0000
  H   H10       1.0  0.25374990717421747  0.6710273747899509  0.2687214673137888  1.0000
  H   H11       1.0  0.29388646071912927  0.715490250693719  0.013393281136586693  1.0000
  H   H12       1.0  0.9383244008589955  0.5120345366756496  0.7615137422349818  1.0000
  H   H13       1.0  0.017808469009700897  0.5030238699265794  0.6706518310919947  1.0000
  H   H14       1.0  0.6911890838777595  0.3352007930403432  0.064046992508267  1.0000
  H   H15       1.0  0.19518568813726483  0.24782784989484  0.32507871944637406  1.0000
  H   H16       1.0  0.149769359017121  0.3004420946793688  0.3856381461870484  1.0000
  H   H17       1.0  0.055041274423245995  0.30210480281130714  0.344597608325472  1.0000
  H   H18       1.0  0.2663558386610844  0.2627470165806329  0.5375040369724573  1.0000
  H   H19       1.0  0.3559299751928719  0.1436034171032361  0.5356281014624145  1.0000
  H   H20       1.0  0.3572899203299755  0.22452050114335262  0.4824484755920508  1.0000
  H   H21       1.0  0.3687375396997297  0.9243683353029228  0.5083346526897827  1.0000
  H   H22       1.0  0.3812792035592878  0.9449273883795899  0.44347025436678666  1.0000
  H   H23       1.0  0.796593299947652  0.2943733978612855  0.9006403945203373  1.0000
  H   H24       1.0  0.41739657357147303  0.036372439942020704  0.4809161758637046  1.0000
  H   H25       1.0  0.6138567779493158  0.5127975052457997  0.7267597793775024  1.0000
  H   H26       1.0  0.7203665446819654  0.8018331076212918  0.4881519987595766  1.0000
  H   H27       1.0  0.8206513354690584  0.09905775695317232  0.49190841725099693  1.0000
  H   H28       1.0  0.9215444154906648  0.3069388942112639  0.42998647178966115  1.0000
  H   H29       1.0  0.8408196465463503  0.21420596540556863  0.4162317944632008  1.0000
  H   H30       1.0  0.8684398599302056  0.3150860064834121  0.373621435031751  1.0000
  H   H31       1.0  0.4388896420983244  0.3415391177712693  0.40804430532782016  1.0000
  H   H32       1.0  0.15521934910142926  0.7422375171048542  0.6154837558284711  1.0000
  H   H33       1.0  0.0936679620546528  0.7318976661608759  0.5616774580317312  1.0000
  H   H34       1.0  0.5999323340205507  0.3393916663806352  0.1524338773532463  1.0000
  H   H35       1.0  0.09122919492612172  0.6330145099933304  0.6062847590513201  1.0000
  H   H36       1.0  0.1938317178691946  0.6992105599238557  0.0989586360402228  1.0000
  H   H37       1.0  0.4545470420612148  0.8653244318355038  0.9358791718771967  1.0000
  H   H38       1.0  0.33213051822028916  0.8109231685232389  0.953213498002789  1.0000
  H   H39       1.0  0.4189936988204509  0.8186302089822489  0.9976245725635167  1.0000
  H   H40       1.0  0.24349058986204847  0.34941822416192997  0.2541331936645221  1.0000
  H   H41       1.0  0.7198370716570538  0.30230699646131853  0.9908700427450725  1.0000
  H   H42       1.0  0.26372587573700196  0.8379507527857797  0.4581551290481229  1.0000
  H   H43       1.0  0.9400936907009266  0.17876257946742413  0.4963369250250694  1.0000
  H   H44       1.0  0.6741193738212345  0.993575984579806  0.49159797829204877  1.0000
  C   C1        1.0  0.9168623774574128  0.6890199801012501  0.4888732663797555  1.0000
  C   C2        1.0  0.435738763300641  0.6045851374361747  0.022573800848860504  1.0000
  C   C3        1.0  0.5725508988520429  0.4549091672022457  0.03991962388810321  1.0000
  C   C4        1.0  0.9090531908130046  0.5017676070434759  0.5936453494923057  1.0000
  C   C5        1.0  0.4775231861143111  0.528600759878323  0.05593664553570931  1.0000
  C   C6        1.0  0.33248075864571547  0.6630847455366863  0.0388966045040249  1.0000
  C   C7        1.0  0.2745585232165908  0.6538826417780542  0.0871384456344799  1.0000
  C   C8        1.0  0.3192023816543141  0.5874188463014463  0.12127974535608392  1.0000
  C   C9        1.0  0.421383215468623  0.5241050397106406  0.10610415509150779  1.0000
  C   C10       1.0  0.4668864402334306  0.4550945440875012  0.1404999264896603  1.0000
  C   C11       1.0  0.41228118074744907  0.4516129081647123  0.19302276748715735  1.0000
  C   C12       1.0  0.7022612857871664  0.5108346770203838  0.7141254900037808  1.0000
  C   C13       1.0  0.2568971809282345  0.580853126161081  0.17229272504649631  1.0000
  C   C14       1.0  0.22975079363150286  0.5994406454175235  0.2847854719063037  1.0000
  C   C15       1.0  0.1764660853290465  0.5946350965330254  0.33372644461075396  1.0000
  C   C16       1.0  0.06943168654971289  0.3064925398357233  0.5048302816054928  1.0000
  C   C17       1.0  0.1678038991207131  0.4126146996364922  0.3257546249997105  1.0000
  C   C18       1.0  0.22232151517233228  0.41855503020425294  0.2766163359734435  1.0000
  C   C19       1.0  0.25216701979885403  0.510621090756061  0.256342612266323  1.0000
  C   C20       1.0  0.49948865944411125  0.6147126030563682  0.9726633784387672  1.0000
  C   C21       1.0  0.5820998739162562  0.5299085906614566  0.9546344601640797  1.0000
  C   C22       1.0  0.6176127152122817  0.448867843665802  0.986934561858952  1.0000
  C   C23       1.0  0.7718343523440652  0.5133885201924643  0.7488623740820372  1.0000
  C   C24       1.0  0.48468110269825354  0.7019688774419067  0.9415881594098964  1.0000
  C   C25       1.0  0.7383224533643116  0.3602025807296414  0.9161834284087078  1.0000
  C   C26       1.0  0.6159744046833068  0.38895486598215007  0.075238943581077  1.0000
  C   C27       1.0  0.5651382300574496  0.39020540835336  0.1250264260817104  1.0000
  C   C28       1.0  0.0867692298793514  0.504184491815664  0.4072827129378283  1.0000
  C   C29       1.0  0.694425113751947  0.36561693428946995  0.9667786139538208  1.0000
  C   C30       1.0  0.24069507217330968  0.0387444509607562  0.4858207483000783  1.0000
  C   C31       1.0  0.10543134310424311  0.1927330680619335  0.4999113955989927  1.0000
  C   C32       1.0  0.7853318408032308  0.8497850623185813  0.4854261259940529  1.0000
  C   C33       1.0  0.7599674981613304  0.9570874714029359  0.4878122874778157  1.0000
  C   C34       1.0  0.6323944531617939  0.5261569109172298  0.903475551298186  1.0000
  C   C35       1.0  0.8429800624297102  0.016424658140834898  0.48751030176070026  1.0000
  C   C36       1.0  0.9551816814398676  0.9715040032713703  0.48233331895507087  1.0000
  C   C37       1.0  0.9815009090235235  0.8630162004424946  0.47694772209334246  1.0000
  C   C38       1.0  0.043744090548734994  0.0310632951974625  0.48435169291203556  1.0000
  C   C39       1.0  0.15564369269431916  0.9822362399396172  0.4785160469262735  1.0000
  C   C40       1.0  0.6551687419751103  0.6086431317865079  0.8184270071974921  1.0000
  C   C41       1.0  0.1784146840421386  0.8754942673559256  0.4665378871724926  1.0000
  C   C42       1.0  0.09557914701123593  0.8184156222942888  0.46617215421139246  1.0000
  C   C43       1.0  0.02301109520029599  0.13660593914032404  0.4933327754587893  1.0000
  C   C44       1.0  0.2157158250122535  0.14235302675241  0.4991970640776344  1.0000
  C   C45       1.0  0.6065974938368724  0.6101073098903028  0.8718660847966364  1.0000
  C   C46       1.0  0.8940490371649612  0.8027306948450318  0.4815927784293593  1.0000
  C   C47       1.0  0.6454115364187769  0.3468539127140816  0.42615326624223127  1.0000
  C   C48       1.0  0.24961449119214046  0.6367611365006384  0.560702278303495  1.0000
  C   C49       1.0  0.3498888432279088  0.6618963263112008  0.5709316205372232  1.0000
  C   C50       1.0  0.44993049123194595  0.611869527907864  0.5472802823372476  1.0000
  C   C51       1.0  0.4521555792444971  0.5370008653765836  0.5114481081949975  1.0000
  C   C52       1.0  0.7565791563047597  0.43307540369193026  0.8310383925111893  1.0000
  C   C53       1.0  0.3486732378123634  0.5180720899958758  0.5009042338821175  1.0000
  C   C54       1.0  0.5529187479666787  0.47884387643095044  0.48535370526337124  1.0000
  C   C55       1.0  0.5470841070866825  0.4057739147433709  0.4491056838957377  1.0000
  C   C56       1.0  0.5382447671667309  0.6968341774658741  0.8916867768704577  1.0000
  C   C57       1.0  0.4422273376925644  0.39440309556191994  0.43740201394076184  1.0000
  C   C58       1.0  0.34730943182803736  0.4478593128305591  0.4622863041752723  1.0000
  C   C59       1.0  0.6588806457810604  0.4896666907103509  0.4937618770905416  1.0000
  C   C60       1.0  0.7465772892608269  0.3604006701874097  0.4375369436758092  1.0000
  C   C61       1.0  0.8852841805068576  0.5109132560477505  0.7337933982778538  1.0000
  C   C62       1.0  0.9293462557653313  0.506070109026382  0.6833884887732466  1.0000
  C   C63       1.0  0.7467865506262328  0.5067769225569593  0.6637165829994629  1.0000
  C   C64       1.0  0.14088612527748268  0.3103989291069382  0.3464285400875511  1.0000
  C   C65       1.0  0.30330098181907067  0.19607647574699877  0.5145822465195238  1.0000
  C   C66       1.0  0.3579185539932724  0.9837768889415415  0.4795546351821828  1.0000
  C   C67       1.0  0.7086162795562598  0.44010375829732606  0.8844623785340175  1.0000
  C   C68       1.0  0.8505334499056404  0.29572779207892813  0.4133711989651729  1.0000
  C   C69       1.0  0.14197609494149796  0.6892851882047353  0.5878519703304832  1.0000
  C   C70       1.0  0.41891500854960373  0.8040994158509351  0.9583398161585351  1.0000
  C   C71       1.0  0.8605482612647106  0.5046346715076455  0.6479624505926225  1.0000
  C   C72       1.0  0.14385370942775919  0.5028925736583006  0.3541972545341067  1.0000
  N   N1        1.0  0.7259391073809168  0.5183621696290147  0.8010836799232309  1.0000
  N   N2        1.0  0.3086631113723186  0.5140149472613872  0.2056420994073846  1.0000
  N   N3        1.0  0.7516773665575368  0.43385954422711154  0.4707833218753379  1.0000
  N   N4        1.0  0.24987548988492134  0.5658401935728108  0.5264186186944713  1.0000
  O   O1        1.0  0.8588161128856485  0.6319574225205641  0.47146719499962586  1.0000
  O   O2        1.0  0.0012030606985788882  0.4606712131453321  0.41841531830387874  1.0000
  O   O3        1.0  0.12991884506049445  0.5499320955723235  0.4376715565117308  1.0000
  O   O4        1.0  0.635783713605903  0.6809969582803818  0.7901122737967157  1.0000
  O   O5        1.0  0.164809297759497  0.6303491684425071  0.18550774205642986  1.0000
  O   O6        1.0  0.8192454561190772  0.3574419458902582  0.8129146893855506  1.0000
  O   O7        1.0  0.45374775554487456  0.3974295109880543  0.22445235200287783  1.0000
  O   O8        1.0  0.991771734376016  0.6581815061539232  0.5146351188082932  1.0000
  O   O9        1.0  0.8425783729721984  0.5080777249847728  0.5627895298059258  1.0000
  O   O10       1.0  0.014331570632833695  0.49372502935596446  0.5829942784970824  1.0000
  O   O11       1.0  0.9661114669012959  0.3373505642600919  0.508948193135872  1.0000
  O   O12       1.0  0.1421109864495662  0.3662878313188572  0.5021343635859594  1.0000
