data_image0
_chemical_formula_structural       Al2H7C12O12F
_chemical_formula_sum              "Al2 H7 C12 O12 F1"
_cell_length_a       6.706314690018414
_cell_length_b       8.834137929477283
_cell_length_c       11.182309391302738
_cell_angle_alpha    98.67932958189482
_cell_angle_beta     71.99715158452874
_cell_angle_gamma    75.28716887777571

_space_group_name_H-M_alt    "P 1"
_space_group_IT_number       1

loop_
  _space_group_symop_operation_xyz
  'x, y, z'

loop_
  _atom_site_type_symbol
  _atom_site_label
  _atom_site_symmetry_multiplicity
  _atom_site_fract_x
  _atom_site_fract_y
  _atom_site_fract_z
  _atom_site_occupancy
  Al  Al1       1.0  0.999668854204167  0.49995125737295615  0.4998918505159508  1.0000
  Al  Al2       1.0  0.4979262567667107  0.5011491323556143  0.5027203827105708  1.0000
  H   H1        1.0  0.8664699724241843  0.38098758107160086  0.3435275767834369  1.0000
  H   H2        1.0  0.11815294692897997  0.6547268732981448  0.6483087581435852  1.0000
  H   H3        1.0  0.22342939217097071  0.5304362605022206  0.8957537914444558  1.0000
  H   H4        1.0  0.8939882809700495  0.46893428259637204  0.8704572853252657  1.0000
  H   H5        1.0  0.1189039293286457  0.5240330297261764  0.12973586731169456  1.0000
  H   H6        1.0  0.2856226389173386  0.8686620299863321  0.5081562852674537  1.0000
  H   H7        1.0  0.7142940578190748  0.13315060924163896  0.49480596031296636  1.0000
  C   C1        1.0  0.34761072462021053  0.21360882757289087  0.4914738939693705  1.0000
  C   C2        1.0  0.3723538172615406  0.4879710376562373  0.2716401112746851  1.0000
  C   C3        1.0  0.6495247510677586  0.7890125787694373  0.5130832530245684  1.0000
  C   C4        1.0  0.62994612726218  0.5095776247059476  0.7301324544127539  1.0000
  C   C5        1.0  0.4449482049258721  0.49067704720176414  0.13189576262227826  1.0000
  C   C6        1.0  0.5638079424124742  0.5030610495446979  0.8692222779884416  1.0000
  C   C7        1.0  0.6630257753314767  0.4744685069098509  0.05554508014915884  1.0000
  C   C8        1.0  0.3456365823490587  0.5164011394924799  0.941991609393547  1.0000
  C   C9        1.0  0.7234410778425512  0.4817367346442579  0.9267813183050251  1.0000
  C   C10       1.0  0.28812835430099437  0.5115619072992742  0.07141928144401531  1.0000
  C   C11       1.0  0.3981145433743408  0.0437944438622964  0.4999779289121165  1.0000
  C   C12       1.0  0.5992615791997835  0.9588534609193929  0.5045425670851529  1.0000
  O   O1        1.0  0.16153734819925353  0.2821065545618069  0.4859669839273835  1.0000
  O   O2        1.0  0.5105552156638428  0.4873830427962174  0.3280617958557314  1.0000
  O   O3        1.0  0.4960683479967187  0.7229803690757352  0.5176489629065486  1.0000
  O   O4        1.0  0.825811636178976  0.5109408001756606  0.6746987256640651  1.0000
  O   O5        1.0  0.8372387429293654  0.7196011266048928  0.516319072821439  1.0000
  O   O6        1.0  0.48564884739494113  0.5138500194224207  0.6775835694439963  1.0000
  O   O7        1.0  0.499151799775298  0.2805645207471272  0.48943503096824503  1.0000
  O   O8        1.0  0.1751309888068064  0.48684721921256363  0.3244418905320785  1.0000
  O   O9        1.0  0.8060476398732066  0.4242807169794887  0.4369906635713079  1.0000
  O   O10       1.0  0.19060340034168638  0.5779380169721193  0.5642629668953204  1.0000
  O   O11       1.0  0.23197043128063644  0.982626930384299  0.5030808477864781  1.0000
  O   O12       1.0  0.7659688124153946  0.019503818100979214  0.5009407427772246  1.0000
  F   F1        1.0  0.8268239384184144  0.44834396050548253  0.10506241875383886  1.0000
