data_image0
_chemical_formula_structural       Co3H46C66N20O14
_chemical_formula_sum              "Co3 H46 C66 N20 O14"
_cell_length_a       10.007551063577449
_cell_length_b       17.78079691116597
_cell_length_c       17.9465772259035
_cell_angle_alpha    67.1395162385831
_cell_angle_beta     75.13650738318341
_cell_angle_gamma    81.38917385903525

_space_group_name_H-M_alt    "P 1"
_space_group_IT_number       1

loop_
  _space_group_symop_operation_xyz
  'x, y, z'

loop_
  _atom_site_type_symbol
  _atom_site_label
  _atom_site_symmetry_multiplicity
  _atom_site_fract_x
  _atom_site_fract_y
  _atom_site_fract_z
  _atom_site_occupancy
  Co  Co1       1.0  0.7015790710518246  0.4329659780446989  0.4849542692324601  1.0000
  Co  Co2       1.0  0.2984273392411295  0.5670500722898737  0.5150423273000797  1.0000
  Co  Co3       1.0  0.5000097197915706  0.9999955838764053  0.5000024291800784  1.0000
  H   H1        1.0  0.06616026528944731  0.23095012707102572  0.4570425083968743  1.0000
  H   H2        1.0  0.46525683314877136  0.24864213944187705  0.4957377353316018  1.0000
  H   H3        1.0  0.133644838412124  0.42519938188389966  0.5283700981078496  1.0000
  H   H4        1.0  0.769417210397549  0.5581382323104053  0.2809095686687754  1.0000
  H   H5        1.0  0.6787118593613144  0.3111760883504715  0.39485794943947633  1.0000
  H   H6        1.0  0.8094260625230447  0.3988117883583799  0.12293774755001856  1.0000
  H   H7        1.0  0.8519848195744899  0.4691257618383489  0.9696251792327928  1.0000
  H   H8        1.0  0.7471841100118227  0.7014700731957222  0.9990655571169994  1.0000
  H   H9        1.0  0.7036384250307747  0.6313241099849378  0.1513204618679751  1.0000
  H   H10       1.0  0.8250878013125343  0.7373061656153795  0.7337231387618955  1.0000
  H   H11       1.0  0.9757199279293189  0.8513542009216482  0.6537514443250102  1.0000
  H   H12       1.0  0.15857875051664647  0.7983142278143803  0.8629728864911711  1.0000
  H   H13       1.0  0.007147567518344993  0.6821394191527262  0.9444278538737476  1.0000
  H   H14       1.0  0.2529276884895495  0.8633800919471143  0.5934303261394688  1.0000
  H   H15       1.0  0.3597999686582156  0.0342355549413682  0.6736309256483395  1.0000
  H   H16       1.0  0.9995794884141915  0.5950707805143979  0.7592941559910571  1.0000
  H   H17       1.0  0.9415018033921072  0.5216773293143647  0.6810164048774396  1.0000
  H   H18       1.0  0.5271876279958434  0.4953965210303439  0.8336454940315718  1.0000
  H   H19       1.0  0.5869718170277451  0.5702789276389454  0.9116047365437436  1.0000
  H   H20       1.0  0.8629997600173881  0.48441947602876223  0.5990413901148485  1.0000
  H   H21       1.0  0.4810434738519759  0.37876814622327276  0.6663987011968329  1.0000
  H   H22       1.0  0.3171999237276495  0.04982315097719691  0.4163152907100951  1.0000
  H   H23       1.0  0.31247651356788  0.9522368756157961  0.4423817186818155  1.0000
  H   H24       1.0  0.9338548904722828  0.7690378024447  0.5429580476635749  1.0000
  H   H25       1.0  0.5347503749232203  0.7513427305847244  0.5042751717724626  1.0000
  H   H26       1.0  0.8663709149501103  0.5747934334948042  0.4716307252082712  1.0000
  H   H27       1.0  0.23058308308178974  0.4418656002178382  0.7190937145745266  1.0000
  H   H28       1.0  0.3212672674019359  0.6888100595126119  0.6051468180886915  1.0000
  H   H29       1.0  0.19057865654933442  0.6011883849558758  0.8770562717683887  1.0000
  H   H30       1.0  0.14802149029053882  0.5308799024417252  0.030372075026441844  1.0000
  H   H31       1.0  0.25281861945509126  0.29852948448760946  0.0009340005168140688  1.0000
  H   H32       1.0  0.2963611925174802  0.36867545516182804  0.8486773131282845  1.0000
  H   H33       1.0  0.17491595210781696  0.262693393830233  0.26627404158628554  1.0000
  H   H34       1.0  0.0242839370865582  0.1486441359050019  0.346246189199654  1.0000
  H   H35       1.0  0.8414238548365064  0.20168655647236736  0.13702343218664478  1.0000
  H   H36       1.0  0.9928518343497996  0.3178625888412866  0.055570686237267436  1.0000
  H   H37       1.0  0.747084349193223  0.13661945211172374  0.40656845069206327  1.0000
  H   H38       1.0  0.6401974210716473  0.9657658445937403  0.3263681383749527  1.0000
  H   H39       1.0  0.00041819031906699616  0.4049275592857527  0.24070826959704308  1.0000
  H   H40       1.0  0.058504144581689795  0.4783209998803672  0.3189842742586038  1.0000
  H   H41       1.0  0.4728118954824083  0.5046042611571407  0.16635572787952668  1.0000
  H   H42       1.0  0.4130298809747899  0.42972063067278304  0.08839552690798771  1.0000
  H   H43       1.0  0.13701987848578062  0.5155757876525087  0.4009518034852988  1.0000
  H   H44       1.0  0.5189342912321493  0.6212326802393308  0.3335956138104378  1.0000
  H   H45       1.0  0.6828027674670238  0.9501770124373793  0.5836879404267988  1.0000
  H   H46       1.0  0.6875313499705626  0.047763279875439914  0.5576213263008752  1.0000
  C   C1        1.0  0.9422233489778338  0.3677955878221653  0.4866431482014305  1.0000
  C   C2        1.0  0.08524357423221568  0.33208877086570254  0.49155280047111205  1.0000
  C   C3        1.0  0.13402306874017  0.2621168859928176  0.47303377430826987  1.0000
  C   C4        1.0  0.2710058164802192  0.231755175128967  0.47479319915166224  1.0000
  C   C5        1.0  0.3586927511469966  0.27214945205336966  0.49456268858576635  1.0000
  C   C6        1.0  0.31026905921866893  0.3423419000107657  0.5130950432742836  1.0000
  C   C7        1.0  0.1726000798118648  0.37136789967986067  0.5127296603094891  1.0000
  C   C8        1.0  0.3221842353540794  0.15551002847284678  0.45657062518807107  1.0000
  C   C9        1.0  0.4056639475646691  0.3892768251479383  0.5283250950093218  1.0000
  C   C10       1.0  0.746256912397712  0.4966391688571364  0.2920033120669955  1.0000
  C   C11       1.0  0.7017101099394338  0.3709106620738822  0.3476086727779446  1.0000
  C   C12       1.0  0.7588002298994779  0.510720280755976  0.14591298604162972  1.0000
  C   C13       1.0  0.7964371022822974  0.4649984689126186  0.0948300785100002  1.0000
  C   C14       1.0  0.819693319877956  0.5045770232839004  0.009539741383697689  1.0000
  C   C15       1.0  0.8046999804980928  0.5902358864714259  0.9736659577087179  1.0000
  C   C16       1.0  0.763220109437114  0.6352642699650773  0.025902949317981008  1.0000
  C   C17       1.0  0.740516490496674  0.5959317492757708  0.11154845755556407  1.0000
  C   C18       1.0  0.9087664132437965  0.6989086860453356  0.8441455519775971  1.0000
  C   C19       1.0  0.8993923798831461  0.748876936208994  0.7624290191227842  1.0000
  C   C20       1.0  0.9855417521077429  0.8132742468655182  0.7167951782052454  1.0000
  C   C21       1.0  0.080781444892736  0.8294890933808432  0.7528475300522715  1.0000
  C   C22       1.0  0.08537903851298273  0.7838723959581558  0.8354993215159395  1.0000
  C   C23       1.0  0.00017459484359958396  0.718979282627686  0.8807669700760027  1.0000
  C   C24       1.0  0.25556920983767384  0.9014239838203865  0.6277125039573618  1.0000
  C   C25       1.0  0.3083498321502488  0.985805578448947  0.6715967831734986  1.0000
  C   C26       1.0  0.7973689786586391  0.5872557029654786  0.8407512624019089  1.0000
  C   C27       1.0  0.8963799721360175  0.5728125573525632  0.775882448177633  1.0000
  C   C28       1.0  0.8634262899451384  0.5314179901037338  0.7318910723547986  1.0000
  C   C29       1.0  0.7301282567614535  0.5034109455562115  0.753386165598286  1.0000
  C   C30       1.0  0.630710171303562  0.5166270574411201  0.8185239263070087  1.0000
  C   C31       1.0  0.6645257624036347  0.5587015064716426  0.8615905813343828  1.0000
  C   C32       1.0  0.7615086947521023  0.4611380177194492  0.6321729486675377  1.0000
  C   C33       1.0  0.5670587445649318  0.40766732188691895  0.6685855387683687  1.0000
  C   C34       1.0  0.05778791755084709  0.6322125113818161  0.513354685018349  1.0000
  C   C35       1.0  0.914752289364337  0.6679181286924418  0.5084466015436461  1.0000
  C   C36       1.0  0.8659571254536758  0.7378918664824284  0.5269688493397735  1.0000
  C   C37       1.0  0.7289778952385078  0.7682492859351413  0.5252161361870336  1.0000
  C   C38       1.0  0.6413133942638467  0.7278470336502283  0.505445356185831  1.0000
  C   C39       1.0  0.6897311534264432  0.6576625517958732  0.48690244182174075  1.0000
  C   C40       1.0  0.8274056707248932  0.6286322730059981  0.48726365319099324  1.0000
  C   C41       1.0  0.6778063347240675  0.8444870931071337  0.5434371943019726  1.0000
  C   C42       1.0  0.5943148325268695  0.6107251930233563  0.47168923292785064  1.0000
  C   C43       1.0  0.25374193014216934  0.5033573475426537  0.7079912872852673  1.0000
  C   C44       1.0  0.2982734462711392  0.6290834304673326  0.6523890628575798  1.0000
  C   C45       1.0  0.24119926854231732  0.4892805094004231  0.8540826643104465  1.0000
  C   C46       1.0  0.20356562718461646  0.5350010887707202  0.9051694791238134  1.0000
  C   C47       1.0  0.18031654578418707  0.4954237438537988  0.9904605510631015  1.0000
  C   C48       1.0  0.195302746465174  0.40976367200880054  0.026333042769188394  1.0000
  C   C49       1.0  0.23678267833120972  0.3647346756118921  0.9740973920599743  1.0000
  C   C50       1.0  0.25948417103419535  0.40406781125814467  0.8884513974022923  1.0000
  C   C51       1.0  0.09122896434777772  0.30109210503086814  0.15585403595797226  1.0000
  C   C52       1.0  0.1006072476796973  0.251122625750206  0.23757098449708983  1.0000
  C   C53       1.0  0.014457761355920693  0.18672653850953225  0.28320381508224557  1.0000
  C   C54       1.0  0.9192189909434277  0.1705129131878707  0.2471508613967187  1.0000
  C   C55       1.0  0.9146216155069453  0.21612716696643022  0.16449886197420943  1.0000
  C   C56       1.0  0.999823940449808  0.28102089286318244  0.1192323984617474  1.0000
  C   C57       1.0  0.7444366698201321  0.09857496066827315  0.3722851628109183  1.0000
  C   C58       1.0  0.6916527832174921  0.014195202650235201  0.3284017641279319  1.0000
  C   C59       1.0  0.20262720219896824  0.412747534314029  0.1592455990509691  1.0000
  C   C60       1.0  0.1036165460118141  0.4271870112731833  0.22411632996059436  1.0000
  C   C61       1.0  0.1365725218334433  0.4685791296366234  0.2681088719682521  1.0000
  C   C62       1.0  0.26987034935159937  0.4965886138438196  0.24661677246312033  1.0000
  C   C63       1.0  0.36929060432647276  0.48337127967694477  0.18147693898323064  1.0000
  C   C64       1.0  0.3354725979855502  0.4413005053383331  0.13840643597093555  1.0000
  C   C65       1.0  0.23848740205009014  0.5388664334132116  0.36782958832379364  1.0000
  C   C66       1.0  0.4329310268190056  0.5923383636040002  0.33141520839499355  1.0000
  N   N1        1.0  0.7220957020091417  0.43589604063113546  0.3654152888139277  1.0000
  N   N2        1.0  0.739463363474613  0.46899843219175363  0.2326076957861999  1.0000
  N   N3        1.0  0.7114637400827634  0.3879925012644563  0.26772644195857953  1.0000
  N   N4        1.0  0.830634258459092  0.6290235408541068  0.8865341709730216  1.0000
  N   N5        1.0  0.17747990419075424  0.8903432635942253  0.7044430444726896  1.0000
  N   N6        1.0  0.21112668290933098  0.9437269576300766  0.7337585058026332  1.0000
  N   N7        1.0  0.3390753926589198  0.9618054675404509  0.6050384545017166  1.0000
  N   N8        1.0  0.6826316045118191  0.42659311270111283  0.6060256772834903  1.0000
  N   N9        1.0  0.693357013658364  0.46408156917426174  0.7069542488858004  1.0000
  N   N10       1.0  0.5683630162510197  0.42957248257688013  0.7309759107760739  1.0000
  N   N11       1.0  0.27789174363211083  0.5641010923967259  0.6345879622590473  1.0000
  N   N12       1.0  0.26053678200751307  0.5309950294229182  0.7673856592216309  1.0000
  N   N13       1.0  0.28852784715542157  0.6120040306905993  0.7322652979365002  1.0000
  N   N14       1.0  0.16936317955759247  0.37097724976219854  0.11346344817079766  1.0000
  N   N15       1.0  0.8225216189075514  0.10965813103661763  0.29555486774661677  1.0000
  N   N16       1.0  0.7888748959867371  0.056273825691285105  0.2662396330049077  1.0000
  N   N17       1.0  0.6609326207472819  0.03819285960058492  0.3949613701543838  1.0000
  N   N18       1.0  0.3173718091146611  0.5734101161951487  0.39396902922344873  1.0000
  N   N19       1.0  0.3066331658354429  0.5359198315720662  0.2930519844865599  1.0000
  N   N20       1.0  0.43162579198453704  0.570432588248501  0.26902855457296226  1.0000
  O   O1        1.0  0.8417429584229055  0.3228359070404069  0.5065415998045424  1.0000
  O   O2        1.0  0.9226421813616312  0.44618960850636585  0.4617501947430681  1.0000
  O   O3        1.0  0.250196299444724  0.13043956817895722  0.42274799917414196  1.0000
  O   O4        1.0  0.43564602619281356  0.12059404159531793  0.4776444854791748  1.0000
  O   O5        1.0  0.35460387720395653  0.44846820483518013  0.5527983268806124  1.0000
  O   O6        1.0  0.5338954945098353  0.36750925430992254  0.5161979035229151  1.0000
  O   O7        1.0  0.37631139529311497  0.9958268329628838  0.41952504610588187  1.0000
  O   O8        1.0  0.15828213276347466  0.6771678968591317  0.4934542154589605  1.0000
  O   O9        1.0  0.0773927072667746  0.5538196956758556  0.538233180111625  1.0000
  O   O10       1.0  0.7498131893043195  0.8695538686547482  0.5772523752140514  1.0000
  O   O11       1.0  0.56435452374253  0.8794067415575528  0.5223549163021984  1.0000
  O   O12       1.0  0.6453711389212983  0.5515411509350516  0.44721539945144406  1.0000
  O   O13       1.0  0.4660513528324445  0.6324799775498064  0.48382203986062666  1.0000
  O   O14       1.0  0.6236976138088721  0.004172098484104901  0.5804783033912742  1.0000
