data_image0
_chemical_formula_structural       Cu4H8C8I4N4
_chemical_formula_sum              "Cu4 H8 C8 I4 N4"
_cell_length_a       4.0564484673456915
_cell_length_b       6.938077838779212
_cell_length_c       14.906985362479665
_cell_angle_alpha    89.99943687918068
_cell_angle_beta     89.99938849345014
_cell_angle_gamma    98.40279271920917

_space_group_name_H-M_alt    "P 1"
_space_group_IT_number       1

loop_
  _space_group_symop_operation_xyz
  'x, y, z'

loop_
  _atom_site_type_symbol
  _atom_site_label
  _atom_site_symmetry_multiplicity
  _atom_site_fract_x
  _atom_site_fract_y
  _atom_site_fract_z
  _atom_site_occupancy
  Cu  Cu1       1.0  0.7527005982820897  6.458721763640229e-05  0.5562186902430355  1.0000
  Cu  Cu2       1.0  0.7527059857595474  6.84364831684995e-05  0.9437812898874469  1.0000
  Cu  Cu3       1.0  0.24730637151096604  0.9999320294202577  0.4437813318246029  1.0000
  Cu  Cu4       1.0  0.2473370280336269  0.9999459434864167  0.0562173904363092  1.0000
  H   H1        1.0  0.8892275598686437  0.9429238584851805  0.7500014033374144  1.0000
  H   H2        1.0  0.1107808689816494  0.057090218113543804  0.2499966062102743  1.0000
  H   H3        1.0  0.5763190062174528  0.39455947837539906  0.6046738800183107  1.0000
  H   H4        1.0  0.576322667915683  0.39456890486644625  0.8953309038493344  1.0000
  H   H5        1.0  0.4236323059337507  0.6054308342870273  0.3953288254489991  1.0000
  H   H6        1.0  0.42370141611652906  0.6054380393854045  0.10466978899737002  1.0000
  H   H7        1.0  0.4706887859944189  0.5657455907177822  0.749998811948224  1.0000
  H   H8        1.0  0.5292625261722392  0.43424472195329866  0.2500032226926407  1.0000
  C   C1        1.0  0.791201697342316  0.08152613488865511  0.749998077963312  1.0000
  C   C2        1.0  0.20881202872725171  0.918467633218903  0.24999724831578618  1.0000
  C   C3        1.0  0.620259119832582  0.332811929237252  0.6701519807679546  1.0000
  C   C4        1.0  0.6202583878627904  0.3328229803444814  0.8298388619076106  1.0000
  C   C5        1.0  0.3797297534573331  0.6671699894287431  0.3298440163994414  1.0000
  C   C6        1.0  0.37975780820548266  0.667170809233994  0.1701718933761356  1.0000
  C   C7        1.0  0.5614626836959004  0.42555155071379863  0.7499902700469647  1.0000
  C   C8        1.0  0.4385195827873005  0.5744448493542509  0.2499996896599725  1.0000
  I   I1        1.0  0.816756547403024  0.24567902904771438  0.4226759650449949  1.0000
  I   I2        1.0  0.8167806358460722  0.24568944162296455  0.077322436089247  1.0000
  I   I3        1.0  0.1832417016010055  0.7543116954132856  0.5773213737423929  1.0000
  I   I4        1.0  0.18322270296517468  0.7543129588419858  0.9226802692766327  1.0000
  N   N1        1.0  0.7357945434452231  0.15975823424697927  0.6701810420574433  1.0000
  N   N2        1.0  0.7358035736916475  0.15973593120587273  0.829823648711269  1.0000
  N   N3        1.0  0.26418885440084944  0.8402541688430388  0.3298176383563529  1.0000
  N   N4        1.0  0.26421161114151187  0.8402752966980956  0.1701824107503427  1.0000
