data_image0
_chemical_formula_structural       Ba2H28C24N4O16
_chemical_formula_sum              "Ba2 H28 C24 N4 O16"
_cell_length_a       7.049460014597046
_cell_length_b       7.4993575849579965
_cell_length_c       15.429315616311957
_cell_angle_alpha    93.80736997983873
_cell_angle_beta     102.32851699496734
_cell_angle_gamma    98.76214726560904

_space_group_name_H-M_alt    "P 1"
_space_group_IT_number       1

loop_
  _space_group_symop_operation_xyz
  'x, y, z'

loop_
  _atom_site_type_symbol
  _atom_site_label
  _atom_site_symmetry_multiplicity
  _atom_site_fract_x
  _atom_site_fract_y
  _atom_site_fract_z
  _atom_site_occupancy
  Ba  Ba1       1.0  0.7835377104520376  0.5276703828860223  0.5594933097296035  1.0000
  Ba  Ba2       1.0  0.21646567120095034  0.47232700683354534  0.4405097125166932  1.0000
  H   H1        1.0  0.4953172845995297  0.13233434920878304  0.4441132680410078  1.0000
  H   H2        1.0  0.5046844199585508  0.8676699519089727  0.5558866465529917  1.0000
  H   H3        1.0  0.4780129921064713  0.14925300158989072  0.5446050930336241  1.0000
  H   H4        1.0  0.521989998750783  0.8507418152021063  0.4553951835426204  1.0000
  H   H5        1.0  0.9562177742401019  0.8444937448787755  0.4352717553107298  1.0000
  H   H6        1.0  0.043772337870272786  0.1554939581172903  0.5647301521320431  1.0000
  H   H7        1.0  0.10618214083585542  0.8680198029612999  0.5300033107121039  1.0000
  H   H8        1.0  0.8938142439888069  0.13197894520945402  0.46999712048624803  1.0000
  H   H9        1.0  0.7211749901393816  0.20797514762372063  0.6894481312297246  1.0000
  H   H10       1.0  0.2788277517987794  0.79202743698572  0.3105589444820751  1.0000
  H   H11       1.0  0.8334949651211048  0.3565443893541485  0.7655300566822305  1.0000
  H   H12       1.0  0.16649918729302726  0.6434592563686649  0.23447944108719548  1.0000
  H   H13       1.0  0.9852596015670514  0.9177566107635331  0.6748723217923072  1.0000
  H   H14       1.0  0.014746240067815105  0.08224639533525392  0.32512795319843235  1.0000
  H   H15       1.0  0.7637857229679099  0.9139851454928093  0.6806826638728936  1.0000
  H   H16       1.0  0.23621622840486367  0.08602054600049058  0.31931668826207743  1.0000
  H   H17       1.0  0.8934327548571659  0.3326035183581268  0.22355108331418452  1.0000
  H   H18       1.0  0.10656855971408422  0.6673816697168108  0.7764511951812028  1.0000
  H   H19       1.0  0.2992084535860328  0.4061649547274656  0.2189240505402452  1.0000
  H   H20       1.0  0.7008012007812425  0.5938434801667823  0.7810774954616306  1.0000
  H   H21       1.0  0.21550130825198008  0.31329603049552907  0.05556408778423359  1.0000
  H   H22       1.0  0.7845005402871408  0.6867094531742524  0.9444391349388541  1.0000
  H   H23       1.0  0.18532435087024623  0.30479143717075635  0.9243656427285103  1.0000
  H   H24       1.0  0.8146788949667184  0.6952130573730458  0.07563119405397604  1.0000
  H   H25       1.0  0.12203670120060646  0.20233607630093792  0.763323171716877  1.0000
  H   H26       1.0  0.8779575724816128  0.7976751938049207  0.23667046411845402  1.0000
  H   H27       1.0  0.6920941088790897  0.03681258347197769  0.814412189693279  1.0000
  H   H28       1.0  0.3078894588849437  0.9631782839978771  0.18557882306629384  1.0000
  C   C1        1.0  0.7428184854809247  0.3346643369226144  0.18716477092009853  1.0000
  C   C2        1.0  0.2571850161446534  0.6653332952577317  0.8128337356400692  1.0000
  C   C3        1.0  0.6045027412615696  0.3828595642219241  0.2338112631806055  1.0000
  C   C4        1.0  0.3955033390229659  0.6171365448761535  0.7661913266858421  1.0000
  C   C5        1.0  0.6600927685175932  0.4389524555196831  0.3324118872726204  1.0000
  C   C6        1.0  0.3399126570175781  0.5610396556380339  0.667589164480816  1.0000
  C   C7        1.0  0.4120921973575165  0.3760582277350863  0.1844983356806793  1.0000
  C   C8        1.0  0.5879136099994681  0.6239447090891942  0.8155032295060991  1.0000
  C   C9        1.0  0.3667880842674052  0.3244172095858532  0.0934082507866378  1.0000
  C   C10       1.0  0.6332219861995724  0.6756021202494724  0.9065925184525412  1.0000
  C   C11       1.0  0.5168376282375888  0.2821758904916223  0.0523265116831482  1.0000
  C   C12       1.0  0.48316559229541406  0.717820282038673  0.9476738475320872  1.0000
  C   C13       1.0  0.4742837441760486  0.22451875939621146  0.9550585505483795  1.0000
  C   C14       1.0  0.5257141326150859  0.7754709200958418  0.04493450145598392  1.0000
  C   C15       1.0  0.2948298470737285  0.24312557585992783  0.8986265147622987  1.0000
  C   C16       1.0  0.7051694570843169  0.7568815001666283  0.10137133445847012  1.0000
  C   C17       1.0  0.2587103498692329  0.18606388565978454  0.8084589117570857  1.0000
  C   C18       1.0  0.7412940443464751  0.813947387575482  0.19153833822035446  1.0000
  C   C19       1.0  0.4029046482759995  0.11185617481946511  0.7754810000869485  1.0000
  C   C20       1.0  0.5970870304172209  0.8881400436161543  0.22451430711156212  1.0000
  C   C21       1.0  0.3691976199210742  0.04945117467519113  0.6790858323538203  1.0000
  C   C22       1.0  0.6307972510330797  0.9505465438900415  0.3209079175467764  1.0000
  C   C23       1.0  0.5777731403825186  0.0988621335817044  0.8367461675871868  1.0000
  C   C24       1.0  0.4222272718157782  0.901134206292568  0.16325002568277822  1.0000
  N   N1        1.0  0.702961704822428  0.2880368593523245  0.09932325251464393  1.0000
  N   N2        1.0  0.29704035019288705  0.7119524998492538  0.9006773386036573  1.0000
  N   N3        1.0  0.6139183800337022  0.1528888443808967  0.923626423854607  1.0000
  N   N4        1.0  0.3860748982247344  0.8471085768465231  0.07637233915156119  1.0000
  O   O1        1.0  0.5359327707625567  0.5045611723839089  0.3685014501497151  1.0000
  O   O2        1.0  0.4640817790734246  0.4954336331400171  0.6315032333452278  1.0000
  O   O3        1.0  0.828669288541235  0.417992773843146  0.37578356263009033  1.0000
  O   O4        1.0  0.1713389534936667  0.5820074573468406  0.6242187777338799  1.0000
  O   O5        1.0  0.1936219424252741  0.015992848189995405  0.6322345540213519  1.0000
  O   O6        1.0  0.8063668422385318  0.9840033644033357  0.36775981272198527  1.0000
  O   O7        1.0  0.5205041103140289  0.033492518945642806  0.6462665729995862  1.0000
  O   O8        1.0  0.47948402566102294  0.9665171412765546  0.3537296149725436  1.0000
  O   O9        1.0  0.48254812054715757  0.21926815626513732  0.49292025657371147  1.0000
  O   O10       1.0  0.5174451062944669  0.7807291610505163  0.5070804417265151  1.0000
  O   O11       1.0  0.0310174060078268  0.77810307745753  0.47980467271701605  1.0000
  O   O12       1.0  0.9689811838190039  0.22189160934063787  0.5201964510195367  1.0000
  O   O13       1.0  0.8390696745726698  0.30545465763221813  0.7067056979132788  1.0000
  O   O14       1.0  0.16092634952533297  0.6945599032714468  0.2933031707720275  1.0000
  O   O15       1.0  0.8669155278192946  0.8391276527170818  0.684507905691632  1.0000
  O   O16       1.0  0.13308427894205008  0.16087395132156954  0.3154910508477897  1.0000
