data_image0
_chemical_formula_structural       K4V4H8C28N8O32
_chemical_formula_sum              "K4 V4 H8 C28 N8 O32"
_cell_length_a       8.546969728814073
_cell_length_b       10.69806787893266
_cell_length_c       11.453228039451
_cell_angle_alpha    90.00846508421083
_cell_angle_beta     96.21476088837177
_cell_angle_gamma    89.99429114522027

_space_group_name_H-M_alt    "P 1"
_space_group_IT_number       1

loop_
  _space_group_symop_operation_xyz
  'x, y, z'

loop_
  _atom_site_type_symbol
  _atom_site_label
  _atom_site_symmetry_multiplicity
  _atom_site_fract_x
  _atom_site_fract_y
  _atom_site_fract_z
  _atom_site_occupancy
  K   K1        1.0  0.2941738624948941  0.4208308522850429  0.39412730719772787  1.0000
  K   K2        1.0  0.705822177575115  0.9208325598116004  0.10585829773920351  1.0000
  K   K3        1.0  0.7058254091920376  0.5791737827467073  0.6058543828061149  1.0000
  K   K4        1.0  0.29419359779897286  0.07918703051554839  0.8941231300557959  1.0000
  V   V1        1.0  0.4117410383535258  0.10663628252274292  0.24592530474627244  1.0000
  V   V2        1.0  0.5882323844097641  0.6066183330605951  0.2541244399262368  1.0000
  V   V3        1.0  0.5882843257723779  0.893359937960248  0.7540465049351327  1.0000
  V   V4        1.0  0.41178679292525544  0.3933806933131121  0.7458651507877435  1.0000
  H   H1        1.0  0.9376408844868037  0.8762660678549494  0.39450472451294166  1.0000
  H   H2        1.0  0.06231503641035369  0.37621956009636637  0.105478911151053  1.0000
  H   H3        1.0  0.062357679743968206  0.12377035200930207  0.6055196900355925  1.0000
  H   H4        1.0  0.9376875646747393  0.6237747935587378  0.8945153018768154  1.0000
  H   H5        1.0  0.39709932163188444  0.7268883778942622  0.5222250339160511  1.0000
  H   H6        1.0  0.6028793764771264  0.22685100980091732  0.9777651013694212  1.0000
  H   H7        1.0  0.6028936475901148  0.273127476316219  0.4777814127658362  1.0000
  H   H8        1.0  0.3971079834813693  0.773141474580306  0.022224249150831106  1.0000
  C   C1        1.0  0.07358920435578399  0.06626623937994218  0.2516456287911737  1.0000
  C   C2        1.0  0.926359840414328  0.5662270660471193  0.24842161210855096  1.0000
  C   C3        1.0  0.9263907181757106  0.9337627022131866  0.7483657586292338  1.0000
  C   C4        1.0  0.0736133407176993  0.4337504631003171  0.7515699559085363  1.0000
  C   C5        1.0  0.1436028385560135  0.9635279866561671  0.33093690914491  1.0000
  C   C6        1.0  0.8563789844303499  0.4635162659457847  0.169069966260686  1.0000
  C   C7        1.0  0.8564046131554263  0.0364803873764856  0.6690490089480293  1.0000
  C   C8        1.0  0.14361987104314264  0.5364603286465338  0.8309370066523133  1.0000
  C   C9        1.0  0.0654562242892425  0.8774869671063287  0.39517993499939774  1.0000
  C   C10       1.0  0.9345065841520039  0.3774542444455236  0.10480711050568203  1.0000
  C   C11       1.0  0.9345429462758617  0.1225232768994857  0.6048078585802801  1.0000
  C   C12       1.0  0.065489758868523  0.6225288942228814  0.8952092420798297  1.0000
  C   C13       1.0  0.16141063177403936  0.7919710547037226  0.46135534276147183  1.0000
  C   C14       1.0  0.8385635165300726  0.29192338120883926  0.03862602572036171  1.0000
  C   C15       1.0  0.8385952390129106  0.2080522772776803  0.5386548833919776  1.0000
  C   C16       1.0  0.16143416191127358  0.7080569524148642  0.9613808416790308  1.0000
  C   C17       1.0  0.3247483991432887  0.7911872568719289  0.4664583968407073  1.0000
  C   C18       1.0  0.6752327044787235  0.291169518857231  0.03353484075199732  1.0000
  C   C19       1.0  0.6752459776160862  0.20882392245121645  0.5335342050969345  1.0000
  C   C20       1.0  0.32477065648303943  0.7088108155435932  0.9664847618532308  1.0000
  C   C21       1.0  0.39132360929564663  0.8827483336493954  0.40106237330263644  1.0000
  C   C22       1.0  0.6086457007795332  0.382738707302323  0.09892599233365472  1.0000
  C   C23       1.0  0.6086769401486195  0.11725443136283077  0.5989133191251313  1.0000
  C   C24       1.0  0.391343611185384  0.6172229322486728  0.9010879805394726  1.0000
  C   C25       1.0  0.5634454731702262  0.9118250896290404  0.3990004660677116  1.0000
  C   C26       1.0  0.43652159779806243  0.41181731455507287  0.10101183945089084  1.0000
  C   C27       1.0  0.436547083990547  0.08816458799986998  0.6009596631281513  1.0000
  C   C28       1.0  0.563460610201396  0.5881396516929768  0.8990041142402846  1.0000
  N   N1        1.0  0.3006610959640099  0.9637016372540399  0.3362528508537324  1.0000
  N   N2        1.0  0.6993173070636373  0.4637024929120486  0.16374588369186682  1.0000
  N   N3        1.0  0.6993498283374961  0.03631234542969959  0.6637368724231153  1.0000
  N   N4        1.0  0.3006697654698415  0.5362778411267184  0.8362609037847407  1.0000
  N   N5        1.0  0.08737860261636848  0.6989160612786448  0.5324597440176646  1.0000
  N   N6        1.0  0.9125937945400224  0.1988356455189687  0.9675171865462178  1.0000
  N   N7        1.0  0.9126116372080445  0.30112316351469554  0.46756916174033586  1.0000
  N   N8        1.0  0.08740394111858758  0.8011521658137184  0.032486193790049404  1.0000
  O   O1        1.0  0.4692647894134724  0.24605722413936354  0.2923849673965009  1.0000
  O   O2        1.0  0.530716504069062  0.7460645703415522  0.20766660635336362  1.0000
  O   O3        1.0  0.5307624675679392  0.7539371289857257  0.7076149540708772  1.0000
  O   O4        1.0  0.4692930422953268  0.25393913111923877  0.7923352169207974  1.0000
  O   O5        1.0  0.456413776365835  0.08239903415243788  0.11210205320414703  1.0000
  O   O6        1.0  0.5435143359053924  0.5824935768259961  0.38791754232941145  1.0000
  O   O7        1.0  0.5436096080870528  0.9176065320897563  0.8878468765013282  1.0000
  O   O8        1.0  0.45647154340756657  0.4175241472499777  0.6120900137085813  1.0000
  O   O9        1.0  0.1821020291739046  0.1391133629648493  0.2155488738769975  1.0000
  O   O10       1.0  0.8178770609227186  0.6390875613985046  0.28452424868368104  1.0000
  O   O11       1.0  0.8179183378118396  0.8609155752448456  0.7844399526509422  1.0000
  O   O12       1.0  0.1821065665385575  0.3609114673049233  0.7154769914143628  1.0000
  O   O13       1.0  0.5844935141036913  0.007986485604760698  0.3304434605356478  1.0000
  O   O14       1.0  0.4154435007056989  0.5079941884835789  0.16957702254190823  1.0000
  O   O15       1.0  0.4155131075977607  0.9920003875952542  0.6695214251073125  1.0000
  O   O16       1.0  0.5845338414210559  0.49196464817620716  0.8304480990045846  1.0000
  O   O17       1.0  0.9305749698834802  0.077447987647588  0.22474332629403196  1.0000
  O   O18       1.0  0.06941553999250519  0.5773811298168425  0.27538333668172754  1.0000
  O   O19       1.0  0.06944757238768769  0.9226052604088651  0.7753277764917642  1.0000
  O   O20       1.0  0.9305845920483762  0.42261602871367626  0.7246176401136283  1.0000
  O   O21       1.0  0.6692639398152167  0.856175395924339  0.45927191541161255  1.0000
  O   O22       1.0  0.3306946258862808  0.3561431686026921  0.0407493215389323  1.0000
  O   O23       1.0  0.3307284737570058  0.1438058696627493  0.5406969321105066  1.0000
  O   O24       1.0  0.6693089240064367  0.6438053834579945  0.9592589444650346  1.0000
  O   O25       1.0  0.9604632937807481  0.7275603485181462  0.567600713308913  1.0000
  O   O26       1.0  0.0394520777637339  0.2274960944972618  0.93229475847582  1.0000
  O   O27       1.0  0.0395354147822857  0.27247046216434967  0.4324149820018377  1.0000
  O   O28       1.0  0.9605609279771696  0.7724907817261197  0.06771174041112718  1.0000
  O   O29       1.0  0.15741741568204762  0.598692143082886  0.5532224249294799  1.0000
  O   O30       1.0  0.8426280694499014  0.0985831773724115  0.946813446832586  1.0000
  O   O31       1.0  0.842580990358364  0.40133960380172345  0.4468115800757035  1.0000
  O   O32       1.0  0.1573685320399392  0.9014149160216288  0.0531872127535067  1.0000
