data_image0
_chemical_formula_structural       V4As2H26C30N6O16
_chemical_formula_sum              "V4 As2 H26 C30 N6 O16"
_cell_length_a       7.867739950150211
_cell_length_b       10.12342536971768
_cell_length_c       12.034910032917965
_cell_angle_alpha    111.89514580613081
_cell_angle_beta     95.28828570250231
_cell_angle_gamma    97.30875724058455

_space_group_name_H-M_alt    "P 1"
_space_group_IT_number       1

loop_
  _space_group_symop_operation_xyz
  'x, y, z'

loop_
  _atom_site_type_symbol
  _atom_site_label
  _atom_site_symmetry_multiplicity
  _atom_site_fract_x
  _atom_site_fract_y
  _atom_site_fract_z
  _atom_site_occupancy
  V   V1        1.0  0.4984687463482018  0.2377601581716816  0.6946604397723134  1.0000
  V   V2        1.0  0.5015345255240434  0.762244601960738  0.3053420826136772  1.0000
  V   V3        1.0  0.08052611847710271  0.1710315298927583  0.3784010408707132  1.0000
  V   V4        1.0  0.9194709412965096  0.8289741762042766  0.6216022402218258  1.0000
  As  As1       1.0  0.7643745958108497  0.058329008388263014  0.5117990713834857  1.0000
  As  As2       1.0  0.2356269137652518  0.9416800444013446  0.48820390826179483  1.0000
  H   H1        1.0  0.0927648266565342  0.2022691995104751  0.7179929373247944  1.0000
  H   H2        1.0  0.9072474496599909  0.7977358419253733  0.2820044101956539  1.0000
  H   H3        1.0  0.5407030529596354  0.3580763753662453  0.9672169456269657  1.0000
  H   H4        1.0  0.4592986138435934  0.641919688219211  0.03278514333027257  1.0000
  H   H5        1.0  0.9057928476461542  0.2670227713733979  0.8768249585196131  1.0000
  H   H6        1.0  0.0942159464972292  0.7329703071953161  0.12317077848632607  1.0000
  H   H7        1.0  0.7704035365669526  0.28865989309272794  0.022113229148438128  1.0000
  H   H8        1.0  0.22959723656054365  0.7113310796733786  0.9778713602480879  1.0000
  H   H9        1.0  0.6153462905759995  0.37783236037071083  0.20328636644095616  1.0000
  H   H10       1.0  0.38465097369465434  0.6221672472219807  0.796696661497954  1.0000
  H   H11       1.0  0.25033903413441994  0.5107495718023356  0.2679772434283264  1.0000
  H   H12       1.0  0.7496582824604587  0.489236716504756  0.7320214003305381  1.0000
  H   H13       1.0  0.46904063334429225  0.1552303622011593  0.35718882745831604  1.0000
  H   H14       1.0  0.5309619738830094  0.844791620954368  0.6428192555609087  1.0000
  H   H15       1.0  0.04501313973867129  0.09897617395371579  0.10479147017989021  1.0000
  H   H16       1.0  0.9549820219502223  0.9010261998068645  0.8952139351285027  1.0000
  H   H17       1.0  0.6553632745985141  0.07275886873244988  0.2009408042241247  1.0000
  H   H18       1.0  0.3446398871892953  0.9272522869776196  0.7990671154582927  1.0000
  H   H19       1.0  0.37754710298438715  0.43431003668793267  0.1408427272097228  1.0000
  H   H20       1.0  0.6224516776457846  0.5656773066684123  0.859158842259859  1.0000
  H   H21       1.0  0.21059091180190853  0.007966573835524599  0.9322623121311581  1.0000
  H   H22       1.0  0.7894033246767692  0.9920238679181141  0.0677424801059133  1.0000
  H   H23       1.0  0.07429296321932813  0.5885702770473672  0.43364253151919735  1.0000
  H   H24       1.0  0.9256931683847683  0.4114245370016646  0.5663523837778826  1.0000
  H   H25       1.0  0.7787081292162628  0.5316838962444236  0.3939259708658013  1.0000
  H   H26       1.0  0.22127757889231955  0.46831541568872126  0.6060604091700624  1.0000
  C   C1        1.0  0.1499420152854753  0.25308238494643837  0.8131974140780828  1.0000
  C   C2        1.0  0.8500721957681635  0.7469193621912069  0.186803966485698  1.0000
  C   C3        1.0  0.3998041296920079  0.34043709746116946  0.9533576802286063  1.0000
  C   C4        1.0  0.600205213245161  0.659559075208932  0.046646575732793745  1.0000
  C   C5        1.0  0.046224173683690105  0.288690616272028  0.9042596227503027  1.0000
  C   C6        1.0  0.9537732786997497  0.7113032970286995  0.09573735405200523  1.0000
  C   C7        1.0  0.1247056901085557  0.35444167090987116  0.02607369692547218  1.0000
  C   C8        1.0  0.8753056137914542  0.6455512899823859  0.9739304654522627  1.0000
  C   C9        1.0  0.3065252001052912  0.38067816243589897  0.04911679555333139  1.0000
  C   C10       1.0  0.6934706367188498  0.6193070213097159  0.9508813984710258  1.0000
  C   C11       1.0  0.024694825834600895  0.3957682971474341  0.12822890500962097  1.0000
  C   C12       1.0  0.9752966031482019  0.6042136719381901  0.8717629878587942  1.0000
  C   C13       1.0  0.8430587635449527  0.35553099058391513  0.11135396615357955  1.0000
  C   C14       1.0  0.15694867088082284  0.644468558904741  0.8886421301374838  1.0000
  C   C15       1.0  0.7549308757965036  0.4020815117241554  0.2091388696044092  1.0000
  C   C16       1.0  0.24505946556742947  0.5979082402177696  0.7908421916691424  1.0000
  C   C17       1.0  0.016121087758818906  0.5210031510329572  0.3411704798541564  1.0000
  C   C18       1.0  0.983865174910285  0.47898533345472316  0.6588157368449004  1.0000
  C   C19       1.0  0.11026571086548392  0.4771522762276845  0.24660106533293197  1.0000
  C   C20       1.0  0.8897313074685514  0.5228393597858485  0.7534009613959469  1.0000
  C   C21       1.0  0.41726465436558163  0.12269973331072488  0.2617952894983944  1.0000
  C   C22       1.0  0.5827379428930043  0.8773082787857404  0.7382065872047646  1.0000
  C   C23       1.0  0.1803647666854715  0.08885585697977659  0.11963787564172178  1.0000
  C   C24       1.0  0.8196356242588649  0.9111401994276206  0.8803633019312188  1.0000
  C   C25       1.0  0.5201241496075042  0.07376718840399119  0.17216267107749417  1.0000
  C   C26       1.0  0.47987395064227917  0.9262373284632518  0.8278469350015244  1.0000
  C   C27       1.0  0.2741849450628564  0.038473029416088884  0.024736730847216396  1.0000
  C   C28       1.0  0.7258073304529873  0.9615206241153942  0.9752681549735271  1.0000
  C   C29       1.0  0.44861416169097623  0.0280336332524627  0.049552213800147606  1.0000
  C   C30       1.0  0.5513861925373434  0.9719623076264198  0.9504547410505991  1.0000
  N   N1        1.0  0.3242438180122633  0.278215576264401  0.8370157705093533  1.0000
  N   N2        1.0  0.6757507843925552  0.7217836703866568  0.16298276649438045  1.0000
  N   N3        1.0  0.8424777340031255  0.48534295964372387  0.32038607620193466  1.0000
  N   N4        1.0  0.1575225993082228  0.5146596573820403  0.6796122454134303  1.0000
  N   N5        1.0  0.24893734188172092  0.12884947030525498  0.2360626424912979  1.0000
  N   N6        1.0  0.7510601099801448  0.8711583810463992  0.7639421912778843  1.0000
  O   O1        1.0  0.6092120664469932  0.1658345299857871  0.5510225829156212  1.0000
  O   O2        1.0  0.3907943007552959  0.8341800642632222  0.4489791719828417  1.0000
  O   O3        1.0  0.9530692345556204  0.16162678976837697  0.5070150844849977  1.0000
  O   O4        1.0  0.04693933941889129  0.8383790799556294  0.49299144711379483  1.0000
  O   O5        1.0  0.8136937426465352  0.9929473057421061  0.6206177064187556  1.0000
  O   O6        1.0  0.1863064858255328  0.0070617233653678  0.3793851871676353  1.0000
  O   O7        1.0  0.6892916887094316  0.9277052634216716  0.37071867992906954  1.0000
  O   O8        1.0  0.31071670233382775  0.0722995749352009  0.6292850120179025  1.0000
  O   O9        1.0  0.6551642687346941  0.25783353245471824  0.8023446758764265  1.0000
  O   O10       1.0  0.3448400069613342  0.7421766650825674  0.19765801423686466  1.0000
  O   O11       1.0  0.47773651990359406  0.39595092258032577  0.6917790848164884  1.0000
  O   O12       1.0  0.5222616380427925  0.6040537758317157  0.3082214426831271  1.0000
  O   O13       1.0  0.1816215084741941  0.3393599486062299  0.4488267909473294  1.0000
  O   O14       1.0  0.8183900407772317  0.66064817975294  0.5511781641442894  1.0000
  O   O15       1.0  0.9223622817880681  0.1581137269404564  0.2742590208177802  1.0000
  O   O16       1.0  0.07763419719929492  0.8419027240816775  0.7257485502385707  1.0000
