data_image0
_chemical_formula_structural       Zn2B2H18C4N22Cl2
_chemical_formula_sum              "Zn2 B2 H18 C4 N22 Cl2"
_cell_length_a       4.649269963024522
_cell_length_b       9.785464361016874
_cell_length_c       11.71160963504405
_cell_angle_alpha    90.00002935674289
_cell_angle_beta     90.00031097240752
_cell_angle_gamma    90.00020906982805

_space_group_name_H-M_alt    "P 1"
_space_group_IT_number       1

loop_
  _space_group_symop_operation_xyz
  'x, y, z'

loop_
  _atom_site_type_symbol
  _atom_site_label
  _atom_site_symmetry_multiplicity
  _atom_site_fract_x
  _atom_site_fract_y
  _atom_site_fract_z
  _atom_site_occupancy
  Zn  Zn1       1.0  0.9799781040753076  0.5000029098456833  0.743213248481183  1.0000
  Zn  Zn2       1.0  0.020019656064178496  0.4999957876855063  0.24321519287019558  1.0000
  B   B1        1.0  0.5387212234742051  3.7409202064999996e-06  0.6384610649535603  1.0000
  B   B2        1.0  0.461275096690443  0.9999948868149102  0.1384658581192681  1.0000
  H   H1        1.0  0.6397497533486745  0.5840201445193641  0.900736934866771  1.0000
  H   H2        1.0  0.36025232310606015  0.4159807018207288  0.400739575456484  1.0000
  H   H3        1.0  0.6397469509117569  0.4159831521630862  0.9007343404462915  1.0000
  H   H4        1.0  0.3602551255018938  0.5840176941750171  0.400736192901789  1.0000
  H   H5        1.0  0.7970070078494801  4.988096421199999e-06  0.6490738880279778  1.0000
  H   H6        1.0  0.2029873073213793  0.9999967124789317  0.14907556616808654  1.0000
  H   H7        1.0  0.4653197688940479  5.688627226199999e-06  0.5390100964414088  1.0000
  H   H8        1.0  0.5346816367833115  0.9999959386201309  0.0390141930457091  1.0000
  H   H9        1.0  0.939674406392328  0.7125793304514615  0.5365806766698213  1.0000
  H   H10       1.0  0.060316211522618284  0.2874212732447177  0.0365868935523608  1.0000
  H   H11       1.0  0.9396792105639663  0.28742730429625124  0.5365840089583287  1.0000
  H   H12       1.0  0.06032216176276959  0.7125732994108701  0.0365886843969534  1.0000
  H   H13       1.0  0.15745508723874477  0.8500917928929824  0.4970276592092588  1.0000
  H   H14       1.0  0.8425397093870686  0.1499091175985825  0.9970295526743058  1.0000
  H   H15       1.0  0.15745667416036468  0.14991551640652287  0.4970309377181437  1.0000
  H   H16       1.0  0.8425467260174742  0.8500833502474593  0.9970348127101971  1.0000
  H   H17       1.0  0.9111537363348814  0.49999985728638296  0.9602115275896281  1.0000
  H   H18       1.0  0.08884700682273208  0.5000020506038895  0.4602136194626425  1.0000
  C   C1        1.0  0.23114057006135627  0.774036243962719  0.6557787453863426  1.0000
  C   C2        1.0  0.7688516863960047  0.22596035145930668  0.1557821872364826  1.0000
  C   C3        1.0  0.23114059588016997  0.2259702756912603  0.6557794920752684  1.0000
  C   C4        1.0  0.7688473588482695  0.7740304074229981  0.1557822943973406  1.0000
  N   N1        1.0  0.48713685711891225  0.8329882381924986  0.8055261671241923  1.0000
  N   N2        1.0  0.5128660613888344  0.16701152278665177  0.3055307450827414  1.0000
  N   N3        1.0  0.4871321240320228  0.16701779881228868  0.8055277446074669  1.0000
  N   N4        1.0  0.5128643418654732  0.8329829840858094  0.3055308752999437  1.0000
  N   N5        1.0  0.11819306789099931  0.7706525218265764  0.5503763742788763  1.0000
  N   N6        1.0  0.8818235500945873  0.22934604723269553  0.0503723748238087  1.0000
  N   N7        1.0  0.11818881818258829  0.22935577752949843  0.550373706872449  1.0000
  N   N8        1.0  0.8818148945514038  0.7706489230610174  0.050371626803226405  1.0000
  N   N9        1.0  0.7709764243483903  0.5000027801449746  0.8924256481349602  1.0000
  N   N10       1.0  0.2290255378461907  0.4999980606568927  0.3924271865306252  1.0000
  N   N11       1.0  0.41481522091871165  0.8699419303677868  0.6967195331445524  1.0000
  N   N12       1.0  0.585186201846561  0.1300557142647776  0.19672339776922604  1.0000
  N   N13       1.0  0.41481450302023154  0.13006390997936282  0.6967219500343873  1.0000
  N   N14       1.0  0.5851761654471089  0.8699419100375249  0.19672781169823136  1.0000
  N   N15       1.0  0.19147433264323147  0.6800611366869163  0.7386400528675025  1.0000
  N   N16       1.0  0.8085362698773365  0.3199365358842669  0.2386419087787317  1.0000
  N   N17       1.0  0.191470785484178  0.31994537007461327  0.7386433978637541  1.0000
  N   N18       1.0  0.8085333644670741  0.6800502586463394  0.23864795616471923  1.0000
  N   N19       1.0  0.3519132146565624  0.721927483595948  0.8300256217531441  1.0000
  N   N20       1.0  0.6480921915188348  0.27807331563321463  0.33003053290793366  1.0000
  N   N21       1.0  0.3519071919439654  0.2780783375753017  0.8300272426669578  1.0000
  N   N22       1.0  0.6480939124728736  0.7219204178023516  0.3300289119891033  1.0000
  Cl  Cl1       1.0  0.7001180328182527  0.5000036391659248  0.5860236247610757  1.0000
  Cl  Cl2       1.0  0.29988401912616075  0.49999597555877523  0.08602702270100342  1.0000
