data_image0
_chemical_formula_structural       Cd2H44C64N8O14
_chemical_formula_sum              "Cd2 H44 C64 N8 O14"
_cell_length_a       10.408419981233406
_cell_length_b       11.806912422643121
_cell_length_c       13.73
_cell_angle_alpha    76.29050586193067
_cell_angle_beta     73.00579931892493
_cell_angle_gamma    64.78431067827695

_space_group_name_H-M_alt    "P 1"
_space_group_IT_number       1

loop_
  _space_group_symop_operation_xyz
  'x, y, z'

loop_
  _atom_site_type_symbol
  _atom_site_label
  _atom_site_symmetry_multiplicity
  _atom_site_fract_x
  _atom_site_fract_y
  _atom_site_fract_z
  _atom_site_occupancy
  Cd  Cd1       1.0  0.9876123462043367  0.9859570028283287  0.21367095682844434  1.0000
  Cd  Cd2       1.0  0.0123868542072429  0.0140428141892599  0.7863294032932161  1.0000
  H   H1        1.0  0.7212263012094625  0.2948490563452353  0.9038126845830945  1.0000
  H   H2        1.0  0.27877030311032064  0.7051498164906675  0.0961891715078664  1.0000
  H   H3        1.0  0.07979921700559339  0.24930739698903176  0.4377365088930176  1.0000
  H   H4        1.0  0.9202092738129509  0.7506895874835067  0.5622594567329458  1.0000
  H   H5        1.0  0.4627437113436415  0.9975440004569549  0.2233963982182558  1.0000
  H   H6        1.0  0.5372615965480564  0.0024510956522121  0.7766086691496386  1.0000
  H   H7        1.0  0.4631927631233808  0.7941493262260336  0.0007407975688451232  1.0000
  H   H8        1.0  0.5368054326598255  0.20585049079156192  0.9992634268062801  1.0000
  H   H9        1.0  0.7296646669640124  0.7300762129538256  0.9408982390469092  1.0000
  H   H10       1.0  0.2703311017691234  0.2699245482454486  0.05910341732690225  1.0000
  H   H11       1.0  0.8647573606780341  0.7950198617388723  0.027923343063385175  1.0000
  H   H12       1.0  0.1352399995185181  0.20498184364208777  0.9720755832697635  1.0000
  H   H13       1.0  0.022151218198153796  0.2415254515477656  0.2063583433985059  1.0000
  H   H14       1.0  0.9778535028585013  0.7584687003797157  0.7936412197638701  1.0000
  H   H15       1.0  0.9500173995297985  0.4649575494810065  0.12019998796600356  1.0000
  H   H16       1.0  0.04998447668345557  0.5350384908098462  0.8798005489970749  1.0000
  H   H17       1.0  0.8084469810096451  0.5318594310791056  0.982829083614078  1.0000
  H   H18       1.0  0.19155347278190496  0.4681375533934329  0.017171576083299608  1.0000
  H   H19       1.0  0.8246309903484317  0.1518640704517722  0.029918665514138385  1.0000
  H   H20       1.0  0.17536703639304815  0.8481338582024448  0.9700823395104055  1.0000
  H   H21       1.0  0.49232947148817635  0.6994800054769854  0.778276047445779  1.0000
  H   H22       1.0  0.5076674709150453  0.3005226440856532  0.2217213223645587  1.0000
  H   H23       1.0  0.33251894821244593  0.7265685779969857  0.6630424558188324  1.0000
  H   H24       1.0  0.6674830970425276  0.2734293506572385  0.3369525605094026  1.0000
  H   H25       1.0  0.49227714348015894  0.3229913356248133  0.6746467922194768  1.0000
  H   H26       1.0  0.5077142686560379  0.6770056488477252  0.3253602408064253  1.0000
  H   H27       1.0  0.6515229693903279  0.2957894613027108  0.7879040489174186  1.0000
  H   H28       1.0  0.34846836303598383  0.7042122440782492  0.21209912630141056  1.0000
  H   H29       1.0  0.2915585924449714  0.5030052388096351  0.4271660911411175  1.0000
  H   H30       1.0  0.708441194801658  0.4969955223896392  0.5728332181969904  1.0000
  H   H31       1.0  0.15247586925301704  0.3826815575189144  0.4200444180112868  1.0000
  H   H32       1.0  0.8475229133652321  0.6173192036803599  0.5799529289233261  1.0000
  H   H33       1.0  0.06566324171257779  0.2995642996761845  0.7515648454455217  1.0000
  H   H34       1.0  0.9343373811206989  0.7004345731597255  0.24843320694548507  1.0000
  H   H35       1.0  0.21011695552169843  0.41958773119132786  0.7572386649229657  1.0000
  H   H36       1.0  0.7898818270965505  0.5804130300079464  0.24276013867589083  1.0000
  H   H37       1.0  0.6206182573045496  0.104837213306304  0.5796814538509096  1.0000
  H   H38       1.0  0.37938387728227235  0.895167324619706  0.4203216640062736  1.0000
  H   H39       1.0  0.7550114500263162  0.2107574030044006  0.6248745303242347  1.0000
  H   H40       1.0  0.2449923653557704  0.7892546883750811  0.3751215773751966  1.0000
  H   H41       1.0  0.07340909064994608  0.1134377642677791  0.34323933058416156  1.0000
  H   H42       1.0  0.9265943770267312  0.8865592202047594  0.6567599330024975  1.0000
  H   H43       1.0  0.7156689381585865  0.0179205683663142  0.4092799252491233  1.0000
  H   H44       1.0  0.2843289291631308  0.982086802104746  0.5907213758145886  1.0000
  C   C1        1.0  0.7564324720314984  0.9396430028544387  0.1786843618056935  1.0000
  C   C2        1.0  0.24357241806686863  0.0603530374364141  0.8213147790466735  1.0000
  C   C3        1.0  0.6729894444242956  0.8979215025925456  0.13166542323171632  1.0000
  C   C4        1.0  0.3270115962023041  0.1020764260616716  0.8683356423463451  1.0000
  C   C5        1.0  0.5219852093258622  0.9363081531458094  0.1634023790418624  1.0000
  C   C6        1.0  0.478018258350815  0.0636888313267292  0.8366005262053946  1.0000
  C   C7        1.0  0.446369244634532  0.8979422745895959  0.11700320308609244  1.0000
  C   C8        1.0  0.5536313781987445  0.1020565982463069  0.8829999476297488  1.0000
  C   C9        1.0  0.28564061221264575  0.935721816319912  0.15294129600425774  1.0000
  C   C10       1.0  0.7143595928273072  0.0642780006976764  0.8470610265208975  1.0000
  C   C11       1.0  0.522512609594635  0.822509711474659  0.03751232594170516  1.0000
  C   C12       1.0  0.4774851683952407  0.1774910497246154  0.9624910702427274  1.0000
  C   C13       1.0  0.6727980092462361  0.7854751290931858  0.004745026990505576  1.0000
  C   C14       1.0  0.32720018653696314  0.2145246879244027  0.9952555557240218  1.0000
  C   C15       1.0  0.747648757439883  0.8220376206325568  0.05231857792495019  1.0000
  C   C16       1.0  0.2523504429716965  0.1779621963850389  0.9476825105288285  1.0000
  C   C17       1.0  0.9575005273447771  0.2755650896269231  0.14823776738072786  1.0000
  C   C18       1.0  0.04250193570352678  0.7244318948456154  0.8517595338024435  1.0000
  C   C19       1.0  0.9182553075745403  0.3986958230648057  0.09932741064372407  1.0000
  C   C20       1.0  0.08174958252382675  0.6013002172260471  0.9006717302086358  1.0000
  C   C21       1.0  0.8413604143680046  0.4361949428349093  0.022014403040330394  1.0000
  C   C22       1.0  0.1586416308869687  0.563802985819315  0.9779835266163843  1.0000
  C   C23       1.0  0.8067376953197963  0.3471236752915488  0.994285210098326  1.0000
  C   C24       1.0  0.19326234067843026  0.6528742533626755  0.00571389307624056  1.0000
  C   C25       1.0  0.8488240413035298  0.224431042155139  0.04878413556023284  1.0000
  C   C26       1.0  0.15117557690137326  0.775567830680771  0.9512155960878772  1.0000
  C   C27       1.0  0.6756853484167493  0.4872100234144767  0.8595134274199127  1.0000
  C   C28       1.0  0.32430958472973265  0.5127926261481619  0.1404880292367564  1.0000
  C   C29       1.0  0.5820632867063082  0.4957983000140587  0.79178273479922  1.0000
  C   C30       1.0  0.4179316464401738  0.5042043495485871  0.20821872185744883  1.0000
  C   C31       1.0  0.49195367991045896  0.6172899340481521  0.7553932916022674  1.0000
  C   C32       1.0  0.5080432624927624  0.3827127155144936  0.244607719868668  1.0000
  C   C33       1.0  0.4029075393343433  0.6328849829262566  0.6910728649990149  1.0000
  C   C34       1.0  0.5970898208622089  0.3671167224547034  0.3089253330020156  1.0000
  C   C35       1.0  0.4045430334944201  0.5267627383477418  0.6616190315473176  1.0000
  C   C36       1.0  0.5954549932470599  0.4732351903064824  0.33838051681298953  1.0000
  C   C37       1.0  0.49215913615736895  0.40515308160311747  0.6977059105232897  1.0000
  C   C38       1.0  0.5078360457407171  0.5948467354144711  0.3022967966340814  1.0000
  C   C39       1.0  0.5802678198092294  0.3905777489439615  0.7626220004901684  1.0000
  C   C40       1.0  0.41972719304713013  0.6094201797102556  0.23737967231297571  1.0000
  C   C41       1.0  0.2570093365249236  0.469583095551954  0.5922451704931291  1.0000
  C   C42       1.0  0.7429888592582826  0.5304167214656346  0.40775468388928005  1.0000
  C   C43       1.0  0.2428183486318146  0.4569338935285856  0.4975311165505829  1.0000
  C   C44       1.0  0.7571808517797577  0.543065923489003  0.5024670585747231  1.0000
  C   C45       1.0  0.16459144630693592  0.3876224602723823  0.4950995664674167  1.0000
  C   C46       1.0  0.8354101811547138  0.6123764125635205  0.5048989916628415  1.0000
  C   C47       1.0  0.09911492091919173  0.3310895819302857  0.586607893525688  1.0000
  C   C48       1.0  0.9008867065424582  0.6689092909056242  0.4133892079403338  1.0000
  C   C49       1.0  0.1162004094640423  0.3438360346671274  0.6808144785685926  1.0000
  C   C50       1.0  0.8838006311625577  0.6561618939870968  0.3191851303452323  1.0000
  C   C51       1.0  0.19580316588485394  0.4113912899906964  0.6841381388485246  1.0000
  C   C52       1.0  0.8041964523200491  0.5886075828452064  0.3158601361353491  1.0000
  C   C53       1.0  0.005699873856997307  0.2629545990526054  0.5916025766893186  1.0000
  C   C54       1.0  0.9943049365314918  0.7370461621466688  0.40839124969173213  1.0000
  C   C55       1.0  0.719745550097393  0.11127464402925108  0.5278460191205384  1.0000
  C   C56       1.0  0.28025775815952164  0.8887317822601233  0.47215718216587993  1.0000
  C   C57       1.0  0.7935943134197245  0.1704691705391426  0.5536124734974663  1.0000
  C   C58       1.0  0.20641024821716053  0.8295344232051818  0.4463815590471257  1.0000
  C   C59       1.0  0.9214742597593073  0.1758481735940904  0.4855099374946263  1.0000
  C   C60       1.0  0.07852728799246485  0.824155420150241  0.514488404489164  1.0000
  C   C61       1.0  0.9701512458130779  0.11874406533303979  0.3959971248097887  1.0000
  C   C62       1.0  0.029853982368741958  0.8812557516845488  0.6040011714225529  1.0000
  C   C63       1.0  0.772232831406356  0.0604691717835735  0.43551263869632345  1.0000
  C   C64       1.0  0.22776612025361936  0.9395334777790723  0.564486470924642  1.0000
  N   N1        1.0  0.921441832183078  0.19079929056356093  0.12349843089906173  1.0000
  N   N2        1.0  0.0785577860218183  0.809199582272342  0.8765013007490552  1.0000
  N   N3        1.0  0.7313663335905575  0.3722162477311244  0.917717401515027  1.0000
  N   N4        1.0  0.26862884830752165  0.6277835692864642  0.08228384897810774  1.0000
  N   N5        1.0  0.004516747222233195  0.23494639357218716  0.500283753528592  1.0000
  N   N6        1.0  0.995487814414659  0.7650572001721371  0.4997102790159929  1.0000
  N   N7        1.0  0.8966787927629979  0.0639777509220991  0.37137153510215637  1.0000
  N   N8        1.0  0.1033209944836244  0.9360230102771752  0.628629230900188  1.0000
  O   O1        1.0  0.8943895053758837  0.9038084753935962  0.13766042355587868  1.0000
  O   O2        1.0  0.1056135445074631  0.0961894532606209  0.8623380118400874  1.0000
  O   O3        1.0  0.6940130253542733  0.004541513901053  0.2520401241040773  1.0000
  O   O4        1.0  0.30599144695077013  0.9954554705714855  0.7479596452218331  1.0000
  O   O5        1.0  0.22362452102572652  0.8838125956853915  0.11858909104862654  1.0000
  O   O6        1.0  0.7763771064359233  0.11618627715051838  0.8814116520779933  1.0000
  O   O7        1.0  0.2148054588391233  0.01361132315958  0.21785786103234983  1.0000
  O   O8        1.0  0.7851937415724491  0.9863884938580085  0.7821439557535542  1.0000
  O   O9        1.0  0.9307611809520324  0.23318643891281707  0.6745297868620598  1.0000
  O   O10       1.0  0.06923726358277803  0.7668105455597143  0.325468404692579  1.0000
  O   O11       1.0  0.3243538707969123  0.5487735017700501  0.5896513637480182  1.0000
  O   O12       1.0  0.6756453296146674  0.4512263152475384  0.41034899637364225  1.0000
  O   O13       1.0  0.6973204154017054  0.5813279420599429  0.8639271298793646  1.0000
  O   O14       1.0  0.3026751842897042  0.41867093077596  0.13607349214021977  1.0000
