data_image0
_chemical_formula_structural       Cd2H32C44N4O12
_chemical_formula_sum              "Cd2 H32 C44 N4 O12"
_cell_length_a       8.949179625774523
_cell_length_b       10.986877448084298
_cell_length_c       11.903911455227373
_cell_angle_alpha    64.51245954018086
_cell_angle_beta     75.34213245436084
_cell_angle_gamma    89.33188803936521

_space_group_name_H-M_alt    "P 1"
_space_group_IT_number       1

loop_
  _space_group_symop_operation_xyz
  'x, y, z'

loop_
  _atom_site_type_symbol
  _atom_site_label
  _atom_site_symmetry_multiplicity
  _atom_site_fract_x
  _atom_site_fract_y
  _atom_site_fract_z
  _atom_site_occupancy
  Cd  Cd1       1.0  0.49622149459177933  0.3069375035346766  0.5933005879692459  1.0000
  Cd  Cd2       1.0  0.5037799339578939  0.6930654122503342  0.4066980903279927  1.0000
  H   H1        1.0  0.8622539442635145  0.6290469284845345  0.6013380671656492  1.0000
  H   H2        1.0  0.1377519787268113  0.3709549896714108  0.39865930312249287  1.0000
  H   H3        1.0  0.673825391927558  0.6788873812690639  0.639617009856778  1.0000
  H   H4        1.0  0.32618296843588007  0.3211155406479165  0.36038118316000844  1.0000
  H   H5        1.0  0.7679265192385857  0.49665438062738326  0.02291171033436275  1.0000
  H   H6        1.0  0.23207812167844113  0.5033465283569569  0.977085458929807  1.0000
  H   H7        1.0  0.45440066581517863  0.5513990488048534  0.7869665702136075  1.0000
  H   H8        1.0  0.5456050036311454  0.4486008479058228  0.2130307983342519  1.0000
  H   H9        1.0  0.6535033849296995  0.04115601676215161  0.364206972196513  1.0000
  H   H10       1.0  0.34649433849405403  0.9588357031256152  0.6358001487894996  1.0000
  H   H11       1.0  0.6815817556718358  0.2063764757402922  0.23387917171521627  1.0000
  H   H12       1.0  0.31841558745231424  0.7936122544344852  0.7661233096009713  1.0000
  H   H13       1.0  0.1518772530618904  0.19206738447366686  0.2972342910917903  1.0000
  H   H14       1.0  0.8481176383119974  0.8079293782422283  0.7027739199868537  1.0000
  H   H15       1.0  0.7206109182429474  0.9380690556207655  0.531147831972561  1.0000
  H   H16       1.0  0.2793830713751362  0.06192973395096859  0.46885975914167954  1.0000
  H   H17       1.0  0.21781779164421528  0.49446555253376107  0.65259096545136  1.0000
  H   H18       1.0  0.7821799174560696  0.5055353425995293  0.34740753219496406  1.0000
  H   H19       1.0  0.00011408861213619336  0.4845135310464954  0.8361926838118168  1.0000
  H   H20       1.0  0.9998810563415433  0.5154853457435778  0.16380541178657645  1.0000
  H   H21       1.0  0.9449054714116444  0.2754178024195398  0.0507453073676558  1.0000
  H   H22       1.0  0.05508877178622382  0.7245831012263723  0.949252168266341  1.0000
  H   H23       1.0  0.004249120144074001  0.042263826073629204  0.17912415673658447  1.0000
  H   H24       1.0  0.9957470533329412  0.9577340230046262  0.8208758243489173  1.0000
  H   H25       1.0  0.15782315759874174  0.8479253013387907  0.1902336098316722  1.0000
  H   H26       1.0  0.8421755800278562  0.1520745738017553  0.8097659302000582  1.0000
  H   H27       1.0  0.3665191419706418  0.7514606351867171  0.08378935233790234  1.0000
  H   H28       1.0  0.6334824133555088  0.24854330289954868  0.9162080621769136  1.0000
  H   H29       1.0  0.5853021594779406  0.7858561681840756  0.8885827092049257  1.0000
  H   H30       1.0  0.4146981137749038  0.21414676073057848  0.11141450428591779  1.0000
  H   H31       1.0  0.636519550360596  0.0116235844398318  0.6922577007344799  1.0000
  H   H32       1.0  0.36347866582768523  0.9883813535840035  0.307740800392409  1.0000
  C   C1        1.0  0.6759217549554749  0.4796603108240234  0.6471755142840578  1.0000
  C   C2        1.0  0.324083266282031  0.5203436419068411  0.35282039293796436  1.0000
  C   C3        1.0  0.744061351819724  0.5933337218795173  0.6666500250363185  1.0000
  C   C4        1.0  0.2559434158678116  0.4066681939679172  0.3333475666488397  1.0000
  C   C5        1.0  0.6279208868411176  0.5269617147045835  0.8923312096903475  1.0000
  C   C6        1.0  0.37208631822549176  0.473041220342047  0.10766551852005084  1.0000
  C   C7        1.0  0.6499011242982463  0.497220763970617  0.013435667343863165  1.0000
  C   C8        1.0  0.3501041648246216  0.5027760812744474  0.9865638063478531  1.0000
  C   C9        1.0  0.4762604214621434  0.5295077763384626  0.879341500779617  1.0000
  C   C10       1.0  0.5237440926784132  0.4704921103446226  0.12065693226697499  1.0000
  C   C11       1.0  0.6261035138381176  0.20292880414192643  0.42086066977438447  1.0000
  C   C12       1.0  0.37389406848867424  0.7970710764091891  0.5791382485526598  1.0000
  C   C13       1.0  0.7058465885705232  0.14591780998351564  0.32732286925041626  1.0000
  C   C14       1.0  0.29415010633585587  0.8540749530542231  0.6726806800450619  1.0000
  C   C15       1.0  0.9295271338255234  0.0755869906204438  0.40285178264471  1.0000
  C   C16       1.0  0.070469814618896  0.9244077784244169  0.5971534545944691  1.0000
  C   C17       1.0  0.08665700683117451  0.10674835212766004  0.38632979879619006  1.0000
  C   C18       1.0  0.9133391666189965  0.8932494274789137  0.61367777020471  1.0000
  C   C19       1.0  0.8422687348079027  0.9677748114281145  0.5170232996044818  1.0000
  C   C20       1.0  0.15772641010998711  0.0322239727330498  0.48298491321444464  1.0000
  C   C21       1.0  0.1890992402853797  0.4043579631997715  0.7455129595226424  1.0000
  C   C22       1.0  0.81089975088522  0.5956439333860502  0.25448658224936344  1.0000
  C   C23       1.0  0.06806278623946582  0.3988790545507472  0.8500239587985592  1.0000
  C   C24       1.0  0.9319335140080511  0.6011198013906096  0.1499764447079387  1.0000
  C   C25       1.0  0.036616252332756  0.2835620825212927  0.9667737325962308  1.0000
  C   C26       1.0  0.9633813299910519  0.7164377903107423  0.03322602883252282  1.0000
  C   C27       1.0  0.12431978597020081  0.172936847845115  0.9786132414662775  1.0000
  C   C28       1.0  0.8756803605061735  0.827065058768291  0.02138523580698849  1.0000
  C   C29       1.0  0.09525306067332202  0.04891368862950431  0.09549954115488654  1.0000
  C   C30       1.0  0.9047446484239787  0.9510871987847055  0.9044997995931539  1.0000
  C   C31       1.0  0.17920333388552484  0.9426351977426324  0.10157780726593994  1.0000
  C   C32       1.0  0.8207957840496222  0.05736769026813699  0.8984238431304805  1.0000
  C   C33       1.0  0.3007103958873074  0.9534425888625936  0.9919222469276293  1.0000
  C   C34       1.0  0.6992909058858885  0.04655930462116942  0.008077695152039195  1.0000
  C   C35       1.0  0.391594290234096  0.84645066865923  0.9951419334129882  1.0000
  C   C36       1.0  0.608407011536123  0.1535512171054592  0.004858851768389588  1.0000
  C   C37       1.0  0.5121882738195468  0.8659441577884338  0.8880563112692386  1.0000
  C   C38       1.0  0.4878134082771056  0.13406078716091938  0.11194152566656611  1.0000
  C   C39       1.0  0.5408656423979181  0.9917014508345117  0.7778789648317856  1.0000
  C   C40       1.0  0.45913360232264483  0.0083024826347327  0.22211889247707725  1.0000
  C   C41       1.0  0.33579047837736203  0.07615444686624782  0.8754851595875125  1.0000
  C   C42       1.0  0.6642108233868883  0.9238474234602879  0.12451731179728395  1.0000
  C   C43       1.0  0.24415169865412883  0.18740195095274004  0.8677709403550082  1.0000
  C   C44       1.0  0.7558470389724691  0.8125979241878056  0.13222859967672213  1.0000
  N   N1        1.0  0.2746625378390918  0.3022079123994104  0.7545951263894467  1.0000
  N   N2        1.0  0.7253376086342983  0.6977939864949149  0.24540419398553584  1.0000
  N   N3        1.0  0.45426970605606004  0.0924643117659798  0.7715358969655242  1.0000
  N   N4        1.0  0.5457308207348249  0.9075406231557964  0.22846300446902035  1.0000
  O   O1        1.0  0.6762279450990577  0.3575032645383017  0.7213490370377684  1.0000
  O   O2        1.0  0.3237747655358447  0.6425006912946217  0.27864646987659114  1.0000
  O   O3        1.0  0.6185908675273595  0.517970005164429  0.5493736873625609  1.0000
  O   O4        1.0  0.38141299840735604  0.48203394525792503  0.45062244125648493  1.0000
  O   O5        1.0  0.7608466618465782  0.5526455662345953  0.7936513031145228  1.0000
  O   O6        1.0  0.23915900759378428  0.44735431503792017  0.20634775163675553  1.0000
  O   O7        1.0  0.4787314715447692  0.1801743337679937  0.46127003724878796  1.0000
  O   O8        1.0  0.5212662375584928  0.8198265690843699  0.5387276172958337  1.0000
  O   O9        1.0  0.7072625961779125  0.2707465470887342  0.45262822856197715  1.0000
  O   O10       1.0  0.2927381985102642  0.7292513112235568  0.5473708669354168  1.0000
  O   O11       1.0  0.870677705147564  0.1549183942251204  0.3008769957109365  1.0000
  O   O12       1.0  0.12932027182912983  0.8450753702651498  0.6991275977102162  1.0000
