data_image0
_chemical_formula_structural       K4H40C56S8N4O32
_chemical_formula_sum              "K4 H40 C56 S8 N4 O32"
_cell_length_a       7.216736929790767
_cell_length_b       11.323427641
_cell_length_c       19.258
_cell_angle_alpha    90.0
_cell_angle_beta     95.48152320328023
_cell_angle_gamma    90.0

_space_group_name_H-M_alt    "P 1"
_space_group_IT_number       1

loop_
  _space_group_symop_operation_xyz
  'x, y, z'

loop_
  _atom_site_type_symbol
  _atom_site_label
  _atom_site_symmetry_multiplicity
  _atom_site_fract_x
  _atom_site_fract_y
  _atom_site_fract_z
  _atom_site_occupancy
  K   K1        1.0  0.32448718371041013  0.641327010710576  0.4861228580976586  1.0000
  K   K2        1.0  0.8244903026310624  0.8586710939710969  0.4861239303851336  1.0000
  K   K3        1.0  0.6755051337959304  0.3586670157448282  0.5138751533191837  1.0000
  K   K4        1.0  0.17549087860732732  0.1413317637325093  0.5138736823876684  1.0000
  H   H1        1.0  0.1588310217429978  0.2300063269331787  0.6961478062766702  1.0000
  H   H2        1.0  0.6588285725296645  0.2699924525441659  0.6961471214479573  1.0000
  H   H3        1.0  0.8411710399978107  0.7699947645207885  0.3038536695420362  1.0000
  H   H4        1.0  0.3411693131106617  0.7300068726601552  0.3038531663497892  1.0000
  H   H5        1.0  0.31362514635142713  0.21178039689299064  0.8181029163213367  1.0000
  H   H6        1.0  0.8136199130711008  0.2882192657091736  0.8181026510963321  1.0000
  H   H7        1.0  0.686378307422878  0.7882189283113377  0.1818975707984336  1.0000
  H   H8        1.0  0.18637797256922545  0.7117809426199672  0.1818971174366908  1.0000
  H   H9        1.0  0.5802733383578769  0.5468812268096173  0.7971875113291702  1.0000
  H   H10       1.0  0.0802743955377139  0.9531221766209726  0.7971881463273789  1.0000
  H   H11       1.0  0.4197259393159385  0.4531225140188083  0.2028133455638041  1.0000
  H   H12       1.0  0.9197248821361017  0.0468780317081752  0.2028121913008789  1.0000
  H   H13       1.0  0.4343019220387347  0.5639741077054339  0.6742713550788935  1.0000
  H   H14       1.0  0.9343050409593803  0.9360275294755169  0.6742719081016446  1.0000
  H   H15       1.0  0.5656945715680948  0.4360269837485334  0.32572888288835605  1.0000
  H   H16       1.0  0.0656942367144353  0.0639726788536308  0.3257284295266132  1.0000
  H   H17       1.0  0.8819965983297919  0.44895239861762093  0.7423069980769981  1.0000
  H   H18       1.0  0.381997655509629  0.0510472639845432  0.7423060752810429  1.0000
  H   H19       1.0  0.11800407137752703  0.5510486928363463  0.2576933893817639  1.0000
  H   H20       1.0  0.6180044062311794  0.948953827469424  0.2576938427435067  1.0000
  H   H21       1.0  0.0101465321427199  0.4596567545637953  0.8680633911044211  1.0000
  H   H22       1.0  0.5101454749628829  0.0403429080383688  0.8680617175767722  1.0000
  H   H23       1.0  0.989856921631578  0.5403452200149914  0.1319370960153492  1.0000
  H   H24       1.0  0.4898593708449113  0.9596555340411328  0.1319383001087857  1.0000
  H   H25       1.0  0.27154397380724765  0.7908912640173966  0.8289503671217844  1.0000
  H   H26       1.0  0.7715415245939143  0.7091077237890886  0.8289507208225119  1.0000
  H   H27       1.0  0.7284594799670574  0.2091089443117511  0.17104752367438184  1.0000
  H   H28       1.0  0.22845914511340484  0.290892484540052  0.1710481088420863  1.0000
  H   H29       1.0  0.1458182926347291  0.778803051477901  0.7023550616430398  1.0000
  H   H30       1.0  0.6458186274883888  0.7211941700789453  0.7023549957400591  1.0000
  H   H31       1.0  0.8541809850390933  0.2211962737264273  0.2976437181910541  1.0000
  H   H32       1.0  0.3541862183194128  0.2788051551253758  0.297643464151335  1.0000
  H   H33       1.0  0.5784636948147934  0.2816929732875764  0.9730158669924337  1.0000
  H   H34       1.0  0.0784661440281269  0.21830757243940724  0.9730155132917062  1.0000
  H   H35       1.0  0.4215369748925184  0.7183072350415715  0.0269845204663213  1.0000
  H   H36       1.0  0.9215359177126814  0.781691752764914  0.026984404732836302  1.0000
  H   H37       1.0  0.2614934919756564  0.5413775929298552  0.0157787724071952  1.0000
  H   H38       1.0  0.7614910427623232  0.95862139487663  0.0157775683137586  1.0000
  H   H39       1.0  0.7385085697651519  0.4586243816489244  0.984221664882071  1.0000
  H   H40       1.0  0.23850962694498895  0.0413770472028787  0.9842222998802798  1.0000
  C   C1        1.0  0.28821496693953463  0.3980137589859681  0.6792433673934895  1.0000
  C   C2        1.0  0.7882139097596976  0.1019859036161961  0.6792432516600044  1.0000
  C   C3        1.0  0.7117857027677772  0.6019873324679992  0.3207575393299892  1.0000
  C   C4        1.0  0.2117839758806284  0.8980143047129516  0.3207570361377421  1.0000
  C   C5        1.0  0.2532011484478431  0.2980228343387026  0.71847341614464  1.0000
  C   C6        1.0  0.7531973072010205  0.20197682826346153  0.7184737200148703  1.0000
  C   C7        1.0  0.7468009132929652  0.7019773739904451  0.2815275404093427  1.0000
  C   C8        1.0  0.24680057843930572  0.7980216138160401  0.2815265677828833  1.0000
  C   C9        1.0  0.338175049063601  0.2884859694048885  0.7862908973308933  1.0000
  C   C10       1.0  0.8381698157832815  0.2115136931972756  0.7862911513706123  1.0000
  C   C11       1.0  0.6618270126772074  0.7115142389242592  0.21371005922309652  1.0000
  C   C12       1.0  0.161826677823548  0.7884865151318721  0.21370908659663002  1.0000
  C   C13       1.0  0.4541787683092693  0.37880579414566984  0.8146406894153486  1.0000
  C   C14       1.0  0.9541763190959429  0.1211947515813137  0.8146405238513524  1.0000
  C   C15       1.0  0.545823293431539  0.6211952973082973  0.18535974787391754  1.0000
  C   C16       1.0  0.0458215665443831  0.8788045736230076  0.1853592446816705  1.0000
  C   C17       1.0  0.4899164442181957  0.47763187715503364  0.7740625780748687  1.0000
  C   C18       1.0  0.9899167790718553  0.0223695516967695  0.7740630314366114  1.0000
  C   C19       1.0  0.5100842254891162  0.5223683311741141  0.2259378093838933  1.0000
  C   C20       1.0  0.0100824986019674  0.9776315397571906  0.22593678692692273  1.0000
  C   C21       1.0  0.4085103254493064  0.48728443144029404  0.7060633307003457  1.0000
  C   C22       1.0  0.9085106603029589  0.0127169974115091  0.7060627455326483  1.0000
  C   C23       1.0  0.5914917362915092  0.5127175431384927  0.2939381451183607  1.0000
  C   C24       1.0  0.0914900094043531  0.9872832109176387  0.2939376419261137  1.0000
  C   C25       1.0  0.5427246268723778  0.3740130757462055  0.8874614121455693  1.0000
  C   C26       1.0  0.0427242920187183  0.1259874699807781  0.8874614780485501  1.0000
  C   C27       1.0  0.4572760428349341  0.6259853663333033  0.1125389753131927  1.0000
  C   C28       1.0  0.9572735936216008  0.8740145045980086  0.11253880974919643  1.0000
  C   C29       1.0  0.0078608131444611  0.613243641426827  0.716225416127486  1.0000
  C   C30       1.0  0.5078611479981135  0.8867535801300193  0.7162243116950648  1.0000
  C   C31       1.0  0.9921384645293614  0.3867548006526818  0.2837744022360482  1.0000
  C   C32       1.0  0.4921395217091984  0.1132457450743019  0.2837750372342569  1.0000
  C   C33       1.0  0.9673602683240574  0.5230977922756352  0.7619371647988586  1.0000
  C   C34       1.0  0.4673599334703979  0.97690119553085  0.7619361921723993  1.0000
  C   C35       1.0  0.0326417934167509  0.4769041823031515  0.2380627532256838  1.0000
  C   C36       1.0  0.5326421282704104  0.0230972465486516  0.2380642451168669  1.0000
  C   C37       1.0  0.03853009509924731  0.5292858478910816  0.8316170818033656  1.0000
  C   C38       1.0  0.538527645885921  0.9707122567905841  0.8316158777099362  1.0000
  C   C39       1.0  0.9614733586750505  0.4707152435628856  0.1683834053164048  1.0000
  C   C40       1.0  0.4614716317879016  0.029283535914459  0.1683844599183217  1.0000
  C   C41       1.0  0.14884596548565557  0.6258334688642151  0.8552923971933027  1.0000
  C   C42       1.0  0.6488435162723221  0.8741664020670895  0.8552922316293136  1.0000
  C   C43       1.0  0.8511560962551528  0.3741685057145645  0.1447070015665233  1.0000
  C   C44       1.0  0.351151585301011  0.125832040012412  0.14470691797798446  1.0000
  C   C45       1.0  0.18572093275973603  0.7167926759748511  0.8092279436838226  1.0000
  C   C46       1.0  0.685719875579899  0.7832063118316341  0.8092273086856211  1.0000
  C   C47       1.0  0.8142825210145688  0.2832084154791161  0.1907715049065075  1.0000
  C   C48       1.0  0.31428079412741994  0.216789480873409  0.1907725595084244  1.0000
  C   C49       1.0  0.11606496871943513  0.7104421253924826  0.7394247855405992  1.0000
  C   C50       1.0  0.6160653035730945  0.7895568624140096  0.7394252389023422  1.0000
  C   C51       1.0  0.8839357009878768  0.2895580829366651  0.26057352485927515  1.0000
  C   C52       1.0  0.38392979800023863  0.2104424627903185  0.2605723529107919  1.0000
  C   C53       1.0  0.23161210097885035  0.6304115879323575  0.9289790245786945  1.0000
  C   C54       1.0  0.7316096517655168  0.8695873998741277  0.9289783397499818  1.0000
  C   C55       1.0  0.7683871766949651  0.36958862039678314  0.07102131304956322  1.0000
  C   C56       1.0  0.2683868418413127  0.130411042205381  0.07102189821726061  1.0000
  S   S1        1.0  0.1741225096820571  0.4169338251348691  0.5938444310601839  1.0000
  S   S2        1.0  0.6741228445357166  0.0830667205921145  0.5938443651572101  1.0000
  S   S3        1.0  0.8258767679917584  0.5830655000694591  0.4061559065680669  1.0000
  S   S4        1.0  0.32587643313810594  0.9169343708618456  0.4061554532063241  1.0000
  S   S5        1.0  0.9282831040613928  0.6005080983940942  0.6260778388944105  1.0000
  S   S6        1.0  0.4282827692077404  0.8994908894123981  0.6260763470032273  1.0000
  S   S7        1.0  0.0717161736124226  0.3994921099350535  0.3739219794691238  1.0000
  S   S8        1.0  0.571716508466082  0.1005102020415691  0.3739229520955902  1.0000
  N   N1        1.0  0.10126347657050162  0.5493380800595347  0.5887427932125746  1.0000
  N   N2        1.0  0.6012652034576577  0.95066179087177  0.5887422578753814  1.0000
  N   N3        1.0  0.8987371931368104  0.450662128269613  0.411258113510911  1.0000
  N   N4        1.0  0.398734074216165  0.0493384174573706  0.4112570412234362  1.0000
  O   O1        1.0  0.31737528458609193  0.4101328808941673  0.5452861782927699  1.0000
  O   O2        1.0  0.8173756194397512  0.0898658985831702  0.5452855931250653  1.0000
  O   O3        1.0  0.6826226010542342  0.5898655611853343  0.45471410950498387  1.0000
  O   O4        1.0  0.1826236582340712  0.9101343097459704  0.4547147445031925  1.0000
  O   O5        1.0  0.029813181355564208  0.3261980486037501  0.5853958106513346  1.0000
  O   O6        1.0  0.529814908242713  0.1738024971232264  0.585395794578858  1.0000
  O   O7        1.0  0.9701874883517478  0.673801276600571  0.4146056153368676  1.0000
  O   O8        1.0  0.4701857614645989  0.8261977112059143  0.4146040736151804  1.0000
  O   O9        1.0  0.8992550295968302  0.7199251197122578  0.6000480701286932  1.0000
  O   O10       1.0  0.3992546947431777  0.7800756343438736  0.6000470975022338  1.0000
  O   O11       1.0  0.10074564011048183  0.2800750886168899  0.3999512788006286  1.0000
  O   O12       1.0  0.6007459749641415  0.2199245739852742  0.3999527706918116  1.0000
  O   O13       1.0  0.7683955288959369  0.5213862963740041  0.6218576282336556  1.0000
  O   O14       1.0  0.2683965860757738  0.9786135745573077  0.6218561861729768  1.0000
  O   O15       1.0  0.2316051408113751  0.4786130288303241  0.3781422399603898  1.0000
  O   O16       1.0  0.7316040836315381  0.02138663377184  0.3781436820210615  1.0000
  O   O17       1.0  0.6427297051636884  0.4576591262203991  0.9110189571064852  1.0000
  O   O18       1.0  0.14272937031003616  0.0423414195065845  0.9110185037447422  1.0000
  O   O19       1.0  0.3572737486106163  0.542340198983922  0.0889820492780089  1.0000
  O   O20       1.0  0.8572712993972829  0.9576579056977437  0.08898136444929608  1.0000
  O   O21       1.0  0.5097946825222266  0.2779211471803151  0.9228897460199974  1.0000
  O   O22       1.0  0.0097957397020636  0.2220793985466685  0.9228898617534825  1.0000
  O   O23       1.0  0.4902032031180995  0.7220799442736522  0.0771110610424728  1.0000
  O   O24       1.0  0.990203537971759  0.7779208097824792  0.0771104758747683  1.0000
  O   O25       1.0  0.326513984478666  0.7163431654413515  0.9524078944375277  1.0000
  O   O26       1.0  0.8265143193323257  0.7836558223651409  0.9524073092698302  1.0000
  O   O27       1.0  0.6734866852286461  0.2836588091374352  0.04759249302123441  1.0000
  O   O28       1.0  0.17349052647547583  0.2163426197143679  0.0475927084157277  1.0000
  O   O29       1.0  0.19758941033537525  0.5356522947202151  0.9654337727141353  1.0000
  O   O30       1.0  0.6975841770550559  0.9643466930862701  0.9654335074891308  1.0000
  O   O31       1.0  0.8024098673384401  0.464350562983384  0.034566045649398795  1.0000
  O   O32       1.0  0.3024095324847877  0.0356490996187731  0.0345666308171033  1.0000
