data_image0
_chemical_formula_structural       Zn4H42C84S10Br4N4O46
_chemical_formula_sum              "Zn4 H42 C84 S10 Br4 N4 O46"
_cell_length_a       16.50898994885318
_cell_length_b       17.821220999501296
_cell_length_c       28.78424483217947
_cell_angle_alpha    90.39720264661297
_cell_angle_beta     89.8898794497804
_cell_angle_gamma    90.13656159692249

_space_group_name_H-M_alt    "P 1"
_space_group_IT_number       1

loop_
  _space_group_symop_operation_xyz
  'x, y, z'

loop_
  _atom_site_type_symbol
  _atom_site_label
  _atom_site_symmetry_multiplicity
  _atom_site_fract_x
  _atom_site_fract_y
  _atom_site_fract_z
  _atom_site_occupancy
  Zn  Zn1       1.0  0.5820411222156069  0.5002878391566484  0.49828786426340327  1.0000
  Zn  Zn2       1.0  0.41331994588264814  0.49944362744957954  0.49942225534745416  1.0000
  Zn  Zn3       1.0  0.41431613998415884  0.5006577872602237  0.8803218485768195  1.0000
  Zn  Zn4       1.0  0.583216762349906  0.5044517173152911  0.8809016604530553  1.0000
  H   H1        1.0  0.28409625199837046  0.5881935703534824  0.5462709632515013  1.0000
  H   H2        1.0  0.131802949516306  0.5908118713070252  0.548450427889861  1.0000
  H   H3        1.0  0.2850374421186572  0.41242801179863164  0.4508738416282298  1.0000
  H   H4        1.0  0.7076780891714591  0.5743056062848099  0.5563083944356604  1.0000
  H   H5        1.0  0.7136201711045872  0.4263316088980673  0.4444858364066987  1.0000
  H   H6        1.0  0.8663517205265665  0.42329087196618087  0.4445309283455855  1.0000
  H   H7        1.0  0.6280998393877012  0.7331303095926316  0.48722819153661573  1.0000
  H   H8        1.0  0.6348296431179675  0.8734450610488338  0.4929682286695891  1.0000
  H   H9        1.0  0.369639153044062  0.7407853654289626  0.5042016185507092  1.0000
  H   H10       1.0  0.6273301607130506  0.2689939080478823  0.5194418115056718  1.0000
  H   H11       1.0  0.3712523509451485  0.25598694386585663  0.49403190326723473  1.0000
  H   H12       1.0  0.37887295314138913  0.11542492241688512  0.49294957292933345  1.0000
  H   H13       1.0  0.5858831251199844  0.40151142350303815  0.7755762766274469  1.0000
  H   H14       1.0  0.5828716024518882  0.40015357392518075  0.602346541558006  1.0000
  H   H15       1.0  0.3716738123086357  0.49804942806824215  0.028734176049105994  1.0000
  H   H16       1.0  0.3736448786893831  0.5047548524879628  0.11579019357986907  1.0000
  H   H17       1.0  0.6319879963841544  0.4969318829879228  0.026029913387098688  1.0000
  H   H18       1.0  0.37327222717029673  0.5026294388680483  0.35275015481744265  1.0000
  H   H19       1.0  0.6321955539667313  0.4780034433329661  0.3515054243573417  1.0000
  H   H20       1.0  0.6329390283046622  0.48835693798981344  0.26463738046071217  1.0000
  H   H21       1.0  0.7134608007907558  0.5907967554565303  0.8332020078596895  1.0000
  H   H22       1.0  0.8656350494297271  0.5920099222308154  0.8305629674128097  1.0000
  H   H23       1.0  0.710709710135788  0.4202818276096991  0.9307042692869271  1.0000
  H   H24       1.0  0.28947594521611114  0.5793504852174822  0.8256649999461556  1.0000
  H   H25       1.0  0.281868240328464  0.4200981284634012  0.9301397150784749  1.0000
  H   H26       1.0  0.1293139074909817  0.4192445294647912  0.9307790315612078  1.0000
  H   H27       1.0  0.3640795336374866  0.7436628429104176  0.8822991555689367  1.0000
  H   H28       1.0  0.36897425088982055  0.8836515793038018  0.8760906512838387  1.0000
  H   H29       1.0  0.6241667487455516  0.7355508817637572  0.8809401000687412  1.0000
  H   H30       1.0  0.37264990490024985  0.26404522823084875  0.8718554373128026  1.0000
  H   H31       1.0  0.6327658445781239  0.2656347211736971  0.8665855514035524  1.0000
  H   H32       1.0  0.6338533416389964  0.1251676788273457  0.8662910017466882  1.0000
  H   H33       1.0  0.03051617896908709  0.3231577024578058  0.47860159310400247  1.0000
  H   H34       1.0  0.9748767950092159  0.5341289253745032  0.5942824262185837  1.0000
  H   H35       1.0  0.39221231812950214  0.9843544276558446  0.5522780611595122  1.0000
  H   H36       1.0  0.6272374254788246  0.018309817237621897  0.5530640469848362  1.0000
  H   H37       1.0  0.6299467006251119  0.578150813260649  0.17711308892018707  1.0000
  H   H38       1.0  0.3849526946944266  0.5840052161812397  0.20342468753310775  1.0000
  H   H39       1.0  0.9632228108208593  0.3271012790110319  0.90014699209874  1.0000
  H   H40       1.0  0.0242889941420117  0.5426478123265214  0.7823813975300522  1.0000
  H   H41       1.0  0.6254813482911175  0.9766369539709527  0.8283824000757603  1.0000
  H   H42       1.0  0.37666340433744944  0.017464873027250902  0.8301389250688583  1.0000
  C   C1        1.0  0.49556733231177225  0.6449440152470771  0.4928792182943908  1.0000
  C   C2        1.0  0.5010395743456612  0.5167522912209961  0.588447927383001  1.0000
  C   C3        1.0  0.4945333157008136  0.35458607484439153  0.5066208283741316  1.0000
  C   C4        1.0  0.5027358683046613  0.48656638137820357  0.4090857590879151  1.0000
  C   C5        1.0  0.4916761366848732  0.6477948162905774  0.8856538787982727  1.0000
  C   C6        1.0  0.5037599317041668  0.5178210970525113  0.7908092772117639  1.0000
  C   C7        1.0  0.5014644532863812  0.3570635620953979  0.8718817274782676  1.0000
  C   C8        1.0  0.49947200982781936  0.492338396285021  0.970434150545962  1.0000
  C   C9        1.0  0.24779745764907093  0.5491304516898907  0.5256161340439433  1.0000
  C   C10       1.0  0.1637476776788063  0.5498618477314209  0.5269714648822654  1.0000
  C   C11       1.0  0.11997902737923029  0.49751210681291264  0.4999685477367421  1.0000
  C   C12       1.0  0.16478195092007297  0.44705665681297563  0.4718121113583889  1.0000
  C   C13       1.0  0.24892264782182139  0.4505049563246717  0.4722146674765283  1.0000
  C   C14       1.0  0.034532615223817203  0.4969043914682558  0.5019104132854151  1.0000
  C   C15       1.0  0.9608332976443705  0.49949853392008947  0.5035815157963767  1.0000
  C   C16       1.0  0.8753448216567961  0.5008984017486853  0.5027122723354579  1.0000
  C   C17       1.0  0.8291236866174216  0.5446126252721584  0.5342086481163759  1.0000
  C   C18       1.0  0.7450828858470188  0.5424020097912675  0.5319898771442764  1.0000
  C   C19       1.0  0.7490299470539411  0.4587131526953811  0.4695727908851096  1.0000
  C   C20       1.0  0.8331031122978557  0.4571959375248653  0.4697446768609692  1.0000
  C   C21       1.0  0.4988447432605341  0.728849440837415  0.4950661511552069  1.0000
  C   C22       1.0  0.5733353089319735  0.7662572334564574  0.4920163678167952  1.0000
  C   C23       1.0  0.5770333267559735  0.8439772745342039  0.4953070347009783  1.0000
  C   C24       1.0  0.5056627908453847  0.8862896126465786  0.5013202987742174  1.0000
  C   C25       1.0  0.4306707324279344  0.8476022249032413  0.5043470830288965  1.0000
  C   C26       1.0  0.4274199028118203  0.7699340595369152  0.5014180646719808  1.0000
  C   C27       1.0  0.5094666873997439  0.96531276609236  0.5043347058633143  1.0000
  C   C28       1.0  0.5102093229326741  0.033902888433509304  0.5055124983890734  1.0000
  C   C29       1.0  0.5076722490173111  0.11308659115870513  0.5055542919814897  1.0000
  C   C30       1.0  0.5778497913444767  0.15759151425270093  0.5126255650924489  1.0000
  C   C31       1.0  0.5732812094623513  0.2352925160526311  0.5134532196427981  1.0000
  C   C32       1.0  0.4985677805674412  0.2706547954867844  0.5067373932260181  1.0000
  C   C33       1.0  0.42868752110840097  0.22742866371638118  0.4994371403361198  1.0000
  C   C34       1.0  0.43282599913041514  0.14956841228462994  0.4989665835926188  1.0000
  C   C35       1.0  0.5051687328711765  0.5206605739305773  0.7385872054178076  1.0000
  C   C36       1.0  0.5446354506834226  0.46118367761293644  0.7141537323000403  1.0000
  C   C37       1.0  0.4684083561080924  0.5783645283115318  0.7146444221794821  1.0000
  C   C38       1.0  0.584443734069943  0.40210012621666635  0.7377346876834634  1.0000
  C   C39       1.0  0.6226834192448009  0.34554095664628187  0.7132396332241766  1.0000
  C   C40       1.0  0.5035552299247782  0.5198805049358983  0.640672692455318  1.0000
  C   C41       1.0  0.46776595481286887  0.5780066577567524  0.6652463882750295  1.0000
  C   C42       1.0  0.543751797878315  0.4607378837586892  0.664459336681837  1.0000
  C   C43       1.0  0.5827813193289159  0.4013600409328149  0.6402004432857422  1.0000
  C   C44       1.0  0.6220984565649914  0.34505863459034447  0.6638608956878043  1.0000
  C   C45       1.0  0.5012465090965748  0.49597609896150635  0.022391710141455693  1.0000
  C   C46       1.0  0.4287236040496154  0.49909175910496384  0.04765639699347449  1.0000
  C   C47       1.0  0.42980853493843807  0.5036298655844291  0.09579809315631847  1.0000
  C   C48       1.0  0.5041650966384096  0.5060634561620106  0.11979225328803977  1.0000
  C   C49       1.0  0.5770969139348451  0.5039204528279058  0.09379015492317677  1.0000
  C   C50       1.0  0.5756422703742813  0.4984537861055003  0.045692195153527786  1.0000
  C   C51       1.0  0.5043887291413327  0.5097187063608858  0.16872155275093795  1.0000
  C   C52       1.0  0.5043995583309594  0.5079701197505172  0.21114315678897091  1.0000
  C   C53       1.0  0.5033249816708931  0.5014385286122406  0.2599072637780252  1.0000
  C   C54       1.0  0.4298814536165665  0.5045707739588182  0.2854187362212172  1.0000
  C   C55       1.0  0.4298250855238592  0.4989419525364199  0.3334197875236312  1.0000
  C   C56       1.0  0.5030307798480109  0.4893655807671918  0.3571535846494811  1.0000
  C   C57       1.0  0.5759727478366302  0.48530369179844995  0.33234886644373757  1.0000
  C   C58       1.0  0.576486288760215  0.49145601096496705  0.2842817061894677  1.0000
  C   C59       1.0  0.7493280459046189  0.5526250503022894  0.8542628493101672  1.0000
  C   C60       1.0  0.8333464937404642  0.5522321794813793  0.8524560665513475  1.0000
  C   C61       1.0  0.876544701571724  0.5003306875402203  0.8794801856751914  1.0000
  C   C62       1.0  0.8312063124860105  0.4515694473837257  0.9081910246738969  1.0000
  C   C63       1.0  0.7471721327504639  0.45651802964088267  0.9085473986310856  1.0000
  C   C64       1.0  0.9619343764457539  0.4986254931110564  0.877076196655288  1.0000
  C   C65       1.0  0.03562258819614069  0.5006392597305693  0.8750603298671249  1.0000
  C   C66       1.0  0.12110090261551679  0.5014701126142641  0.8757578080470477  1.0000
  C   C67       1.0  0.16780375771289613  0.5475827946302729  0.8460976651998704  1.0000
  C   C68       1.0  0.2518436305505389  0.5447502770569275  0.8482257680262959  1.0000
  C   C69       1.0  0.24697660326182103  0.4554344724439048  0.9067748195648446  1.0000
  C   C70       1.0  0.1628858033523102  0.45478217383181624  0.9068152471124333  1.0000
  C   C71       1.0  0.4936100254513319  0.7315535439898326  0.8823208310930607  1.0000
  C   C72       1.0  0.42185486112856546  0.7731721590090289  0.8805292349844646  1.0000
  C   C73       1.0  0.42461534364993975  0.8508122131537663  0.8766049891262637  1.0000
  C   C74       1.0  0.4996853154215728  0.8885515252635231  0.8736453061063896  1.0000
  C   C75       1.0  0.5717103939829471  0.8454561039963481  0.8750256130125746  1.0000
  C   C76       1.0  0.5685930557435483  0.7681514721844493  0.8796834641760254  1.0000
  C   C77       1.0  0.5018004928170399  0.9674155944569661  0.8694308343011979  1.0000
  C   C78       1.0  0.5040147555731664  0.0359555085966861  0.8677919449361864  1.0000
  C   C79       1.0  0.503533680757549  0.11517820705880412  0.8681843751724468  1.0000
  C   C80       1.0  0.42972213067560006  0.15574796228829513  0.8697180424018212  1.0000
  C   C81       1.0  0.42958210537888414  0.23349904745571592  0.8705468028025505  1.0000
  C   C82       1.0  0.5029873986827552  0.2730785427661075  0.8696845757027062  1.0000
  C   C83       1.0  0.5763318118200474  0.2339187939635394  0.8675852760277036  1.0000
  C   C84       1.0  0.5768466653016802  0.1559331662158314  0.8670519316102909  1.0000
  S   S1        1.0  0.11790178989310358  0.37787379397504856  0.43535526086913007  1.0000
  S   S2        1.0  0.8758387274203301  0.6047526562069623  0.5762509028387155  1.0000
  S   S3        1.0  0.3379282398540865  0.8977283299814689  0.5115036622262463  1.0000
  S   S4        1.0  0.6745935442414462  0.11473681014290803  0.5190224761861585  1.0000
  S   S5        1.0  0.6728447301067318  0.50723577715101  0.12247087510802147  1.0000
  S   S6        1.0  0.33514022391808845  0.5147043278101365  0.2563497758456491  1.0000
  S   S7        1.0  0.8774630595899141  0.3826283468844025  0.9443340815145829  1.0000
  S   S8        1.0  0.12175150174898872  0.6113497269519996  0.8065440534915991  1.0000
  S   S9        1.0  0.6687438282892375  0.8895079616998701  0.871997427916632  1.0000
  S   S10       1.0  0.33476105061545525  0.1079180451511164  0.872438293002318  1.0000
  Br  Br1       1.0  0.4197042750194058  0.6582278620098947  0.6320751968875625  1.0000
  Br  Br2       1.0  0.4199405866003047  0.6583590334916847  0.7484947109274172  1.0000
  Br  Br3       1.0  0.6762258145509746  0.26918841630998  0.7470716544071789  1.0000
  Br  Br4       1.0  0.6746155463552482  0.2688466789074226  0.6287884892262594  1.0000
  N   N1        1.0  0.2891610032158027  0.5001807649303346  0.49887892080967317  1.0000
  N   N2        1.0  0.706264669126895  0.5002206409874433  0.5001355763826537  1.0000
  N   N3        1.0  0.7074314245400686  0.5056209159533296  0.88175560948234  1.0000
  N   N4        1.0  0.2901875150829554  0.49932756568759384  0.8780404072044588  1.0000
  O   O1        1.0  0.5615747053817728  0.611161758820316  0.4835623364290169  1.0000
  O   O2        1.0  0.42742137475826775  0.6140944046975394  0.5009405487026724  1.0000
  O   O3        1.0  0.4338959885040552  0.49881494480640504  0.5701198244511472  1.0000
  O   O4        1.0  0.5674055663190887  0.5294258201950726  0.5674411034600837  1.0000
  O   O5        1.0  0.4261840212535332  0.3841511320511515  0.4981527820830606  1.0000
  O   O6        1.0  0.560393150910585  0.3899191433763392  0.5147597750528801  1.0000
  O   O7        1.0  0.5701651117135427  0.47400024053087725  0.4291316890612577  1.0000
  O   O8        1.0  0.43524433841450616  0.49835559472968083  0.42919250819673477  1.0000
  O   O9        1.0  0.42365965680696155  0.615647234439777  0.8792553531358603  1.0000
  O   O10       1.0  0.5586696808309526  0.6154142009592503  0.8940827462151543  1.0000
  O   O11       1.0  0.5706627923095269  0.5300081484892873  0.8113579367559394  1.0000
  O   O12       1.0  0.43681048079347573  0.5003908870006555  0.8095092575600942  1.0000
  O   O13       1.0  0.5680350682668021  0.39173638095388  0.8650099731721209  1.0000
  O   O14       1.0  0.4332941688923313  0.38714163655132694  0.8807292674238166  1.0000
  O   O15       1.0  0.430979434609128  0.5016644661312952  0.951103516338662  1.0000
  O   O16       1.0  0.5666700128139154  0.48103740654826066  0.9497221918826637  1.0000
  O   O17       1.0  0.08886870976696308  0.31732304479331935  0.47360305886152065  1.0000
  O   O18       1.0  0.18092120233779235  0.3425787636246582  0.40912982549556165  1.0000
  O   O19       1.0  0.046832937256482396  0.4092436892939872  0.4142836624209493  1.0000
  O   O20       1.0  0.9222000645869456  0.544945600438254  0.6086571833701624  1.0000
  O   O21       1.0  0.8134186412335679  0.6361908461579944  0.6047459618258555  1.0000
  O   O22       1.0  0.9354767483935689  0.6497760349302126  0.5529068003904384  1.0000
  O   O23       1.0  0.3536974828008752  0.9436497478044783  0.5592595784626367  1.0000
  O   O24       1.0  0.2750491635664787  0.8451028004583067  0.5222986530646876  1.0000
  O   O25       1.0  0.33018561732006185  0.9506881082216481  0.4742489448262431  1.0000
  O   O26       1.0  0.6609195456155845  0.06103184646828909  0.5632850502730091  1.0000
  O   O27       1.0  0.731395335007406  0.17057915069377563  0.5344514180519082  1.0000
  O   O28       1.0  0.6900931478136416  0.0686445550266512  0.4787467274119093  1.0000
  O   O29       1.0  0.6670835823296954  0.5858146956087253  0.15075384982790035  1.0000
  O   O30       1.0  0.7347860187624491  0.5185127403085092  0.08834547201161057  1.0000
  O   O31       1.0  0.6764612291626051  0.44709414237976125  0.15551900682577718  1.0000
  O   O32       1.0  0.34738633944643743  0.5932880862572744  0.22944652375054625  1.0000
  O   O33       1.0  0.27365387741868114  0.5291032336669517  0.2903719975568677  1.0000
  O   O34       1.0  0.3273977296734074  0.4555418820908272  0.22234665963265593  1.0000
  O   O35       1.0  0.9050210914898145  0.32126121250465184  0.9057453169483833  1.0000
  O   O36       1.0  0.8142883399480992  0.3482188891148752  0.9707050299493074  1.0000
  O   O37       1.0  0.9493069822413105  0.41369799288678183  0.9651543482848336  1.0000
  O   O38       1.0  0.07847851740609708  0.5542454317857805  0.7703535395990071  1.0000
  O   O39       1.0  0.1848769803587729  0.6473295727546001  0.7809183211398006  1.0000
  O   O40       1.0  0.05972145328308189  0.6522083804242199  0.8309437744225148  1.0000
  O   O41       1.0  0.6630984923140915  0.9344331750502377  0.8235277177626725  1.0000
  O   O42       1.0  0.7287943382736374  0.832856306390589  0.8642634998329723  1.0000
  O   O43       1.0  0.6752188408598983  0.9431477471347166  0.9093998208195301  1.0000
  O   O44       1.0  0.3365337403868266  0.0575701758211693  0.825535466816255  1.0000
  O   O45       1.0  0.27118556026400137  0.16126270070171966  0.8654387200099121  1.0000
  O   O46       1.0  0.33512621818044863  0.058675843883691  0.911845964288332  1.0000
