data_image0
_chemical_formula_structural       Na2Tb2H24C24O24
_chemical_formula_sum              "Na2 Tb2 H24 C24 O24"
_cell_length_a       6.852773828722325
_cell_length_b       7.501109848000969
_cell_length_c       15.639121203518046
_cell_angle_alpha    90.0000017146718
_cell_angle_beta     102.65977714151315
_cell_angle_gamma    89.9999412199944

_space_group_name_H-M_alt    "P 1"
_space_group_IT_number       1

loop_
  _space_group_symop_operation_xyz
  'x, y, z'

loop_
  _atom_site_type_symbol
  _atom_site_label
  _atom_site_symmetry_multiplicity
  _atom_site_fract_x
  _atom_site_fract_y
  _atom_site_fract_z
  _atom_site_occupancy
  Na  Na1       1.0  0.8593310817805531  0.24988662912587495  0.7186428171588728  1.0000
  Na  Na2       1.0  0.14066755811845869  0.7498863058091343  0.28135704320127525  1.0000
  Tb  Tb1       1.0  0.6954439889626443  0.7501166745983241  0.3909485613643611  1.0000
  Tb  Tb2       1.0  0.30456362439733903  0.2501188585439067  0.6090521683914005  1.0000
  H   H1        1.0  0.7629356243825356  0.2551072414842821  0.897827319445909  1.0000
  H   H2        1.0  0.23706300658230361  0.75510814817909  0.10217317955750359  1.0000
  H   H3        1.0  0.8647297173525104  0.7447253825839792  0.10214659500717715  1.0000
  H   H4        1.0  0.1352689314138047  0.24472241359562466  0.8978526267041786  1.0000
  H   H5        1.0  0.844823599848425  0.26030507537006287  0.06134168854395476  1.0000
  H   H6        1.0  0.1551720369308285  0.7603061092610872  0.9386578810301316  1.0000
  H   H7        1.0  0.783039259247609  0.7395248823310182  0.9386309007875722  1.0000
  H   H8        1.0  0.21695640420523427  0.23952311947547855  0.061368031607209196  1.0000
  H   H9        1.0  0.4869152470060385  0.2681027706719591  0.4176987940939085  1.0000
  H   H10       1.0  0.5130923488332612  0.7681007732669443  0.5823012948353606  1.0000
  H   H11       1.0  0.06927099296363079  0.7321129789664765  0.5823643657681855  1.0000
  H   H12       1.0  0.9307381663647121  0.23210655048011117  0.41763011923972465  1.0000
  H   H13       1.0  0.7576745088205499  0.38316027748341946  0.30064797594376097  1.0000
  H   H14       1.0  0.2423224805396202  0.8831585473960145  0.6993523661092524  1.0000
  H   H15       1.0  0.4570816195954777  0.6170191606227532  0.6993530591387653  1.0000
  H   H16       1.0  0.542915676158529  0.11701576481934949  0.300646668819219  1.0000
  H   H17       1.0  0.7810272417562631  0.9007850157674749  0.7900072564704742  1.0000
  H   H18       1.0  0.21896523766769602  0.40078192644046595  0.20999328835021908  1.0000
  H   H19       1.0  0.9909915380979086  0.09905287139427087  0.21003078367147043  1.0000
  H   H20       1.0  0.0090012882924171  0.5990527041989322  0.7899691504024985  1.0000
  H   H21       1.0  0.015322818838413403  0.9123810019392591  0.8021877870151073  1.0000
  H   H22       1.0  0.9846711429853485  0.41237984137400463  0.19781290161740364  1.0000
  H   H23       1.0  0.21306394082139246  0.0873789728802024  0.1978230390689788  1.0000
  H   H24       1.0  0.7869289018575503  0.5873820572325882  0.8021762569686501  1.0000
  C   C1        1.0  0.4443194945369484  0.2499134964305156  0.8883508133002849  1.0000
  C   C2        1.0  0.5556821455170321  0.7499154302173633  0.11164741945952267  1.0000
  C   C3        1.0  0.39544813763852465  0.250050830142122  0.7910229398105526  1.0000
  C   C4        1.0  0.604549006452011  0.7500513893994878  0.2089767756312  1.0000
  C   C5        1.0  0.6486400109465578  0.08723346062360801  0.5138280247204392  1.0000
  C   C6        1.0  0.35136629248428625  0.5872382789585443  0.4861725754568623  1.0000
  C   C7        1.0  0.13478001830358013  0.9129381861951767  0.4861981979600641  1.0000
  C   C8        1.0  0.8652289169863677  0.4129318263095882  0.5138001048422325  1.0000
  C   C9        1.0  0.6237908177168805  0.1869267174947993  0.42726088926048067  1.0000
  C   C10       1.0  0.3762183543590822  0.6869261843814771  0.5727419087469059  1.0000
  C   C11       1.0  0.19658624407008324  0.813266241719809  0.572765775990639  1.0000
  C   C12       1.0  0.803421312211441  0.3132586031636748  0.4272317521517763  1.0000
  C   C13       1.0  0.6445672851982281  0.25343688000960896  0.9342386123414741  1.0000
  C   C14       1.0  0.35542985801296106  0.7534390038336197  0.06576046364713757  1.0000
  C   C15       1.0  0.7099266723633377  0.7463452163188862  0.06572657304711528  1.0000
  C   C16       1.0  0.2900719805176593  0.246346099885443  0.9342713702426619  1.0000
  C   C17       1.0  0.536070033628036  0.24990942925213488  0.0716498152265501  1.0000
  C   C18       1.0  0.46392561500358204  0.7499088323102183  0.9283497553256693  1.0000
  C   C19       1.0  0.6897284042773677  0.2556045112146279  0.025323054103175455  1.0000
  C   C20       1.0  0.3102687305005531  0.7556040648113366  0.9746772999506205  1.0000
  C   C21       1.0  0.6639754748812196  0.7442122470316617  0.9746493491740083  1.0000
  C   C22       1.0  0.3360201802461376  0.2442103675221574  0.025350221914280286  1.0000
  C   C23       1.0  0.5849954449908807  0.24996406712401148  0.169578868371083  1.0000
  C   C24       1.0  0.4149987109379012  0.749966177867762  0.8304199181384744  1.0000
  O   O1        1.0  0.5356708415825935  0.24446892078334775  0.7486358204410521  1.0000
  O   O2        1.0  0.46432780449298866  0.7444682842867463  0.2513640404288182  1.0000
  O   O3        1.0  0.7871780326777512  0.7557677901650662  0.2513083720601088  1.0000
  O   O4        1.0  0.21281910489425124  0.2557700704667596  0.7486913428436921  1.0000
  O   O5        1.0  0.7109851905050845  0.9286329206329711  0.5165094398158487  1.0000
  O   O6        1.0  0.28901921318983176  0.4286337791340528  0.4834941790113091  1.0000
  O   O7        1.0  0.19453711410357505  0.0715240029424749  0.4835236970117478  1.0000
  O   O8        1.0  0.8054826678299706  0.5715177209718973  0.5164782087701383  1.0000
  O   O9        1.0  0.7530200238335851  0.4427327992162374  0.358906964922518  1.0000
  O   O10       1.0  0.2469858743157829  0.9427350606831553  0.6410936018084142  1.0000
  O   O11       1.0  0.3943250994779177  0.5574600026828946  0.641060150527224  1.0000
  O   O12       1.0  0.6056782436764366  0.05745788299744701  0.3589408017802923  1.0000
  O   O13       1.0  0.6062693313623413  0.16894539118644045  0.5789347782384054  1.0000
  O   O14       1.0  0.39373387575044205  0.6689408330320746  0.4210680809838294  1.0000
  O   O15       1.0  0.0271768217354591  0.8312796532316468  0.42110174566774816  1.0000
  O   O16       1.0  0.9728307020868739  0.3312651947548062  0.5788983373182289  1.0000
  O   O17       1.0  0.893284695655325  0.9840619720168888  0.7981689440660985  1.0000
  O   O18       1.0  0.1067091844496488  0.4840603233736331  0.20183173782246658  1.0000
  O   O19       1.0  0.0950903056029944  0.0157309655539422  0.2019177487406694  1.0000
  O   O20       1.0  0.9049011141921498  0.5157326030130633  0.7980833265385029  1.0000
  O   O21       1.0  0.4477831309664779  0.21010203310488856  0.21040204167291415  1.0000
  O   O22       1.0  0.5522125630410811  0.7101120082687159  0.7895975326240147  1.0000
  O   O23       1.0  0.23699990313856034  0.7898483605832707  0.7895414539393001  1.0000
  O   O24       1.0  0.7629912071369773  0.2898447477894237  0.21045895641579188  1.0000
