data_image0
_chemical_formula_structural       Cu2H8C6Br2N6
_chemical_formula_sum              "Cu2 H8 C6 Br2 N6"
_cell_length_a       6.218995392690895
_cell_length_b       6.420571948860262
_cell_length_c       7.558132402711849
_cell_angle_alpha    83.7860184792071
_cell_angle_beta     74.20031383246243
_cell_angle_gamma    85.47661964533346

_space_group_name_H-M_alt    "P 1"
_space_group_IT_number       1

loop_
  _space_group_symop_operation_xyz
  'x, y, z'

loop_
  _atom_site_type_symbol
  _atom_site_label
  _atom_site_symmetry_multiplicity
  _atom_site_fract_x
  _atom_site_fract_y
  _atom_site_fract_z
  _atom_site_occupancy
  Cu  Cu1       1.0  0.5302761732924139  0.2714552884547246  0.9670307406396361  1.0000
  Cu  Cu2       1.0  0.4697299544446522  0.7285560921825436  0.03296191800147596  1.0000
  H   H1        1.0  0.2428081146916199  0.3570140652820299  0.6498733818559401  1.0000
  H   H2        1.0  0.757173600117035  0.6429914576851276  0.35013776404169755  1.0000
  H   H3        1.0  0.0595793354164869  0.7326752077874162  0.8267580454584047  1.0000
  H   H4        1.0  0.940405813937737  0.2673271255912226  0.1732512599350428  1.0000
  H   H5        1.0  0.9389023917451595  0.23387851902594295  0.5309845134529425  1.0000
  H   H6        1.0  0.0611024585894739  0.7661298382495406  0.4690167070843642  1.0000
  H   H7        1.0  0.7886669680009035  0.0187243122903027  0.6633036936114676  1.0000
  H   H8        1.0  0.21133309462572214  0.9812778092898214  0.33669800992709037  1.0000
  C   C1        1.0  0.23281868921717566  0.202124219096504  0.7237839589982826  1.0000
  C   C2        1.0  0.7671984650668405  0.7978587376421089  0.2762022709116464  1.0000
  C   C3        1.0  0.1425899215191677  0.8787744459306314  0.8123705800675083  1.0000
  C   C4        1.0  0.8574286184968188  0.12122432207607405  0.1876256153363514  1.0000
  C   C5        1.0  0.9539836827386808  0.06779804063491213  0.5802687403636995  1.0000
  C   C6        1.0  0.04601273470051129  0.9322040058211987  0.4197245983469813  1.0000
  Br  Br1       1.0  0.27711956144383265  0.4457962657125449  0.24702863272943887  1.0000
  Br  Br2       1.0  0.7228783629796568  0.554213669298406  0.7529688292668978  1.0000
  N   N1        1.0  0.3424816336479779  0.1294146570853272  0.8469430607020952  1.0000
  N   N2        1.0  0.6575152695072574  0.8705811946410268  0.1530574069150958  1.0000
  N   N3        1.0  0.2861045265576223  0.9219779478447664  0.9023842328431398  1.0000
  N   N4        1.0  0.7138924008480815  0.07801631933894272  0.09761506633239489  1.0000
  N   N5        1.0  0.10502897782043871  0.05020398496503731  0.699265436559642  1.0000
  N   N6        1.0  0.8949616525910926  0.9497904985416812  0.3007472953470298  1.0000
