data_image0
_chemical_formula_structural       Al2H19C28O10F
_chemical_formula_sum              "Al2 H19 C28 O10 F1"
_cell_length_a       7.2357854750668285
_cell_length_b       11.175330540113881
_cell_length_c       15.025925264235159
_cell_angle_alpha    80.2861798497466
_cell_angle_beta     77.69549444609959
_cell_angle_gamma    71.09331164295261

_space_group_name_H-M_alt    "P 1"
_space_group_IT_number       1

loop_
  _space_group_symop_operation_xyz
  'x, y, z'

loop_
  _atom_site_type_symbol
  _atom_site_label
  _atom_site_symmetry_multiplicity
  _atom_site_fract_x
  _atom_site_fract_y
  _atom_site_fract_z
  _atom_site_occupancy
  Al  Al1       1.0  0.5066741256337012  0.507586516125521  0.4916531671622766  1.0000
  Al  Al2       1.0  0.005396317593579279  0.5072529728211422  0.4932185606626194  1.0000
  H   H1        1.0  0.2674528625355493  0.39586023655287045  0.5939126072924952  1.0000
  H   H2        1.0  0.7184789475775516  0.6527815438427711  0.41984360312226005  1.0000
  H   H3        1.0  0.8806911300560286  0.5605468018448577  0.7711802702607219  1.0000
  H   H4        1.0  0.3702092999848008  0.4501243444237846  0.7586017950758335  1.0000
  H   H5        1.0  0.08147451360726882  0.542244825454418  0.21167145305660287  1.0000
  H   H6        1.0  0.6981610132828069  0.43208035308673226  0.23584834399017757  1.0000
  H   H7        1.0  0.6965006012873121  0.6356648050552282  0.0010482577831609913  1.0000
  H   H8        1.0  0.9279665619863379  0.5827681931141414  0.9317656369617852  1.0000
  H   H9        1.0  0.2494823991305709  0.349640275991078  0.9922998114764143  1.0000
  H   H10       1.0  0.12606336285338673  0.4480923275389231  0.9044508932737189  1.0000
  H   H11       1.0  0.18140577291927684  0.6372106751639494  0.9736246590755758  1.0000
  H   H12       1.0  0.005268170510895185  0.5759437320410116  0.04867595987400362  1.0000
  H   H13       1.0  0.90283338067826  0.34877440915300895  0.010736814857523303  1.0000
  H   H14       1.0  0.9384710904349307  0.4375649808347505  0.08906063029824199  1.0000
  H   H15       1.0  0.70854065894342  0.13699641099201906  0.42214604244811244  1.0000
  H   H16       1.0  0.21715777504972789  0.10115055839483492  0.6431683771177037  1.0000
  H   H17       1.0  0.3756017635279535  0.11893286604918533  0.5364911234193884  1.0000
  H   H18       1.0  0.4926039043201629  0.8800524891888772  0.534339310351264  1.0000
  H   H19       1.0  0.33421766505841793  0.8637521820265308  0.641197445699227  1.0000
  C   C1        1.0  0.8661032078566112  0.2855591886794642  0.49167608184778544  1.0000
  C   C2        1.0  0.6854537774287764  0.507080054444174  0.6535170672371539  1.0000
  C   C3        1.0  0.1468406185481897  0.7305262908019687  0.48886827820582834  1.0000
  C   C4        1.0  0.33004292415582626  0.4932747360753569  0.3339072261042873  1.0000
  C   C5        1.0  0.8013536909869431  0.5527414270577893  0.9678966600502439  1.0000
  C   C6        1.0  0.22743167229574385  0.44258595577066023  0.9504170300402282  1.0000
  C   C7        1.0  0.1585971543590716  0.5501054370195392  0.015170321786804709  1.0000
  C   C8        1.0  0.8391252081106302  0.43746269652123726  0.043789161874357795  1.0000
  C   C9        1.0  0.754585305758319  0.5281809606474752  0.8068194787278885  1.0000
  C   C10       1.0  0.7044252718501554  0.5187578281584636  0.9019934045262662  1.0000
  C   C11       1.0  0.46634633172802614  0.4647830314505798  0.7999298066972714  1.0000
  C   C12       1.0  0.418600650103585  0.45492591215844425  0.8949431395883851  1.0000
  C   C13       1.0  0.23680470868317371  0.5123317305388825  0.17925624823212166  1.0000
  C   C14       1.0  0.29145946739711803  0.5095628599752403  0.08481736264753442  1.0000
  C   C15       1.0  0.5862476643809774  0.4487690411220414  0.19295221232876966  1.0000
  C   C16       1.0  0.6389328906459613  0.4449499809536592  0.09867572869945457  1.0000
  C   C17       1.0  0.6367083928715543  0.4987458193078569  0.7555212042991573  1.0000
  C   C18       1.0  0.5428692197452991  0.4767814334434419  0.9456246684482966  1.0000
  C   C19       1.0  0.3850382641227271  0.48113388731446355  0.23362405742796713  1.0000
  C   C20       1.0  0.4911833381822462  0.47165521657597526  0.045523560227636005  1.0000
  C   C21       1.0  0.9404873734640661  0.1452045320882576  0.48951068394691805  1.0000
  C   C22       1.0  0.07699766928634223  0.8715544155261414  0.4870216780457427  1.0000
  C   C23       1.0  0.10907370820938668  0.0689062160152645  0.5246321237948808  1.0000
  C   C24       1.0  0.9081356731126962  0.9512455865250119  0.45055694387095735  1.0000
  C   C25       1.0  0.17352637888942  0.937066708594792  0.5235307715665558  1.0000
  C   C26       1.0  0.8400218972141291  0.08250133964231311  0.45171915150665154  1.0000
  C   C27       1.0  0.2706403880961333  0.06844535392443873  0.5746225326955925  1.0000
  C   C28       1.0  0.34399391181185734  0.9189266594890244  0.5734353050991744  1.0000
  O   O1        1.0  0.6832531156856945  0.3383750690756174  0.48678350287458755  1.0000
  O   O2        1.0  0.8577358422923711  0.5156385966142665  0.6163886139996182  1.0000
  O   O3        1.0  0.016973139068184716  0.6764555642930717  0.4880360662024756  1.0000
  O   O4        1.0  0.4655298304355569  0.5029610547679086  0.3721303023646812  1.0000
  O   O5        1.0  0.33120080383240263  0.6785449354840836  0.4923318549448724  1.0000
  O   O6        1.0  0.15325144780558733  0.4956747724307605  0.3716325813112179  1.0000
  O   O7        1.0  0.9936784999931593  0.33813380531742615  0.49923292277801334  1.0000
  O   O8        1.0  0.5488060334290168  0.5032533037661153  0.6131412272071161  1.0000
  O   O9        1.0  0.26544072893234016  0.450100576335011  0.5362953183865573  1.0000
  O   O10       1.0  0.7464112903616071  0.5661910192403713  0.4495507640028509  1.0000
  F   F1        1.0  0.8047567009723192  0.8998103949099563  0.40945541332400387  1.0000
