data_image0
_chemical_formula_structural       Hg2H32C52S4N8Cl4O8
_chemical_formula_sum              "Hg2 H32 C52 S4 N8 Cl4 O8"
_cell_length_a       8.274976100491166
_cell_length_b       12.16849374734045
_cell_length_c       13.086807744080518
_cell_angle_alpha    90.00079073237231
_cell_angle_beta     98.6129713628925
_cell_angle_gamma    89.99955250367049

_space_group_name_H-M_alt    "P 1"
_space_group_IT_number       1

loop_
  _space_group_symop_operation_xyz
  'x, y, z'

loop_
  _atom_site_type_symbol
  _atom_site_label
  _atom_site_symmetry_multiplicity
  _atom_site_fract_x
  _atom_site_fract_y
  _atom_site_fract_z
  _atom_site_occupancy
  Hg  Hg1       1.0  0.5000018301083529  3.182844849999998e-07  1.125471712303754e-06  1.0000
  Hg  Hg2       1.0  0.4999987301541892  0.49999853905912756  0.5000001016148302  1.0000
  H   H1        1.0  0.4992057563344545  0.28374620465081785  0.7741460198446289  1.0000
  H   H2        1.0  0.5007941396981365  0.7837469202295041  0.7258547356397357  1.0000
  H   H3        1.0  0.5007953665046969  0.7162549824550409  0.225857588710859  1.0000
  H   H4        1.0  0.49919966119338727  0.21625262323929917  0.27413977021705443  1.0000
  H   H5        1.0  0.5372804457648853  0.11537612677192748  0.6745087762789124  1.0000
  H   H6        1.0  0.46272334977108903  0.6153785253601852  0.8254932490777589  1.0000
  H   H7        1.0  0.46272190141176145  0.8846258821145835  0.3254934206191749  1.0000
  H   H8        1.0  0.5372765613001036  0.38462183989683035  0.17450260278931037  1.0000
  H   H9        1.0  0.7319354862764059  0.9695254576403941  0.7526778587971845  1.0000
  H   H10       1.0  0.26806402819828884  0.4695263904322999  0.7473206567201769  1.0000
  H   H11       1.0  0.26806563865410726  0.030476551248497703  0.24732422170559687  1.0000
  H   H12       1.0  0.7319371040715765  0.5304739748280197  0.2526760755710241  1.0000
  H   H13       1.0  0.881579777762461  0.9934060818329867  0.9301626456596634  1.0000
  H   H14       1.0  0.11841953183536451  0.49340845667438765  0.5698346281780147  1.0000
  H   H15       1.0  0.11842257151267431  0.006595105247761499  0.06983802317586199  1.0000
  H   H16       1.0  0.8815779316011574  0.5065919086044204  0.4301632829848927  1.0000
  H   H17       1.0  0.0015152549212303001  0.3083945237099854  0.18665554029605144  1.0000
  H   H18       1.0  0.9984887427645291  0.8083947233394825  0.31335073097888255  1.0000
  H   H19       1.0  0.9984858689653818  0.691606663390189  0.8133473042306176  1.0000
  H   H20       1.0  0.0015136075651938005  0.19160482014679298  0.6866491738179687  1.0000
  H   H21       1.0  0.17935135823890394  0.352112297677138  0.3546571958341431  1.0000
  H   H22       1.0  0.8206485927480501  0.8521183387782969  0.14535001456918908  1.0000
  H   H23       1.0  0.8206448756228114  0.6478872458494179  0.6453459471302592  1.0000
  H   H24       1.0  0.17935131307870483  0.14788367009592207  0.8546496574518299  1.0000
  H   H25       1.0  0.09433490454864571  0.027099410266970405  0.46488577703627226  1.0000
  H   H26       1.0  0.9056654281552383  0.5271050055678614  0.035110426856967074  1.0000
  H   H27       1.0  0.9056686701185797  0.9729009549999644  0.5351127161031712  1.0000
  H   H28       1.0  0.09433570306360652  0.4728961814925369  0.9648870694679769  1.0000
  H   H29       1.0  0.9053000093262897  0.987552639076128  0.30198104638481027  1.0000
  H   H30       1.0  0.09469756342568302  0.48755375797628625  0.19801468326390645  1.0000
  H   H31       1.0  0.09470233995953238  0.012446082621430299  0.6980196224359358  1.0000
  H   H32       1.0  0.9053047900464221  0.5124457854929432  0.8019829294464955  1.0000
  C   C1        1.0  0.7763601637397175  0.15193756030095065  0.9540850596148116  1.0000
  C   C2        1.0  0.2236347633990121  0.6519395356171813  0.5459135332906866  1.0000
  C   C3        1.0  0.22363973999923561  0.8480628049958339  0.0459161404539898  1.0000
  C   C4        1.0  0.7763590322516338  0.3480608296744307  0.45408479271512175  1.0000
  C   C5        1.0  0.668351087561426  0.23368878368147242  0.9072813393507884  1.0000
  C   C6        1.0  0.33164190881958433  0.7336908821936844  0.5927181174963818  1.0000
  C   C7        1.0  0.33164637065203817  0.7663082944481516  0.09272039193650267  1.0000
  C   C8        1.0  0.66834944233522  0.26631030489708246  0.40727997572373187  1.0000
  C   C9        1.0  0.5832786941056084  0.22002593693134287  0.8076730630116131  1.0000
  C   C10       1.0  0.41671930967046933  0.7200282433867996  0.6923266955772645  1.0000
  C   C11       1.0  0.4167187651481897  0.7799727847813926  0.19232790425671448  1.0000
  C   C12       1.0  0.583275708229877  0.27997130010803767  0.3076717468189187  1.0000
  C   C13       1.0  0.6063605963421922  0.1253366638867845  0.7514796764145258  1.0000
  C   C14       1.0  0.39363700583160727  0.6253382844562978  0.7485188302894554  1.0000
  C   C15       1.0  0.39363930634574734  0.8746645232100861  0.24852228768801865  1.0000
  C   C16       1.0  0.6063580162550295  0.3746620808102179  0.25147655599638336  1.0000
  C   C17       1.0  0.7145069225238743  0.04436201410246809  0.7953576335879544  1.0000
  C   C18       1.0  0.28548893903364814  0.5443635556926836  0.7046381412434923  1.0000
  C   C19       1.0  0.2854929822625465  0.9556383511886323  0.20464280245202804  1.0000
  C   C20       1.0  0.7145060820090877  0.4556359877851148  0.2953580090662342  1.0000
  C   C21       1.0  0.7984590204326452  0.057189923833391276  0.895385702674751  1.0000
  C   C22       1.0  0.20153916920551043  0.5571912453149962  0.6046142789185467  1.0000
  C   C23       1.0  0.20153966316578223  0.9428079760712079  0.10461385292632028  1.0000
  C   C24       1.0  0.7984570688531748  0.4428066546000339  0.39538580792072503  1.0000
  C   C25       1.0  0.8297902832771555  0.12415632841266698  0.13566101072355247  1.0000
  C   C26       1.0  0.17021409204304658  0.6241551025936047  0.36434064273167616  1.0000
  C   C27       1.0  0.17021817512662812  0.8758465022563797  0.8643417681560022  1.0000
  C   C28       1.0  0.8297882561881879  0.3758452626984266  0.635660790127737  1.0000
  C   C29       1.0  0.9411091708692397  0.14630905549993398  0.23418963424293077  1.0000
  C   C30       1.0  0.0588950134939878  0.6463110640894242  0.2658115208517557  1.0000
  C   C31       1.0  0.058894398560674695  0.8536913097954083  0.765812679040607  1.0000
  C   C32       1.0  0.9411073410255782  0.35368847937412784  0.7341853278298203  1.0000
  C   C33       1.0  0.021183412017457208  0.24805221308459824  0.24862458475034535  1.0000
  C   C34       1.0  0.9788223329692373  0.7480540611350152  0.251379551265181  1.0000
  C   C35       1.0  0.9788189330678279  0.7519489740188802  0.7513791402004556  1.0000
  C   C36       1.0  0.0211836862009491  0.2519438387439762  0.748619174650102  1.0000
  C   C37       1.0  0.1198739977005303  0.2723785779995395  0.3415255521173606  1.0000
  C   C38       1.0  0.880130317343259  0.7723828553683135  0.15847646714546934  1.0000
  C   C39       1.0  0.8801259039435011  0.7276217873086067  0.6584771760090717  1.0000
  C   C40       1.0  0.11987325417445761  0.22761915350446318  0.8415243180902933  1.0000
  C   C41       1.0  0.14064105133363822  0.19217689440714736  0.41874873095252235  1.0000
  C   C42       1.0  0.8593664022269111  0.6921834210672699  0.0812533233886015  1.0000
  C   C43       1.0  0.8593600746550224  0.8078226490928626  0.5812525855066539  1.0000
  C   C44       1.0  0.14063716929436512  0.3078177660111052  0.9187474618422298  1.0000
  C   C45       1.0  0.06876281350237429  0.0886128052378936  0.4044879515177654  1.0000
  C   C46       1.0  0.9312406507359584  0.5886166974532756  0.09551086725907251  1.0000
  C   C47       1.0  0.9312395347395466  0.9113850946709403  0.5955134813268613  1.0000
  C   C48       1.0  0.0687617027290273  0.4113844896047495  0.9044867454611774  1.0000
  C   C49       1.0  0.9663177904779516  0.0668067173374141  0.312781017863898  1.0000
  C   C50       1.0  0.03368586484347699  0.5668101566092288  0.1872160113604977  1.0000
  C   C51       1.0  0.0336857800029833  0.9331928261578494  0.6872205313858968  1.0000
  C   C52       1.0  0.9663152663753679  0.4331910304511766  0.8127814849644392  1.0000
  S   S1        1.0  0.6610619819998078  0.044446185023964795  0.15972442465265854  1.0000
  S   S2        1.0  0.3389357506635378  0.5444453506141045  0.3402755745728498  1.0000
  S   S3        1.0  0.338933031714248  0.9555525366992014  0.8402770738538761  1.0000
  S   S4        1.0  0.6610653774200445  0.45555419287454413  0.6597242138286958  1.0000
  N   N1        1.0  0.8659292345075755  0.16664402401180206  0.05189664630383107  1.0000
  N   N2        1.0  0.13406988673018816  0.6666458785675077  0.4481027590019335  1.0000
  N   N3        1.0  0.1340743349258986  0.8333555194891387  0.9481056669747826  1.0000
  N   N4        1.0  0.8659300212128612  0.33335119952895537  0.5518953849318818  1.0000
  N   N5        1.0  0.2360875264725095  0.2169544918451507  0.5195604934345893  1.0000
  N   N6        1.0  0.7639178363451364  0.7169584189237665  0.9804406907328127  1.0000
  N   N7        1.0  0.7639135995197107  0.7830442298604579  0.4804408230196628  1.0000
  N   N8        1.0  0.23608206948162544  0.28304358995045215  0.0195589812882062  1.0000
  Cl  Cl1       1.0  0.6397537672966322  0.3529194026339296  0.9749327105331174  1.0000
  Cl  Cl2       1.0  0.36024186460074503  0.8529178784783654  0.5250669971985786  1.0000
  Cl  Cl3       1.0  0.360247354502178  0.6470801408888107  0.025071662041334295  1.0000
  Cl  Cl4       1.0  0.6397494907581558  0.14708002141207288  0.47492803988655635  1.0000
  O   O1        1.0  0.2529270412919189  0.1431980721765882  0.5860267124627467  1.0000
  O   O2        1.0  0.7470728463614266  0.6432052094575623  0.9139752973688713  1.0000
  O   O3        1.0  0.7470740857513222  0.856799827728949  0.41397383995775516  1.0000
  O   O4        1.0  0.252923393774374  0.35679679941809894  0.0860232614374041  1.0000
  O   O5        1.0  0.2935633932646483  0.31092006739604017  0.5347336443333929  1.0000
  O   O6        1.0  0.7064448187620442  0.8109281826019198  0.9652713079386073  1.0000
  O   O7        1.0  0.7064377306219641  0.6890811197041344  0.46526920019327617  1.0000
  O   O8        1.0  0.29355630722304943  0.1890721826924917  0.0347300085254929  1.0000
