data_image0
_chemical_formula_structural       Zn2H32C44N12O4
_chemical_formula_sum              "Zn2 H32 C44 N12 O4"
_cell_length_a       8.241939329583333
_cell_length_b       9.990226520214279
_cell_length_c       12.496633159341762
_cell_angle_alpha    78.06750749339854
_cell_angle_beta     80.34929979852195
_cell_angle_gamma    81.37490553904419

_space_group_name_H-M_alt    "P 1"
_space_group_IT_number       1

loop_
  _space_group_symop_operation_xyz
  'x, y, z'

loop_
  _atom_site_type_symbol
  _atom_site_label
  _atom_site_symmetry_multiplicity
  _atom_site_fract_x
  _atom_site_fract_y
  _atom_site_fract_z
  _atom_site_occupancy
  Zn  Zn1       1.0  0.7119517389901092  0.7536635789654228  0.7285606430656131  1.0000
  Zn  Zn2       1.0  0.2880591294614236  0.2463258068670627  0.2714382605202559  1.0000
  H   H1        1.0  0.5236903547627918  0.05169576941515431  0.7567914881832465  1.0000
  H   H2        1.0  0.47630645186050213  0.9483060809655514  0.2432047472737509  1.0000
  H   H3        1.0  0.44838941373771485  0.7729416720061908  0.5643714328330915  1.0000
  H   H4        1.0  0.55162570882532  0.22704345665452047  0.4356308214188616  1.0000
  H   H5        1.0  0.2664626008634415  0.8945037634123167  0.4108257083535491  1.0000
  H   H6        1.0  0.7335448076860088  0.10548496904758049  0.589164837702427  1.0000
  H   H7        1.0  0.9884335374173004  0.07669049299077102  0.6777274175318554  1.0000
  H   H8        1.0  0.01157637047435869  0.9233064436372515  0.32226253244608233  1.0000
  H   H9        1.0  0.7957152420506477  0.7307458137742557  0.4665033217483272  1.0000
  H   H10       1.0  0.20428176149550845  0.2692535329276851  0.5335036492880364  1.0000
  H   H11       1.0  0.0914784661591597  0.6165088509505807  0.7243818468143317  1.0000
  H   H12       1.0  0.9085383544636941  0.3834732900909685  0.2756182429255247  1.0000
  H   H13       1.0  0.34466034780137983  0.43068796486925015  0.6870219230660695  1.0000
  H   H14       1.0  0.6553498748673549  0.5692972675041048  0.31297842396269715  1.0000
  H   H15       1.0  0.3617597689218499  0.6553687503531196  0.3512753946265762  1.0000
  H   H16       1.0  0.6382427352979932  0.34461033895387067  0.6487258052471816  1.0000
  H   H17       1.0  0.7201572804615425  0.397122611607756  0.8399045269671606  1.0000
  H   H18       1.0  0.27983133243078845  0.6028840829561021  0.16009909496897734  1.0000
  H   H19       1.0  0.3567460560137832  0.743121003082294  0.8244327412253228  1.0000
  H   H20       1.0  0.6432474870601652  0.2568937584356092  0.17557325380210645  1.0000
  H   H21       1.0  0.13727360309481906  0.7014392283758681  0.009168591495964077  1.0000
  H   H22       1.0  0.8627130304557299  0.29858061600607044  0.9908390185874296  1.0000
  H   H23       1.0  0.14956542832959496  0.31847369453662827  0.8983008762804092  1.0000
  H   H24       1.0  0.8504239858451257  0.6815441918145311  0.10170431408979398  1.0000
  H   H25       1.0  0.0866858026444817  0.9306769441687381  0.8172406636065404  1.0000
  H   H26       1.0  0.9133165117254906  0.0693207511486733  0.18275637598572567  1.0000
  H   H27       1.0  0.7239035848508166  0.9545948751190992  0.10541109829927117  1.0000
  H   H28       1.0  0.2760918015017709  0.0454175474985874  0.8945774139772739  1.0000
  H   H29       1.0  0.08090312720987208  0.6348160234050796  0.3852378249276002  1.0000
  H   H30       1.0  0.9190921938477034  0.36517834510796393  0.6147660074141826  1.0000
  H   H31       1.0  0.44011209121815403  0.31324717316445577  0.9439215621728396  1.0000
  H   H32       1.0  0.5598741622603073  0.6867663213675146  0.05609097092496995  1.0000
  C   C1        1.0  0.465653557879847  0.0067128169302037915  0.7027877339794346  1.0000
  C   C2        1.0  0.5343458812260734  0.993288105328929  0.2972059544247969  1.0000
  C   C3        1.0  0.42644639839235776  0.862388641664772  0.6037617208124432  1.0000
  C   C4        1.0  0.573567577253769  0.1376048969851809  0.39623548360748373  1.0000
  C   C5        1.0  0.2945085248835754  0.967041300153028  0.6033831689765707  1.0000
  C   C6        1.0  0.7054959778294362  0.032950522676181  0.3966072507837382  1.0000
  C   C7        1.0  0.1456348969288116  0.9830145335139733  0.5509949784346588  1.0000
  C   C8        1.0  0.8543699097103925  0.0169752636399139  0.44899488978169455  1.0000
  C   C9        1.0  0.14875432763426494  0.9388771391465979  0.4508267913140146  1.0000
  C   C10       1.0  0.8512527999182781  0.06111372141793231  0.5491618876166273  1.0000
  C   C11       1.0  0.993346597470584  0.0441523688655465  0.5990631461975441  1.0000
  C   C12       1.0  0.006666341469767162  0.9558403450546394  0.4009294760849116  1.0000
  C   C13       1.0  0.8983665427848424  0.6884335043510462  0.5127065596501481  1.0000
  C   C14       1.0  0.10163692586007045  0.31156384921450814  0.4872984143115461  1.0000
  C   C15       1.0  0.05698171882936981  0.6266566666268006  0.6428133811079207  1.0000
  C   C16       1.0  0.9430246482939354  0.37332952833206434  0.3571888346120389  1.0000
  C   C17       1.0  0.15523932255475603  0.6015406808161786  0.5460656694667989  1.0000
  C   C18       1.0  0.8447619583172282  0.39844647704902775  0.4539385428058722  1.0000
  C   C19       1.0  0.3295518998538896  0.5494168695297148  0.5222741896784342  1.0000
  C   C20       1.0  0.6704548167691228  0.4505755387067083  0.4777263279194842  1.0000
  C   C21       1.0  0.41254560655767136  0.46288503245104834  0.6052657382664961  1.0000
  C   C22       1.0  0.5874633471896901  0.537100029527629  0.39473876773926975  1.0000
  C   C23       1.0  0.4204953138558523  0.585182984463195  0.4167039490143197  1.0000
  C   C24       1.0  0.5795049608827371  0.4148034852446472  0.5832924562284987  1.0000
  C   C25       1.0  0.6015338188902676  0.4604237421132072  0.8476596517744001  1.0000
  C   C26       1.0  0.39845550413741654  0.5395776663321643  0.15234783175196037  1.0000
  C   C27       1.0  0.41042832104510313  0.6366607196127418  0.8442316425007945  1.0000
  C   C28       1.0  0.5895624493328242  0.36334799998478223  0.15577227525624687  1.0000
  C   C29       1.0  0.33476052377213256  0.5223728421702845  0.898272549818401  1.0000
  C   C30       1.0  0.6652304173915768  0.47764298404160854  0.10173276736941972  1.0000
  C   C31       1.0  0.16399294666461367  0.5105379093517329  0.9487635267408336  1.0000
  C   C32       1.0  0.8359966000804064  0.4894869128982793  0.05124709417561488  1.0000
  C   C33       1.0  0.07723715238767426  0.6126417495489778  0.005862798634154776  1.0000
  C   C34       1.0  0.9227554254060378  0.38737884999319055  0.9941504945868049  1.0000
  C   C35       1.0  0.08429623108274598  0.3981997045459948  0.942743749313259  1.0000
  C   C36       1.0  0.9156944287990001  0.6018262838648029  0.057263391509714295  1.0000
  C   C37       1.0  0.7796542755590392  0.8600888679486405  0.9120126579443666  1.0000
  C   C38       1.0  0.2203503259440964  0.13991946692945592  0.0879746624366931  1.0000
  C   C39       1.0  0.892257784879405  0.9352374355726955  0.9561526682135623  1.0000
  C   C40       1.0  0.10773788247008301  0.0647728589403513  0.0438377111883099  1.0000
  C   C41       1.0  0.04871561867871322  0.9614128375786352  0.8972314469668918  1.0000
  C   C42       1.0  0.9512784531789864  0.03859117569147941  0.10276237086473121  1.0000
  C   C43       1.0  0.844809094731211  0.9747022465594812  0.059320869630589336  1.0000
  C   C44       1.0  0.15518457063226518  0.025313061248063196  0.9406722258273277  1.0000
  N   N1        1.0  0.5349189369215922  0.8873431224414505  0.6678768451518166  1.0000
  N   N2        1.0  0.46508363551599524  0.11265234234201674  0.3321244802350592  1.0000
  N   N3        1.0  0.32143976587595097  0.058872769405837695  0.6664100312655423  1.0000
  N   N4        1.0  0.6785595253734797  0.9411211486682377  0.3335798390386345  1.0000
  N   N5        1.0  0.8986236572314539  0.679694111894577  0.6206799736646786  1.0000
  N   N6        1.0  0.10138038105036169  0.32029901960480345  0.379327928324571  1.0000
  N   N7        1.0  0.05040392695316602  0.6412151858967831  0.46615794873950034  1.0000
  N   N8        1.0  0.9495969018510806  0.35877502755296586  0.5338466877375581  1.0000
  N   N9        1.0  0.5761800804487721  0.5967671783863723  0.8127913229079269  1.0000
  N   N10       1.0  0.4238140401902299  0.40323536111419156  0.18721310316348652  1.0000
  N   N11       1.0  0.45815902543831305  0.4114490014012945  0.8988247391679851  1.0000
  N   N12       1.0  0.5418294160981317  0.5885666547367452  0.10118486485835382  1.0000
  O   O1        1.0  0.6429962663640792  0.8315119341551312  0.9675043652267519  1.0000
  O   O2        1.0  0.3570007419024322  0.1684891253180751  0.032486354008142385  1.0000
  O   O3        1.0  0.8383880398682066  0.8283167743590172  0.816601477615535  1.0000
  O   O4        1.0  0.1616143277183753  0.17168919405438746  0.18339360917556044  1.0000
