data_image0
_chemical_formula_structural       Al4H36C58O20
_chemical_formula_sum              "Al4 H36 C58 O20"
_cell_length_a       6.911930497771271
_cell_length_b       16.71680177533371
_cell_length_c       19.651458890093313
_cell_angle_alpha    71.09188977574124
_cell_angle_beta     89.76600393339375
_cell_angle_gamma    89.80457342020166

_space_group_name_H-M_alt    "P 1"
_space_group_IT_number       1

loop_
  _space_group_symop_operation_xyz
  'x, y, z'

loop_
  _atom_site_type_symbol
  _atom_site_label
  _atom_site_symmetry_multiplicity
  _atom_site_fract_x
  _atom_site_fract_y
  _atom_site_fract_z
  _atom_site_occupancy
  Al  Al1       1.0  0.09656770157370431  0.500701865198842  0.5002173067509188  1.0000
  Al  Al2       1.0  0.5964989025642566  0.49903829655949766  0.5008389479646806  1.0000
  Al  Al3       1.0  0.6296865400797743  0.9988316811552876  0.0006287008855920986  1.0000
  Al  Al4       1.0  0.12960331246304693  0.0009070425886009002  3.740864724480001e-05  1.0000
  H   H1        1.0  0.5528826715921369  0.30156847305458023  0.6955490163311635  1.0000
  H   H2        1.0  0.0475286379696129  0.6967201240623312  0.3051505006208756  1.0000
  H   H3        1.0  0.5719245943186236  0.18523200767787526  0.8141798747628712  1.0000
  H   H4        1.0  0.06581902262464473  0.8138015165714236  0.18703593387621706  1.0000
  H   H5        1.0  0.32340618400768756  0.15955909822889683  0.7778724740534173  1.0000
  H   H6        1.0  0.815709134418398  0.8389385265157048  0.22000883355633497  1.0000
  H   H7        1.0  0.3234924906267835  0.23535940728606178  0.8245478748278712  1.0000
  H   H8        1.0  0.8181287818821374  0.7621641759555262  0.1742350100387569  1.0000
  H   H9        1.0  0.30433411047297193  0.2789116022978321  0.6588400093059759  1.0000
  H   H10       1.0  0.7977244839038774  0.7210348524400063  0.3397461364833133  1.0000
  H   H11       1.0  0.30246141299167567  0.3542746688000734  0.7055071103778373  1.0000
  H   H12       1.0  0.7987843773520565  0.6444699200131583  0.2943123178277319  1.0000
  H   H13       1.0  0.11561127134773132  0.41229343481854414  0.33006488561393604  1.0000
  H   H14       1.0  0.08587074692306372  0.5921605701918227  0.6717020061953249  1.0000
  H   H15       1.0  0.42174627931794356  0.19079167433552166  0.3633946611725206  1.0000
  H   H16       1.0  0.7962734549565909  0.8050114375293803  0.6328376600876169  1.0000
  H   H17       1.0  0.42733017415082486  0.11485842480205126  0.276300265190656  1.0000
  H   H18       1.0  0.8073693804772191  0.8796706933400389  0.720734770878991  1.0000
  H   H19       1.0  0.5903022288866354  0.08093492572868406  0.1751111786992254  1.0000
  H   H20       1.0  0.6592191065471055  0.9143269296160742  0.8240455713656016  1.0000
  H   H21       1.0  0.14808832388397516  0.18654715354623622  0.09994360749244889  1.0000
  H   H22       1.0  0.09919673795367598  0.8157563835072356  0.9036885432643229  1.0000
  H   H23       1.0  0.29487796498639796  0.2932432691227902  0.14753716917913806  1.0000
  H   H24       1.0  0.9372912523298211  0.7114480785438249  0.8569823782016639  1.0000
  H   H25       1.0  0.2831825334472882  0.37575456201716423  0.23175873699999977  1.0000
  H   H26       1.0  0.9313488567775111  0.6304345271194834  0.7716413814385064  1.0000
  H   H27       1.0  0.49117459211269227  0.21726394474670496  0.45337599866120126  1.0000
  H   H28       1.0  0.5841879742344744  0.29764172939411554  0.4845535483970308  1.0000
  H   H29       1.0  0.40742445005550826  0.32283376683936643  0.4158405448240003  1.0000
  H   H30       1.0  0.7156618785181976  0.7796726483192203  0.5435315841881732  1.0000
  H   H31       1.0  0.7941509159747399  0.6732131747374268  0.5805954946039548  1.0000
  H   H32       1.0  0.6134029459072253  0.7003582472670902  0.5131997196803226  1.0000
  H   H33       1.0  0.3431874958604695  0.3942079590576244  0.5012531866503238  1.0000
  H   H34       1.0  0.8456951820973373  0.6077283200989216  0.49456055023751583  1.0000
  H   H35       1.0  0.38156511791071074  0.10991570060288319  0.9878565287843699  1.0000
  H   H36       1.0  0.8832497335664369  0.8897070368975053  0.013096582978967295  1.0000
  C   C1        1.0  0.34959674858055223  0.5865409565361619  0.5765411507700121  1.0000
  C   C2        1.0  0.8466539048864021  0.4135631368247348  0.424055056629669  1.0000
  C   C3        1.0  0.34412911432825416  0.6143645454404025  0.38919552466929724  1.0000
  C   C4        1.0  0.8500394446306603  0.38519162762592185  0.6114907122176517  1.0000
  C   C5        1.0  0.030693605016402597  0.28418837808160197  0.714273314833754  1.0000
  C   C6        1.0  0.5251618338401444  0.7142243801581147  0.2852244428062178  1.0000
  C   C7        1.0  0.8571523993658802  0.31618655957817055  0.6815984373652312  1.0000
  C   C8        1.0  0.3520309256303449  0.6824381493294996  0.3185553277149608  1.0000
  C   C9        1.0  0.690759947267452  0.27822828543923356  0.7195390437903766  1.0000
  C   C10       1.0  0.18527019394783645  0.7200716449704461  0.2808593205132439  1.0000
  C   C11       1.0  0.7012158257911237  0.21366421043877198  0.7854511243409872  1.0000
  C   C12       1.0  0.19524096012487044  0.7848914339135221  0.21514757325998343  1.0000
  C   C13       1.0  0.8781262088538926  0.18178616223455896  0.8181659610806874  1.0000
  C   C14       1.0  0.3717641907409259  0.8166131225772876  0.1817348780744084  1.0000
  C   C15       1.0  0.0414472860215795  0.21905836492485536  0.7799444448308748  1.0000
  C   C16       1.0  0.535323999799374  0.7787758446454947  0.21914011906923042  1.0000
  C   C17       1.0  0.258344421045159  0.21857484648520406  0.7801954963607896  1.0000
  C   C18       1.0  0.7521464373530407  0.7795248200901812  0.21838590799232802  1.0000
  C   C19       1.0  0.2457790889015286  0.2928723204291757  0.7058113764202432  1.0000
  C   C20       1.0  0.7403040996403049  0.7060083105535073  0.2932954753722541  1.0000
  C   C21       1.0  0.0008278419807084014  0.3678686837732741  0.32951556274053206  1.0000
  C   C22       1.0  0.20457990911543794  0.6351379125710609  0.6713513244964416  1.0000
  C   C23       1.0  0.8459561686990539  0.35825836980714604  0.37762156306644096  1.0000
  C   C24       1.0  0.35591325042083355  0.6428075558144786  0.622127016129113  1.0000
  C   C25       1.0  0.6945498689998572  0.3005298072039226  0.380643450722907  1.0000
  C   C26       1.0  0.5121385540113862  0.6986738229005455  0.6179219216131385  1.0000
  C   C27       1.0  0.6979424580491626  0.25523511581776154  0.330742446549749  1.0000
  C   C28       1.0  0.517888771301216  0.7436706882934918  0.6679732191596912  1.0000
  C   C29       1.0  0.8551166379683082  0.26616397177146217  0.28075854382963417  1.0000
  C   C30       1.0  0.3650763736185993  0.7342364701472309  0.7194751182246788  1.0000
  C   C31       1.0  0.009351315649631403  0.32293123884107194  0.28066886280313236  1.0000
  C   C32       1.0  0.20532072489713474  0.6797488834141847  0.7205510096607524  1.0000
  C   C33       1.0  0.5454312083689317  0.19843005560689173  0.32740452278862614  1.0000
  C   C34       1.0  0.6759001914941011  0.7984293812435656  0.6701251613996034  1.0000
  C   C35       1.0  0.5477174370252486  0.1559765403896948  0.27861429507344576  1.0000
  C   C36       1.0  0.6830838959520876  0.8401307207618207  0.7193935278987167  1.0000
  C   C37       1.0  0.7047611398607713  0.16485684382424642  0.22899913183181292  1.0000
  C   C38       1.0  0.5310381645617924  0.8325182876378606  0.7707471851210386  1.0000
  C   C39       1.0  0.8600866383812547  0.22029665472238957  0.2310675451199984  1.0000
  C   C40       1.0  0.37015013183550854  0.7793469810867254  0.7697137060465805  1.0000
  C   C41       1.0  0.0207736927996862  0.22938479862929745  0.18291346192454228  1.0000
  C   C42       1.0  0.2139232709844876  0.7717706893998443  0.8194563590562963  1.0000
  C   C43       1.0  0.172930088337381  0.28691039378738037  0.1843472454216482  1.0000
  C   C44       1.0  0.055891886559166395  0.7165847595773018  0.818997308615401  1.0000
  C   C45       1.0  0.16665702889023487  0.33219022946990157  0.2309225364957044  1.0000
  C   C46       1.0  0.0524673861593499  0.6720690792023661  0.7718179945335066  1.0000
  C   C47       1.0  0.7101037239634495  0.12175026314105963  0.1785112247453924  1.0000
  C   C48       1.0  0.5353918640413653  0.8750478899313737  0.8216756314481088  1.0000
  C   C49       1.0  0.8697069230305131  0.1294489750178656  0.132758796957603  1.0000
  C   C50       1.0  0.3797044154824505  0.8691290307140352  0.8687799068429811  1.0000
  C   C51       1.0  0.024607729854572796  0.18187488673842014  0.13573237822082257  1.0000
  C   C52       1.0  0.21969626065348544  0.8187789895735239  0.8669667847684933  1.0000
  C   C53       1.0  0.37471178401163746  0.8856667185843324  0.11145424042326368  1.0000
  C   C54       1.0  0.8830420068622615  0.11365658430874255  0.8889478208102799  1.0000
  C   C55       1.0  0.38318559470339153  0.9170611315663353  0.9210329034584317  1.0000
  C   C56       1.0  0.8726987162672087  0.08201294210323343  0.08011499820301539  1.0000
  C   C57       1.0  0.5363120675472004  0.2836685130160533  0.4365855899128093  1.0000
  C   C58       1.0  0.6666951978533575  0.7137757937459811  0.5607614427101949  1.0000
  O   O1        1.0  0.5072883798749075  0.5903277834481103  0.4193741977935374  1.0000
  O   O2        1.0  0.014206976225374004  0.41521451452726427  0.5856250429187353  1.0000
  O   O3        1.0  0.18412168375709834  0.5696502345536846  0.5559767114208964  1.0000
  O   O4        1.0  0.682615181368824  0.43908285902391264  0.4388164448549147  1.0000
  O   O5        1.0  0.1774717490728861  0.5866650845288178  0.4138934687705174  1.0000
  O   O6        1.0  0.6846255173410256  0.4077132775846196  0.5828897216263726  1.0000
  O   O7        1.0  0.011250112448642798  0.43197589979946854  0.44415182161731076  1.0000
  O   O8        1.0  0.5120069596437774  0.5584769946034528  0.5631280309941218  1.0000
  O   O9        1.0  0.34621496373888755  0.4489496041339652  0.5082807984162016  1.0000
  O   O10       1.0  0.8457924949783121  0.5507122778635181  0.4922785551312287  1.0000
  O   O11       1.0  0.22009696045208926  0.9310926594341428  0.9456656356624717  1.0000
  O   O12       1.0  0.7088043850355633  0.057863585271569214  0.06445997865505859  1.0000
  O   O13       1.0  0.5399599830009194  0.9075177607146332  0.08210636320245608  1.0000
  O   O14       1.0  0.049909210799825104  0.08570564895159556  0.9131047871002096  1.0000
  O   O15       1.0  0.5488283955783261  0.9394243752843326  0.9369065489842324  1.0000
  O   O16       1.0  0.0369345699395609  0.07025134809779843  0.05489800015585899  1.0000
  O   O17       1.0  0.7204350451063207  0.08979716482986082  0.9197224763688324  1.0000
  O   O18       1.0  0.2107415413113145  0.9164274236614252  0.08640475909054149  1.0000
  O   O19       1.0  0.379968136465557  0.0506458948555206  0.9918657257710988  1.0000
  O   O20       1.0  0.8807199208784909  0.9490727308183797  0.008735403045648094  1.0000
