data_image0
_chemical_formula_structural       Zr6H28C66S10O52
_chemical_formula_sum              "Zr6 H28 C66 S10 O52"
_cell_length_a       16.436297462587618
_cell_length_b       16.525732884241453
_cell_length_c       16.409285951424078
_cell_angle_alpha    61.72656727478443
_cell_angle_beta     60.424240484774806
_cell_angle_gamma    59.724739912590024

_space_group_name_H-M_alt    "P 1"
_space_group_IT_number       1

loop_
  _space_group_symop_operation_xyz
  'x, y, z'

loop_
  _atom_site_type_symbol
  _atom_site_label
  _atom_site_symmetry_multiplicity
  _atom_site_fract_x
  _atom_site_fract_y
  _atom_site_fract_z
  _atom_site_occupancy
  Zr  Zr1       1.0  0.894408336684627  0.8958195137870105  0.593965235271959  1.0000
  Zr  Zr2       1.0  0.11572115259831159  0.09902582082681728  0.39098379620560303  1.0000
  Zr  Zr3       1.0  0.10913424028044012  0.8891406737625189  0.6027154977121397  1.0000
  Zr  Zr4       1.0  0.8991883716355884  0.10752983126225502  0.3837448842732129  1.0000
  Zr  Zr5       1.0  0.1121235192248021  0.8904892548418532  0.3854511285289489  1.0000
  Zr  Zr6       1.0  0.8970312565008101  0.10539821204363878  0.6000089561275387  1.0000
  H   H1        1.0  0.08300412826699945  0.7474434056758738  0.5746679671366977  1.0000
  H   H2        1.0  0.09528972461092171  0.07925517744648398  0.24238952128767727  1.0000
  H   H3        1.0  0.0890690366648316  0.07905928062948685  0.5826420108082643  1.0000
  H   H4        1.0  0.749225823782801  0.08749678821727984  0.5737033811567329  1.0000
  H   H5        1.0  0.8611340414453466  0.6543261334151039  0.8357124351566297  1.0000
  H   H6        1.0  0.15051616862690761  0.3391346351492928  0.14772653984835668  1.0000
  H   H7        1.0  0.8576502635118642  0.29452778252288414  0.6458252796380605  1.0000
  H   H8        1.0  0.1290393602992026  0.7274822609701843  0.3128456620833545  1.0000
  H   H9        1.0  0.331030898710125  0.8179030711885388  0.22303632052084038  1.0000
  H   H10       1.0  0.7024758203764278  0.15036964169084394  0.7893588880924937  1.0000
  H   H11       1.0  0.1599827245647916  0.7691430749054646  0.9635747467959347  1.0000
  H   H12       1.0  0.7683775643411722  0.08326957097509083  0.19809714746827464  1.0000
  H   H13       1.0  0.4371277955098307  0.7090373115392551  0.5825549926814018  1.0000
  H   H14       1.0  0.5992820907754535  0.47996851417835973  0.26377660076457216  1.0000
  H   H15       1.0  0.428923340830451  0.0887225520068853  0.25874067795794525  1.0000
  H   H16       1.0  0.7259449999585856  0.7637558668871162  0.5823433042604477  1.0000
  H   H17       1.0  0.24927452362201313  0.4224081969775639  0.039294158320160456  1.0000
  H   H18       1.0  0.226681142971259  0.5185925523136419  0.9327663384872764  1.0000
  H   H19       1.0  0.18473527923343627  0.5441942927790463  0.04350563331018251  1.0000
  H   H20       1.0  0.15781422269984785  0.6690388635993046  0.8602200293942418  1.0000
  H   H21       1.0  0.04132880278451291  0.7637183585516565  0.8849404509376199  1.0000
  H   H22       1.0  0.08313797668131444  0.6691312180701272  0.9839037655163879  1.0000
  H   H23       1.0  0.7867434542070202  0.5465449652584268  0.919502571350037  1.0000
  H   H24       1.0  0.8199219574604584  0.43962895065153146  0.015409072458325406  1.0000
  H   H25       1.0  0.7264172570284727  0.5504838223110227  0.04142034155531589  1.0000
  H   H26       1.0  0.8124486527967035  0.3660239123791484  0.1651626323500749  1.0000
  H   H27       1.0  0.8109589700133315  0.3899150225697596  0.25959886029863094  1.0000
  H   H28       1.0  0.764128269895366  0.48933424679574955  0.1657690568443254  1.0000
  C   C1        1.0  0.9996696645376916  0.7366295622729097  0.47014762730875487  1.0000
  C   C2        1.0  0.29393904999264464  0.9751956296210406  0.2319380235426676  1.0000
  C   C3        1.0  0.9969632102345473  0.27458821761413055  0.495276288835889  1.0000
  C   C4        1.0  0.7329995764259606  0.0001816577071806734  0.7694011867862613  1.0000
  C   C5        1.0  0.9865386952131203  0.7422311391110056  0.7659257760572444  1.0000
  C   C6        1.0  0.7360550217528185  0.0010217327720453827  0.4812963206835903  1.0000
  C   C7        1.0  0.006010543758513552  0.27049388191235113  0.23684891634063376  1.0000
  C   C8        1.0  0.2812686984296564  0.9865002194335302  0.49657822919545663  1.0000
  C   C9        1.0  0.274971035707992  0.723508789757595  0.49356544711149297  1.0000
  C   C10       1.0  0.9987293971395417  0.0010663466028476777  0.7669161726341684  1.0000
  C   C11       1.0  0.7331207719559316  0.27193526634661686  0.49499434959486166  1.0000
  C   C12       1.0  0.008316798122592835  0.9982194166593172  0.2183528591341285  1.0000
  C   C13       1.0  0.9268615098434126  0.42509129410406366  0.5558432271116373  1.0000
  C   C14       1.0  0.053118488246958924  0.6023673010636728  0.39286658018709636  1.0000
  C   C15       1.0  0.9887924801431253  0.3700625208081617  0.4889609848623451  1.0000
  C   C16       1.0  0.9963427949181709  0.6525332779670379  0.46383261678640497  1.0000
  C   C17       1.0  0.02702610718486641  0.5190178451013026  0.42711155110754356  1.0000
  C   C18       1.0  0.9516601414276948  0.5092842742259335  0.519182170951069  1.0000
  C   C19       1.0  0.45218646509570687  0.8976925714673882  0.0979794615427635  1.0000
  C   C20       1.0  0.5925715390625967  0.060684573717701105  0.9201139261183755  1.0000
  C   C21       1.0  0.38777606839870793  0.9688271490951477  0.1479187352313927  1.0000
  C   C22       1.0  0.6523459777506272  0.993776186062405  0.865105455432946  1.0000
  C   C23       1.0  0.520281214507186  0.024103363439287755  0.004440883392838674  1.0000
  C   C24       1.0  0.5272248109578613  0.9319626528223349  0.014401577893167122  1.0000
  C   C25       1.0  0.07769022997866398  0.9437542489457725  0.8945356573275091  1.0000
  C   C26       1.0  0.936827132408297  0.06725325491559166  0.08210521262066793  1.0000
  C   C27       1.0  0.0029920742561699706  0.004882931935561874  0.8521380747258078  1.0000
  C   C28       1.0  0.008028083741173482  0.0009410006016992144  0.1281493946740468  1.0000
  C   C29       1.0  0.9603705789204255  0.044059933182531145  0.9984519657020738  1.0000
  C   C30       1.0  0.05102618296010766  0.9641983184498741  0.9808227981170533  1.0000
  C   C31       1.0  0.41296643295748936  0.5859306455284853  0.5631411244505529  1.0000
  C   C32       1.0  0.5845167186204066  0.4010953758385228  0.43617367959110714  1.0000
  C   C33       1.0  0.36285520334929794  0.6334197601366256  0.49589898442468433  1.0000
  C   C34       1.0  0.6396509031467019  0.35704229669608617  0.4985007156190377  1.0000
  C   C35       1.0  0.50405879010966  0.48673166223650804  0.4578996378540693  1.0000
  C   C36       1.0  0.49622237591110974  0.502483639872814  0.5393715719886882  1.0000
  C   C37       1.0  0.026332039784669786  0.6277606719471648  0.9226913326224633  1.0000
  C   C38       1.0  0.900529641888703  0.6247470470529422  0.8866422168084471  1.0000
  C   C39       1.0  0.8782426756936349  0.5522787949296414  0.9728732150832826  1.0000
  C   C40       1.0  0.9389889104071261  0.5069276658077085  0.03396822908810264  1.0000
  C   C41       1.0  0.9236309781771936  0.4277415401724552  0.12308428769001258  1.0000
  C   C42       1.0  0.08945089713945725  0.3905305097611133  0.11869087715634655  1.0000
  C   C43       1.0  0.0980864506628692  0.47673567219315766  0.04624641274897097  1.0000
  C   C44       1.0  0.020977764507165306  0.538516476220515  0.0017007621641055167  1.0000
  C   C45       1.0  0.9714110857874161  0.6645869998192209  0.8613994256758912  1.0000
  C   C46       1.0  0.003474890441552212  0.36590586797980507  0.15916576148681114  1.0000
  C   C47       1.0  0.4185110193912109  0.05499457944095802  0.42615761061264823  1.0000
  C   C48       1.0  0.6008913421915096  0.9303649216156699  0.5497080672131887  1.0000
  C   C49       1.0  0.37230217098444035  0.9861185913440238  0.49310516405308386  1.0000
  C   C50       1.0  0.6488206784667484  0.9975200537802633  0.4810151562818772  1.0000
  C   C51       1.0  0.5196512032409472  0.948615883415819  0.5265076426869156  1.0000
  C   C52       1.0  0.5049622461864162  0.03154428631336257  0.4441069693053805  1.0000
  C   C53       1.0  0.8447681474871872  0.4130066838796224  0.6529191269460811  1.0000
  C   C54       1.0  0.12668093241556747  0.6239037061385629  0.29132845249651496  1.0000
  C   C55       1.0  0.45909990312134846  0.7957642364723866  0.12036422463977195  1.0000
  C   C56       1.0  0.5901916578432916  0.15753150854610692  0.908116642212363  1.0000
  C   C57       1.0  0.18037937708177015  0.879586348771319  0.847734710139342  1.0000
  C   C58       1.0  0.8546489753708357  0.1586537438298805  0.10813577667774137  1.0000
  C   C59       1.0  0.37668458625516626  0.6098124238000436  0.6560754874355296  1.0000
  C   C60       1.0  0.5939821635078886  0.3577832103033387  0.36829211842693604  1.0000
  C   C61       1.0  0.3738458243411742  0.15148772281635559  0.35789229120684496  1.0000
  C   C62       1.0  0.6176275103396875  0.8616732843633556  0.6460007241390855  1.0000
  C   C63       1.0  0.19414199956790418  0.49235288476382516  0.012814204826184913  1.0000
  C   C64       1.0  0.08093642589751211  0.6848999388278613  0.9120626169062972  1.0000
  C   C65       1.0  0.7990736254893492  0.5196423445774202  0.9891888088760936  1.0000
  C   C66       1.0  0.822433621659634  0.4174316802894324  0.1808867688721918  1.0000
  S   S1        1.0  0.07111462180316853  0.4232946464402119  0.3835703211741047  1.0000
  S   S2        1.0  0.9112721331868059  0.6005391609869477  0.5670823219104831  1.0000
  S   S3        1.0  0.42162145610251395  0.07209230524829012  0.09571132135587844  1.0000
  S   S4        1.0  0.6222447648589341  0.8883068763958233  0.9186968928238812  1.0000
  S   S5        1.0  0.9050325285270092  0.09043529257454734  0.9120290598846877  1.0000
  S   S6        1.0  0.10519550689270568  0.914669139626625  0.06876132702311806  1.0000
  S   S7        1.0  0.4119922167355838  0.5756737529198971  0.40805831191345004  1.0000
  S   S8        1.0  0.5910563877055638  0.4149611332315856  0.5860418224748256  1.0000
  S   S9        1.0  0.42930336957716275  0.8975199660494437  0.5803124995611952  1.0000
  S   S10       1.0  0.5926688692687065  0.08532087078965132  0.3929226424827731  1.0000
  O   O1        1.0  0.9327696340698353  0.7706687462076044  0.5412613728311367  1.0000
  O   O2        1.0  0.2556459332030485  0.04621821647202035  0.26610164319207286  1.0000
  O   O3        1.0  0.06948654295702279  0.23383168582908812  0.4309534645289119  1.0000
  O   O4        1.0  0.7655420402257177  0.9357759045045524  0.7287359854405719  1.0000
  O   O5        1.0  0.05991934007554525  0.7712210851489657  0.7298791220970102  1.0000
  O   O6        1.0  0.7716048015494152  0.06753119613973269  0.4143683168474651  1.0000
  O   O7        1.0  0.9397947970905277  0.2344300470547366  0.26566181170314707  1.0000
  O   O8        1.0  0.24626953972163068  0.9193617413075118  0.5629197331505721  1.0000
  O   O9        1.0  0.24150820086853722  0.7571687446612856  0.42360839021087304  1.0000
  O   O10       1.0  0.9286435654140704  0.07018515546949555  0.7330232015770475  1.0000
  O   O11       1.0  0.7672722639518099  0.2381250260146286  0.5646636731710117  1.0000
  O   O12       1.0  0.07844776716141391  0.9285709311782286  0.25162641500598676  1.0000
  O   O13       1.0  0.06498262527158251  0.9288343176727453  0.7337062850735023  1.0000
  O   O14       1.0  0.7732239355015267  0.23868954033319764  0.4226755698228075  1.0000
  O   O15       1.0  0.9378547255194504  0.06660498135828877  0.2559790019697487  1.0000
  O   O16       1.0  0.23908907977970983  0.760671657055333  0.5624014251192901  1.0000
  O   O17       1.0  0.9257078548454131  0.7746186531362511  0.7203483658006601  1.0000
  O   O18       1.0  0.24401462320967238  0.056801044717865075  0.43022137575713515  1.0000
  O   O19       1.0  0.0798199413519285  0.2250186359840143  0.2695375200822738  1.0000
  O   O20       1.0  0.7695362320591315  0.9344977537864666  0.5514689818355264  1.0000
  O   O21       1.0  0.7656121404650023  0.07148469123760745  0.7316297887522367  1.0000
  O   O22       1.0  0.0716350507246446  0.7690418256153392  0.4054953103320996  1.0000
  O   O23       1.0  0.25409765442177673  0.910715646587562  0.26403044064164755  1.0000
  O   O24       1.0  0.930451630207415  0.2371343479197705  0.5662703650789424  1.0000
  O   O25       1.0  0.8217692378584258  0.06252987676764131  0.5505215753021419  1.0000
  O   O26       1.0  0.06469686174115444  0.05587521631736795  0.5576341744241873  1.0000
  O   O27       1.0  0.07137717954635292  0.05339621314703182  0.3134416258520005  1.0000
  O   O28       1.0  0.061841855776158756  0.8184769672043472  0.5485853283539583  1.0000
  O   O29       1.0  0.13913600695365597  0.9489899181581121  0.451591440916104  1.0000
  O   O30       1.0  0.9605251454459562  0.9563915713805857  0.4439732161183654  1.0000
  O   O31       1.0  0.9621111820616477  0.12930326609328083  0.4511641124134868  1.0000
  O   O32       1.0  0.9571288498938131  0.9563928108397305  0.6243263607885723  1.0000
  O   O33       1.0  0.8167916524000205  0.33593901667092013  0.6917314505081151  1.0000
  O   O34       1.0  0.8044928407352074  0.4760002620374733  0.6942224576321434  1.0000
  O   O35       1.0  0.15889837421929798  0.696902031428344  0.25941766274737427  1.0000
  O   O36       1.0  0.15427448640622277  0.5749435558573168  0.2388047770047804  1.0000
  O   O37       1.0  0.3855947505431344  0.7640986083000243  0.19312575178644653  1.0000
  O   O38       1.0  0.5336061824683256  0.7426167402182455  0.07245454761446252  1.0000
  O   O39       1.0  0.65654623929305  0.19612398549877944  0.8310006441121304  1.0000
  O   O40       1.0  0.5266015511084845  0.19869956638927266  0.9713049365690197  1.0000
  O   O41       1.0  0.21373340744627004  0.7854580380316635  0.9032971861111817  1.0000
  O   O42       1.0  0.2347488159967314  0.9114926962129457  0.7672514759869883  1.0000
  O   O43       1.0  0.7642271674464922  0.15165105273261756  0.1708637058883652  1.0000
  O   O44       1.0  0.8673971310313463  0.23649506622022168  0.07059693226530314  1.0000
  O   O45       1.0  0.40457422753796374  0.6768575948673714  0.6508631529561554  1.0000
  O   O46       1.0  0.32834289107230313  0.5667623279907871  0.7337776475096403  1.0000
  O   O47       1.0  0.5936336711629265  0.41856866897383327  0.27653432178999526  1.0000
  O   O48       1.0  0.59365768603066  0.2758140476207485  0.39490666227521837  1.0000
  O   O49       1.0  0.3947801111553488  0.15467087659607862  0.2659219601050963  1.0000
  O   O50       1.0  0.3250831715596689  0.22530340065710433  0.383411292116321  1.0000
  O   O51       1.0  0.686505301050964  0.7702699902372955  0.6485092749679565  1.0000
  O   O52       1.0  0.5663700531798807  0.8864196003810179  0.7202582662532179  1.0000
