data_image0
_chemical_formula_structural       Zn4H40C56N16O12
_chemical_formula_sum              "Zn4 H40 C56 N16 O12"
_cell_length_a       5.468411857403906
_cell_length_b       7.962029033648086
_cell_length_c       28.518160663203883
_cell_angle_alpha    90.00039625746798
_cell_angle_beta     90.00014900249674
_cell_angle_gamma    92.71101698081391

_space_group_name_H-M_alt    "P 1"
_space_group_IT_number       1

loop_
  _space_group_symop_operation_xyz
  'x, y, z'

loop_
  _atom_site_type_symbol
  _atom_site_label
  _atom_site_symmetry_multiplicity
  _atom_site_fract_x
  _atom_site_fract_y
  _atom_site_fract_z
  _atom_site_occupancy
  Zn  Zn1       1.0  0.9698463026180023  0.7045660258104292  0.6922804925446399  1.0000
  Zn  Zn2       1.0  0.5301573001239888  0.7954341442581879  0.19228187894309196  1.0000
  Zn  Zn3       1.0  0.030152302795571007  0.29543817925667076  0.3077196437931774  1.0000
  Zn  Zn4       1.0  0.4698448337335179  0.20456875149294262  0.8077168547793928  1.0000
  H   H1        1.0  0.7153104828085546  0.9801989319558331  0.7025993765778366  1.0000
  H   H2        1.0  0.7846918192040492  0.5198052997319992  0.20260037075805562  1.0000
  H   H3        1.0  0.28468409601318717  0.01980155400097771  0.2973993571403922  1.0000
  H   H4        1.0  0.21531301287170382  0.4802063696065133  0.7973987136272311  1.0000
  H   H5        1.0  0.5432145307748826  0.8375331680629474  0.6741990475029309  1.0000
  H   H6        1.0  0.9567854014024422  0.6624691054014918  0.17420075332826454  1.0000
  H   H7        1.0  0.45678004805461814  0.1624673179073284  0.3258007381765537  1.0000
  H   H8        1.0  0.04321905707789852  0.33753879264426  0.8257983310533346  1.0000
  H   H9        1.0  0.6076444744346716  0.8775928801793073  0.5903076470901423  1.0000
  H   H10       1.0  0.8923601567061752  0.6223933125976657  0.09030608727816507  1.0000
  H   H11       1.0  0.3923532592588685  0.122402525209182  0.40969283989282684  1.0000
  H   H12       1.0  0.10764305646907248  0.377602014494677  0.9096947503599038  1.0000
  H   H13       1.0  0.9928977442037239  0.604848689549563  0.5292074742640549  1.0000
  H   H14       1.0  0.5071033291979673  0.8951460476913911  0.02920973975447079  1.0000
  H   H15       1.0  0.007104472717109909  0.39513658076209884  0.4707933633641871  1.0000
  H   H16       1.0  0.49288846837065137  0.10486329016689672  0.9707903965864586  1.0000
  H   H17       1.0  0.8104888043778333  0.891957526523399  0.5135745038780754  1.0000
  H   H18       1.0  0.6895173934125224  0.6080354749753099  0.013573863227541897  1.0000
  H   H19       1.0  0.18951561263144612  0.10803148898079942  0.4864263337543021  1.0000
  H   H20       1.0  0.3104797176271816  0.3919536449342332  0.9864273250567803  1.0000
  H   H21       1.0  0.1959121279213178  0.6141102093935942  0.45189443561559256  1.0000
  H   H22       1.0  0.3040825801960878  0.885890777057462  0.9518978666147431  1.0000
  H   H23       1.0  0.8040970213711065  0.3858711852154785  0.5481057007032601  1.0000
  H   H24       1.0  0.6959051907910448  0.11411484170849212  0.04810226972160339  1.0000
  H   H25       1.0  0.923890179634846  0.9457129581910808  0.4491601918125524  1.0000
  H   H26       1.0  0.5760981161011216  0.5543041335592565  0.9491607692799631  1.0000
  H   H27       1.0  0.0761255699461785  0.054279672036038604  0.5508431004024599  1.0000
  H   H28       1.0  0.4238858773758807  0.44570028032300973  0.050840419015507586  1.0000
  H   H29       1.0  0.4056940365256949  0.5614301922438544  0.3983566253656007  1.0000
  H   H30       1.0  0.09431304110047023  0.9385730118380524  0.8983568916676955  1.0000
  H   H31       1.0  0.5943205091851027  0.43856874950854785  0.6016417577025946  1.0000
  H   H32       1.0  0.9056896739320592  0.0614172868370133  0.10164184204295167  1.0000
  H   H33       1.0  0.16908444696034053  0.916693621617064  0.37786399541145227  1.0000
  H   H34       1.0  0.3309087127724766  0.583319323298582  0.8778640592825722  1.0000
  H   H35       1.0  0.8309357027975822  0.08330649899514242  0.6221392968118378  1.0000
  H   H36       1.0  0.6690767335995745  0.4166812931862155  0.12213677835591596  1.0000
  H   H37       1.0  0.6435771040575204  0.5412025516418525  0.3263267771041212  1.0000
  H   H38       1.0  0.8564244488603946  0.9587973317929369  0.8263275688389056  1.0000
  H   H39       1.0  0.3564432947329835  0.4588000831116546  0.6736723072766181  1.0000
  H   H40       1.0  0.1435712092713288  0.041195585491614416  0.17367221683365835  1.0000
  C   C1        1.0  0.15957809118116023  0.7256279215802339  0.6108374617959809  1.0000
  C   C2        1.0  0.3404226708926501  0.774365432041833  0.11083896942727728  1.0000
  C   C3        1.0  0.8404142875495566  0.2743688191795357  0.3891609212643629  1.0000
  C   C4        1.0  0.6595744816207015  0.22564257041373992  0.8891608162600233  1.0000
  C   C5        1.0  0.286591974266301  0.7388961927804374  0.5649723475021627  1.0000
  C   C6        1.0  0.2134121380141352  0.7610997054708761  0.06497271188335667  1.0000
  C   C7        1.0  0.7134052612871074  0.2610941841952652  0.43502638620714135  1.0000
  C   C8        1.0  0.7865870900610332  0.2389107850886418  0.9350277751143563  1.0000
  C   C9        1.0  0.5169968950496014  0.8210927740028424  0.5598648630844067  1.0000
  C   C10       1.0  0.9830021812809592  0.6788964888475634  0.059864509894815385  1.0000
  C   C11       1.0  0.4829971856552789  0.17890268358157613  0.4401352732439106  1.0000
  C   C12       1.0  0.016996050547554396  0.3211039449447384  0.9401370290543125  1.0000
  C   C13       1.0  0.1735303341108505  0.6659215801157432  0.5252971793901082  1.0000
  C   C14       1.0  0.32646626072565976  0.8340771779135141  0.025299845361672593  1.0000
  C   C15       1.0  0.8264744564809093  0.33407120665876994  0.47470190497720205  1.0000
  C   C16       1.0  0.6735218838568784  0.1659322121452007  0.9747002909783615  1.0000
  C   C17       1.0  0.6306346480124675  0.8285624797596328  0.5163028336300995  1.0000
  C   C18       1.0  0.8693683106153357  0.6714344150847111  0.016301355185767395  1.0000
  C   C19       1.0  0.36936466311050953  0.17143038533347277  0.4836976533508589  1.0000
  C   C20       1.0  0.13063174770104516  0.32856599259839925  0.9836994824563161  1.0000
  C   C21       1.0  0.2887881484381509  0.6720198809432604  0.48195290503118554  1.0000
  C   C22       1.0  0.2112132296083047  0.8279893394716069  0.9819551255777126  1.0000
  C   C23       1.0  0.711216517621807  0.32797164873366574  0.5180461793348953  1.0000
  C   C24       1.0  0.7887766169354722  0.1720187673893108  0.018045010761539994  1.0000
  C   C25       1.0  0.5214677989461904  0.7526959579364673  0.4763765956932245  1.0000
  C   C26       1.0  0.9785284117048932  0.7473053579749306  0.9763781003787242  1.0000
  C   C27       1.0  0.4785369916455693  0.2472968288380457  0.5236224886740786  1.0000
  C   C28       1.0  0.021462514138527  0.2526951801957722  0.023621685299858093  1.0000
  C   C29       1.0  0.6492812921449342  0.7522486692153835  0.4307180036151549  1.0000
  C   C30       1.0  0.8507190189519209  0.7477627392039139  0.9307187413985216  1.0000
  C   C31       1.0  0.35072167196670995  0.24774414368178554  0.5692828340204557  1.0000
  C   C32       1.0  0.1492797110012134  0.2522427229742378  0.06928244690177368  1.0000
  C   C33       1.0  0.861611726842142  0.8550557602950948  0.42272570570367657  1.0000
  C   C34       1.0  0.6383811604215808  0.6449555478702534  0.9227264880815935  1.0000
  C   C35       1.0  0.1383985432545956  0.1449369482236804  0.5772768852024867  1.0000
  C   C36       1.0  0.3616100144957812  0.3550475045135713  0.07727470021444557  1.0000
  C   C37       1.0  0.5702186505395943  0.6428271762359898  0.3943126558856845  1.0000
  C   C38       1.0  0.9297822029993483  0.8571757312890329  0.8943139936676442  1.0000
  C   C39       1.0  0.42979224219288176  0.35717181773030404  0.6056867791428641  1.0000
  C   C40       1.0  0.0702156552234072  0.1428209311925528  0.10568614266279747  1.0000
  C   C41       1.0  0.9994816154400183  0.8410754163697478  0.38215438797776347  1.0000
  C   C42       1.0  0.5005094696794571  0.6589411644727506  0.8821537226663875  1.0000
  C   C43       1.0  0.000531103795836396  0.15892355151429874  0.6178464496662386  1.0000
  C   C44       1.0  0.49947647481463525  0.3410644803934134  0.11784641366951117  1.0000
  C   C45       1.0  0.7064695578564795  0.6293798089154095  0.35346712701297617  1.0000
  C   C46       1.0  0.7935294895022196  0.8706283642786232  0.8534680688943578  1.0000
  C   C47       1.0  0.2935420820668142  0.3706267276363988  0.6465323080229408  1.0000
  C   C48       1.0  0.20646326284199293  0.1293721478053342  0.14653276874592785  1.0000
  C   C49       1.0  0.9278237681711445  0.7235366408452324  0.34764221404930845  1.0000
  C   C50       1.0  0.5721694647434817  0.7764689472944255  0.8476428616402668  1.0000
  C   C51       1.0  0.07219127567461922  0.2764673293109824  0.6523572209850526  1.0000
  C   C52       1.0  0.4278196346120708  0.22353161698546134  0.15235762534536684  1.0000
  C   C53       1.0  0.08887834276374919  0.691244746348346  0.3082046391812483  1.0000
  C   C54       1.0  0.4111166955110265  0.8087588200499172  0.8082051738074012  1.0000
  C   C55       1.0  0.9111329235641321  0.30875801891070154  0.6917947958509885  1.0000
  C   C56       1.0  0.588872403844519  0.19124174422996992  0.19179531317823253  1.0000
  N   N1        1.0  0.34607123064206763  0.7162548231963728  0.2522456510357073  1.0000
  N   N2        1.0  0.1539283373489866  0.7837459748654184  0.752244601720484  1.0000
  N   N3        1.0  0.6539289521854244  0.28374684154840685  0.7477523813776015  1.0000
  N   N4        1.0  0.8460684415637942  0.21625825628842682  0.24775448265562963  1.0000
  N   N5        1.0  0.2852119902825337  0.5553764419272655  0.2552060517442455  1.0000
  N   N6        1.0  0.2147912743562941  0.9446243797486318  0.7552056909012703  1.0000
  N   N7        1.0  0.7147864905888923  0.44462650602428516  0.744792681977344  1.0000
  N   N8        1.0  0.7852126860045983  0.055378489920244106  0.24479444543666765  1.0000
  N   N9        1.0  0.1246485157909731  0.5359909337869695  0.2904095242045272  1.0000
  N   N10       1.0  0.3753514904715373  0.96400958443364  0.7904092837385972  1.0000
  N   N11       1.0  0.8753536180768791  0.4640119619821235  0.709590612132963  1.0000
  N   N12       1.0  0.6246485678422501  0.0359908232449797  0.20959120324973665  1.0000
  N   N13       1.0  0.22912950379502922  0.8055479391292055  0.2846618915873193  1.0000
  N   N14       1.0  0.2708653118252257  0.694456281509325  0.7846617851020097  1.0000
  N   N15       1.0  0.7708783586000365  0.19445739250748062  0.7153361408314748  1.0000
  N   N16       1.0  0.7291240365861713  0.3055467969522638  0.21533764992482665  1.0000
  O   O1        1.0  0.943615186539361  0.6611409939622418  0.6135435992562889  1.0000
  O   O2        1.0  0.5563939383893697  0.8388507700277616  0.11354438062336666  1.0000
  O   O3        1.0  0.05638229807765071  0.3388518972086275  0.38645513445546686  1.0000
  O   O4        1.0  0.44360005925734924  0.16116231300511433  0.8864543531066997  1.0000
  O   O5        1.0  0.6904436030245833  0.8574649411949767  0.6944440990428048  1.0000
  O   O6        1.0  0.8095639336879328  0.6425377462960074  0.19444744365468125  1.0000
  O   O7        1.0  0.30955097580233126  0.1425355447708085  0.30555533598292317  1.0000
  O   O8        1.0  0.190446253340312  0.35747258765326256  0.8055523420382256  1.0000
  O   O9        1.0  0.2686579936053022  0.7787187985069225  0.648933616112657  1.0000
  O   O10       1.0  0.2313402999389282  0.7212818683134757  0.14893496599496805  1.0000
  O   O11       1.0  0.7313219732721166  0.2212818962515755  0.35106511760196907  1.0000
  O   O12       1.0  0.7686690153666972  0.2787196659526927  0.851064819689334  1.0000
