data_image0
_chemical_formula_structural       Zn2H30C28N2O8
_chemical_formula_sum              "Zn2 H30 C28 N2 O8"
_cell_length_a       6.198150171836154
_cell_length_b       9.036005573549234
_cell_length_c       12.2418933893004
_cell_angle_alpha    81.50710415928197
_cell_angle_beta     80.7561530778
_cell_angle_gamma    85.66224401301194

_space_group_name_H-M_alt    "P 1"
_space_group_IT_number       1

loop_
  _space_group_symop_operation_xyz
  'x, y, z'

loop_
  _atom_site_type_symbol
  _atom_site_label
  _atom_site_symmetry_multiplicity
  _atom_site_fract_x
  _atom_site_fract_y
  _atom_site_fract_z
  _atom_site_occupancy
  Zn  Zn1       1.0  0.5232968654677775  0.8633177696868302  0.5734245696342627  1.0000
  Zn  Zn2       1.0  0.47669019883259983  0.13666903418625512  0.4265758718340251  1.0000
  H   H1        1.0  0.10234366367419058  0.6490932768902198  0.37832389303438424  1.0000
  H   H2        1.0  0.8976547907875342  0.35089693296052366  0.6216655192689018  1.0000
  H   H3        1.0  0.913295748555754  0.7627182503794074  0.23513356878954994  1.0000
  H   H4        1.0  0.08670343072102331  0.23728092929439984  0.7648605344418586  1.0000
  H   H5        1.0  0.9469031778905047  0.009813444415243597  0.13000769771378637  1.0000
  H   H6        1.0  0.053099093049453885  0.9901868678734473  0.8699893178720829  1.0000
  H   H7        1.0  0.14076176165302462  0.05562293324432941  0.20913809556845564  1.0000
  H   H8        1.0  0.8592356432947311  0.9443762396608477  0.7908618603259685  1.0000
  H   H9        1.0  0.20860451657970464  0.8137543656360081  0.05342953646192682  1.0000
  H   H10       1.0  0.7913992721901763  0.1862470733015016  0.9465680596912025  1.0000
  H   H11       1.0  0.3284544022981493  0.9891162383048879  0.026657850905294832  1.0000
  H   H12       1.0  0.6715424820380206  0.010888537051045002  0.9733431702296972  1.0000
  H   H13       1.0  0.595483820578437  0.7918900826120208  0.10004317784781595  1.0000
  H   H14       1.0  0.4045177935482869  0.20811695248916354  0.8999564255387614  1.0000
  H   H15       1.0  0.5155574495121513  0.918676634922072  0.19731976489077852  1.0000
  H   H16       1.0  0.48443776488826973  0.0813292549900595  0.8026788101271125  1.0000
  H   H17       1.0  0.5024096856696758  0.6495170164298758  0.29229320970016204  1.0000
  H   H18       1.0  0.4975924891677933  0.35048441638107164  0.707703691555807  1.0000
  H   H19       1.0  0.31864120732635126  0.6153666072319269  0.20342533020537001  1.0000
  H   H20       1.0  0.6813675476835995  0.3846359714903897  0.7965652334140927  1.0000
  H   H21       1.0  0.9413001597599332  0.6846016533183743  0.6109823815638793  1.0000
  H   H22       1.0  0.05869724104243799  0.31539639866325336  0.38902178088554973  1.0000
  H   H23       1.0  0.11418525013770163  0.5710183119086593  0.7740430909991434  1.0000
  H   H24       1.0  0.8858211456375216  0.4289887413314589  0.22596105241397177  1.0000
  H   H25       1.0  0.49677730890090294  0.6556054739312174  0.9831451890157938  1.0000
  H   H26       1.0  0.5032348138832107  0.3444105681537409  0.016859182456741496  1.0000
  H   H27       1.0  0.3486823838410444  0.7670719933259845  0.8090923417713826  1.0000
  H   H28       1.0  0.6513239718350334  0.23293505975362191  0.19091343853177287  1.0000
  H   H29       1.0  0.7939802774867815  0.5553703628491534  0.07435504688517369  1.0000
  H   H30       1.0  0.20603222970728302  0.4446411971467866  0.9256497819069411  1.0000
  C   C1        1.0  0.2624677740732722  0.8313723587251188  0.4137614384409005  1.0000
  C   C2        1.0  0.7375290136810263  0.16859542698273342  0.5862436026763762  1.0000
  C   C3        1.0  0.1751983733130658  0.7503890278662766  0.33037531038710455  1.0000
  C   C4        1.0  0.8247960160244289  0.24960789182150486  0.6696226659277756  1.0000
  C   C5        1.0  0.9976976175886064  0.8440339213308976  0.27062630033351104  1.0000
  C   C6        1.0  0.0022986580845767014  0.1559607637599782  0.7293693257582278  1.0000
  C   C7        1.0  0.0831872131331153  0.9634134462905947  0.17423546307205132  1.0000
  C   C8        1.0  0.9168087541830232  0.0365846002867869  0.8257606384750177  1.0000
  C   C9        1.0  0.26996733248319776  0.900344825655218  0.0940487594454211  1.0000
  C   C10       1.0  0.7300347262022059  0.0996577275977231  0.9059488459256784  1.0000
  C   C11       1.0  0.4550476345137398  0.8317565074216446  0.15749970844719038  1.0000
  C   C12       1.0  0.5449539996625603  0.16825052775979543  0.8424990764943702  1.0000
  C   C13       1.0  0.3721115758234959  0.7023821608741939  0.24587779134701293  1.0000
  C   C14       1.0  0.6278890051311379  0.29761926589043247  0.7541175965667792  1.0000
  C   C15       1.0  0.8208839284590113  0.907408262203376  0.3560535833056733  1.0000
  C   C16       1.0  0.17910104554191258  0.092585259077957  0.643941385060977  1.0000
  C   C17       1.0  0.8470083667909235  0.6724692988852611  0.6947909093828459  1.0000
  C   C18       1.0  0.15299187746631301  0.3275332474385238  0.305214185541317  1.0000
  C   C19       1.0  0.9426579840191779  0.6099941034211441  0.7872162272782506  1.0000
  C   C20       1.0  0.0573454161953535  0.3900106966818414  0.2127851181102969  1.0000
  C   C21       1.0  0.8188766424836659  0.6013756910440976  0.8947246125385465  1.0000
  C   C22       1.0  0.18112783100210808  0.39863471755596436  0.10527931143275285  1.0000
  C   C23       1.0  0.5999972025289111  0.6578249762515327  0.902197962495649  1.0000
  C   C24       1.0  0.40000264141418995  0.34218317300457113  0.0978032869989391  1.0000
  C   C25       1.0  0.5154394804374364  0.7180422597424894  0.806149410770516  1.0000
  C   C26       1.0  0.4845654694153935  0.2819614253227414  0.1938592914052677  1.0000
  C   C27       1.0  0.9027563381050925  0.5382885724128313  0.9970876193507083  1.0000
  C   C28       1.0  0.09725924484796881  0.461725241041279  0.0029167336858861954  1.0000
  N   N1        1.0  0.6361045759884476  0.7248834126240737  0.7039803582015481  1.0000
  N   N2        1.0  0.3638895727541395  0.2751135061006096  0.2960274394535958  1.0000
  O   O1        1.0  0.3185814905162445  0.7517151507603117  0.5008865100393934  1.0000
  O   O2        1.0  0.6814223464038776  0.2482694750996401  0.4991031032697678  1.0000
  O   O3        1.0  0.2851456693475215  0.9712948442350111  0.38786461427661595  1.0000
  O   O4        1.0  0.7148387757510336  0.028702037649992507  0.6121398324406118  1.0000
  O   O5        1.0  0.7366328777500043  0.03812545964728291  0.3299820559971425  1.0000
  O   O6        1.0  0.2633477709198858  0.9618613198800361  0.6700139689924711  1.0000
  O   O7        1.0  0.7672106384049117  0.8210178453540635  0.4467904368571283  1.0000
  O   O8        1.0  0.23278715095280228  0.17897684546208845  0.5532099763568754  1.0000
