data_image0
_chemical_formula_structural       Li2H16C10N2O8
_chemical_formula_sum              "Li2 H16 C10 N2 O8"
_cell_length_a       5.286876976735482
_cell_length_b       7.869365948121332
_cell_length_c       7.953363014714085
_cell_angle_alpha    90.23857924075358
_cell_angle_beta     107.13950163285142
_cell_angle_gamma    96.58596617848637

_space_group_name_H-M_alt    "P 1"
_space_group_IT_number       1

loop_
  _space_group_symop_operation_xyz
  'x, y, z'

loop_
  _atom_site_type_symbol
  _atom_site_label
  _atom_site_symmetry_multiplicity
  _atom_site_fract_x
  _atom_site_fract_y
  _atom_site_fract_z
  _atom_site_occupancy
  Li  Li1       1.0  0.0632674391204375  0.5044720260821337  0.7548509762729125  1.0000
  Li  Li2       1.0  0.2646581942614077  0.02595494528493701  0.19990187578110863  1.0000
  H   H1        1.0  0.16031798601436983  0.6496126161270511  0.3302143615107057  1.0000
  H   H2        1.0  0.7247084039360985  0.629025413415562  0.3965161287417161  1.0000
  H   H3        1.0  0.6645126513407006  0.1551394692626573  0.9268854258494202  1.0000
  H   H4        1.0  0.33200941489135255  0.1090702604353382  0.5366589976464768  1.0000
  H   H5        1.0  0.2154594480902716  0.16520683775345194  0.7134412205732232  1.0000
  H   H6        1.0  0.5536444611657599  0.6469008832044308  0.1733880193042694  1.0000
  H   H7        1.0  0.7978083910992169  0.1078885278024941  0.7562882909140003  1.0000
  H   H8        1.0  0.6893751250371806  0.8636730049128264  0.938943366753165  1.0000
  H   H9        1.0  0.006595786005249211  0.6951909928401393  0.10945846830021821  1.0000
  H   H10       1.0  0.7508370629315876  0.4107621939173002  0.049352167229535865  1.0000
  H   H11       1.0  0.6628417563499198  0.32053498685004217  0.29744595394559076  1.0000
  H   H12       1.0  0.7690931130020005  0.770076322509027  0.701320946065721  1.0000
  H   H13       1.0  0.4467143308608287  0.675533211466025  0.6513361022981599  1.0000
  H   H14       1.0  0.8988032696041869  0.19641214223081963  0.2904046334815149  1.0000
  H   H15       1.0  0.5280594258553251  0.8542596361128008  0.5509121592158409  1.0000
  H   H16       1.0  0.9880255201715542  0.3696923491927678  0.43006873356835484  1.0000
  C   C1        1.0  0.2654442834802566  0.8636746190736845  0.846264114661665  1.0000
  C   C2        1.0  0.5424823071350532  0.9004826759138068  0.8195019471573916  1.0000
  C   C3        1.0  0.6153248414916773  0.0911056667341157  0.7966607482699005  1.0000
  C   C4        1.0  0.3933355037809747  0.1742377291197528  0.6678504656941016  1.0000
  C   C5        1.0  0.4724047881015921  0.361461708477087  0.6405270078647975  1.0000
  C   C6        1.0  0.17110264890532534  0.3795783376636309  0.12182169072377753  1.0000
  C   C7        1.0  0.9262380577268486  0.43330470023833817  0.1663982911140494  1.0000
  C   C8        1.0  0.9741020942685382  0.6245559816888361  0.22160452047221224  1.0000
  C   C9        1.0  0.7445887760273635  0.687361959531991  0.2746808458314973  1.0000
  C   C10       1.0  0.7580751944844266  0.880489727411721  0.30121551661478924  1.0000
  N   N1        1.0  0.5681223761565873  0.793914309752772  0.6715703342423043  1.0000
  N   N2        1.0  0.8649456438439956  0.3245141791148569  0.3062317650301695  1.0000
  O   O1        1.0  0.22475411979141313  0.9460880508793894  0.9691710046234264  1.0000
  O   O2        1.0  0.0957779260313742  0.7535500709090073  0.7405797520962809  1.0000
  O   O3        1.0  0.7102077617426515  0.41306297613491694  0.6488309718851752  1.0000
  O   O4        1.0  0.2869559069862291  0.4602619575868233  0.6077425936576617  1.0000
  O   O5        1.0  0.3093037262012714  0.2792886811099892  0.22642742824242396  1.0000
  O   O6        1.0  0.22251561281247942  0.4427432508261475  0.9887357015095335  1.0000
  O   O7        1.0  0.5745558969613852  0.9349857841229581  0.3539040126493021  1.0000
  O   O8        1.0  0.9413450362724232  0.9799256161660423  0.2662865332716109  1.0000
