data_image0
_chemical_formula_structural       Cd2H12C16S4N12
_chemical_formula_sum              "Cd2 H12 C16 S4 N12"
_cell_length_a       7.928160222239645
_cell_length_b       7.928177256063177
_cell_length_c       10.862009816236146
_cell_angle_alpha    74.40742685641797
_cell_angle_beta     74.407112275814
_cell_angle_gamma    64.7296479727199

_space_group_name_H-M_alt    "P 1"
_space_group_IT_number       1

loop_
  _space_group_symop_operation_xyz
  'x, y, z'

loop_
  _atom_site_type_symbol
  _atom_site_label
  _atom_site_symmetry_multiplicity
  _atom_site_fract_x
  _atom_site_fract_y
  _atom_site_fract_z
  _atom_site_occupancy
  Cd  Cd1       1.0  0.5785945340459191  0.4214044578502865  0.24999945520046657  1.0000
  Cd  Cd2       1.0  0.4214046608851658  0.5785968683837694  0.7499983605265755  1.0000
  H   H1        1.0  0.2477074368856689  0.8874689036629634  0.12581252331922596  1.0000
  H   H2        1.0  0.1125298657689129  0.7522928271192412  0.3741875554564515  1.0000
  H   H3        1.0  0.7522909866324525  0.1125310215289304  0.8741894042376472  1.0000
  H   H4        1.0  0.8874687972184528  0.24770991811378454  0.6258110056396761  1.0000
  H   H5        1.0  0.9205616012899113  0.4157130698289109  0.9256597496923932  1.0000
  H   H6        1.0  0.584281046258809  0.07943933572182259  0.5743420135125277  1.0000
  H   H7        1.0  0.07944051162977665  0.5842840003036114  0.07434017171421911  1.0000
  H   H8        1.0  0.41571790920303164  0.9205591704711084  0.4256591686752599  1.0000
  H   H9        1.0  0.261825126955159  0.09961718949938357  0.9100474257614906  1.0000
  H   H10       1.0  0.9003788051517739  0.7381787658256584  0.5899530530749504  1.0000
  H   H11       1.0  0.7381756769676142  0.9003798929342892  0.08995459314832037  1.0000
  H   H12       1.0  0.09962302093367727  0.2618225490026163  0.4100470069357129  1.0000
  C   C1        1.0  0.9727056834726676  0.29072674113611185  0.9979840873958211  1.0000
  C   C2        1.0  0.7092685691993947  0.027297036226606505  0.5020177024534007  1.0000
  C   C3        1.0  0.02729327010909096  0.7092717631715998  0.002016174893398686  1.0000
  C   C4        1.0  0.29073010130828436  0.9727057165472812  0.497984538237013  1.0000
  C   C5        1.0  0.1417988928568618  0.1358783076115131  0.9883684835393183  1.0000
  C   C6        1.0  0.8641185963754549  0.8582023366707857  0.5116326116527291  1.0000
  C   C7        1.0  0.8582013753620427  0.8641201900506985  0.011632440942420883  1.0000
  C   C8        1.0  0.13588192071308205  0.1417989904586392  0.48836954586112574  1.0000
  C   C9        1.0  0.9717424242567388  0.0981941665686747  0.18412106080683097  1.0000
  C   C10       1.0  0.901804738459006  0.028255916108747704  0.3158786001337647  1.0000
  C   C11       1.0  0.028257312018446435  0.9018057500924997  0.815880609043994  1.0000
  C   C12       1.0  0.09819445835215379  0.9717454120105344  0.6841201354918524  1.0000
  C   C13       1.0  0.4634156531902817  0.29199827158606684  0.025152633090485172  1.0000
  C   C14       1.0  0.7080040278583434  0.5365788975988082  0.47484831801069305  1.0000
  C   C15       1.0  0.5365859277856869  0.7080002175454183  0.9748480336852056  1.0000
  C   C16       1.0  0.29199677042420535  0.4634181791792144  0.5251509412033926  1.0000
  S   S1        1.0  0.389040651710914  0.2463526589218219  0.17973897274940503  1.0000
  S   S2        1.0  0.7536496567558896  0.6109583383082438  0.32025746501614094  1.0000
  S   S3        1.0  0.6109617044381749  0.7536472350222636  0.8202594219936045  1.0000
  S   S4        1.0  0.24635138663613523  0.3890415641665682  0.6797411874329171  1.0000
  N   N1        1.0  0.8680990721148871  0.26566743977841867  0.1198600339874929  1.0000
  N   N2        1.0  0.7343280373469411  0.13190176243426777  0.3801412001240507  1.0000
  N   N3        1.0  0.13190066228022346  0.7343324749975436  0.8801407159647568  1.0000
  N   N4        1.0  0.26566853583016564  0.8680995846316577  0.6198589708122313  1.0000
  N   N5        1.0  0.13843975500894598  0.0164199761727915  0.10640072435421641  1.0000
  N   N6        1.0  0.9835768604347375  0.8615613908483866  0.3936000883122618  1.0000
  N   N7        1.0  0.8615586685091753  0.9835799490191018  0.8936012032026568  1.0000
  N   N8        1.0  0.0164218063127919  0.13844135815507028  0.6064003125810089  1.0000
  N   N9        1.0  0.5222849786916584  0.3199456617054394  0.9115795197448976  1.0000
  N   N10       1.0  0.6800588215711867  0.4777161716607097  0.5884123892591405  1.0000
  N   N11       1.0  0.477716839873487  0.680055645581973  0.08841686067147245  1.0000
  N   N12       1.0  0.3199416861169694  0.5222851460426341  0.4115851687618531  1.0000
