data_image0
_chemical_formula_structural       Na4H52C32O16
_chemical_formula_sum              "Na4 H52 C32 O16"
_cell_length_a       6.73460715800294
_cell_length_b       10.131702722959085
_cell_length_c       12.997249505629604
_cell_angle_alpha    91.19613770247568
_cell_angle_beta     90.00010322622236
_cell_angle_gamma    90.0000254881847

_space_group_name_H-M_alt    "P 1"
_space_group_IT_number       1

loop_
  _space_group_symop_operation_xyz
  'x, y, z'

loop_
  _atom_site_type_symbol
  _atom_site_label
  _atom_site_symmetry_multiplicity
  _atom_site_fract_x
  _atom_site_fract_y
  _atom_site_fract_z
  _atom_site_occupancy
  Na  Na1       1.0  0.15714778162989518  0.8870118113738811  0.5593300394588638  1.0000
  Na  Na2       1.0  0.6571439808795957  0.612986715975282  0.4406699851839733  1.0000
  Na  Na3       1.0  0.8428532309003955  0.1129882307250085  0.4406694186097084  1.0000
  Na  Na4       1.0  0.3428525770471608  0.3870113517027746  0.5593294461130256  1.0000
  H   H1        1.0  0.3809111376975948  0.1135931479063004  0.5667740781196855  1.0000
  H   H2        1.0  0.8809104685412522  0.38640644988669953  0.4332255918981076  1.0000
  H   H3        1.0  0.6190898748393677  0.8864069113848102  0.43322922717308643  1.0000
  H   H4        1.0  0.11909054398903858  0.6135935922121903  0.5667738661704647  1.0000
  H   H5        1.0  0.0805911498048175  0.08998531733882231  0.8165944535550408  1.0000
  H   H6        1.0  0.5805911162175048  0.4100161607586301  0.1834049603336609  1.0000
  H   H7        1.0  0.9194083778582395  0.9100157119698905  0.1834050178975701  1.0000
  H   H8        1.0  0.4194084114472431  0.5899858591985919  0.8165952939485308  1.0000
  H   H9        1.0  0.275391229495682  0.9747335326671878  0.8137153136956742  1.0000
  H   H10       1.0  0.7753879720916572  0.5252679864910732  0.186283323596264  1.0000
  H   H11       1.0  0.7246097830346157  0.025266509431695304  0.1862841443728982  1.0000
  H   H12       1.0  0.2246115555687282  0.47473303594075134  0.8137146089666629  1.0000
  H   H13       1.0  0.2995068847902829  0.25517857421745305  0.9103772707461532  1.0000
  H   H14       1.0  0.7995064129196122  0.24482099806471075  0.0896223225896193  1.0000
  H   H15       1.0  0.7004941277396525  0.7448204806713719  0.089622173937677  1.0000
  H   H16       1.0  0.2004931147430753  0.7551790440339373  0.9103771354782567  1.0000
  H   H17       1.0  0.49135619871075414  0.13801671973569543  0.9132529117650776  1.0000
  H   H18       1.0  0.9913543124176982  0.36198290923049115  0.08674609284560829  1.0000
  H   H19       1.0  0.5086462986881201  0.8619823385918012  0.0867473023643015  1.0000
  H   H20       1.0  0.0086452152413514  0.6380181097628892  0.9132510702724731  1.0000
  H   H21       1.0  0.0823404237353671  0.10581962638286066  0.0139320917634862  1.0000
  H   H22       1.0  0.5823387054968805  0.3941798812808486  0.9860680664475865  1.0000
  H   H23       1.0  0.9176591039303544  0.8941814098027479  0.9860689185788019  1.0000
  H   H24       1.0  0.41765933729650573  0.6058191701690633  0.013930608790012398  1.0000
  H   H25       1.0  0.272947243765337  0.9867774489004406  0.0155302371751915  1.0000
  H   H26       1.0  0.7729452585365236  0.5132221019488838  0.9844699099353421  1.0000
  H   H27       1.0  0.7270537687679877  0.0132235872853954  0.9844707731678001  1.0000
  H   H28       1.0  0.2270527842565002  0.4867759622909702  0.0155287519175218  1.0000
  H   H29       1.0  0.2979924173899917  0.26797997857628536  0.1069674792952497  1.0000
  H   H30       1.0  0.7979917504078032  0.2320205838797449  0.8930328954433975  1.0000
  H   H31       1.0  0.702008595145031  0.7320220482580595  0.8930343138773155  1.0000
  H   H32       1.0  0.2020077772514952  0.7679774769218926  0.10696499696532412  1.0000
  H   H33       1.0  0.49681020747217985  0.1555546030529555  0.1045707953847881  1.0000
  H   H34       1.0  0.9968081410838535  0.34444503449929453  0.8954297532531257  1.0000
  H   H35       1.0  0.5031908050607895  0.8444454459228153  0.8954302015734613  1.0000
  H   H36       1.0  0.0031913865767804993  0.6555530297407871  0.1045689086004344  1.0000
  H   H37       1.0  0.09944050706045718  0.10919309374941119  0.21415217306814333  1.0000
  H   H38       1.0  0.5994395777102568  0.39080542518637884  0.7858464489770115  1.0000
  H   H39       1.0  0.9005619903370813  0.8908059611396484  0.7858472716163901  1.0000
  H   H40       1.0  0.4005614348183427  0.609193626264002  0.2141522262619802  1.0000
  H   H41       1.0  0.30404780073487087  0.00029124038074710004  0.213829089814233  1.0000
  H   H42       1.0  0.8040454623784187  0.49970833332417897  0.7861705077981611  1.0000
  H   H43       1.0  0.6959546966647279  0.9997097923668791  0.7861711510846163  1.0000
  H   H44       1.0  0.19595406528221557  0.5002897309159026  0.21382815405539193  1.0000
  H   H45       1.0  0.5137454598491473  0.18775022907615835  0.2929366789218903  1.0000
  H   H46       1.0  0.0137437816405921  0.3122512315110485  0.7070634414428055  1.0000
  H   H47       1.0  0.4862570375511694  0.8122527780915904  0.7070635887464292  1.0000
  H   H48       1.0  0.9862572308883698  0.6877488071493902  0.2929352471809281  1.0000
  H   H49       1.0  0.297960098067385  0.2835215548735874  0.3046480948036034  1.0000
  H   H50       1.0  0.797961705293197  0.21647408183768851  0.6953545213165029  1.0000
  H   H51       1.0  0.7020379447309819  0.7164765231200436  0.6953536448286144  1.0000
  H   H52       1.0  0.20203633750286087  0.7835249764891118  0.304645692810773  1.0000
  C   C1        1.0  0.31381469727548955  0.1422808983500303  0.7181335489956097  1.0000
  C   C2        1.0  0.8138164537838859  0.357720656274907  0.2818668540333604  1.0000
  C   C3        1.0  0.686186315254801  0.8577191437488595  0.2818659090729554  1.0000
  C   C4        1.0  0.1861860436153435  0.6422793892626546  0.7181333734807468  1.0000
  C   C5        1.0  0.24396222041114157  0.0810702129635814  0.8167760313780263  1.0000
  C   C6        1.0  0.7439621923131624  0.41893032912184947  0.18322352302009653  1.0000
  C   C7        1.0  0.7560373072551911  0.9189288522403418  0.18322572163963707  1.0000
  C   C8        1.0  0.256038820216162  0.5810706967486537  0.8167751789883724  1.0000
  C   C9        1.0  0.3285048327568275  0.14845620337473522  0.9133412869647302  1.0000
  C   C10       1.0  0.8285044238619433  0.3515443652050223  0.0866583470716336  1.0000
  C   C11       1.0  0.6714946949085315  0.8515438456008086  0.0866597099928228  1.0000
  C   C12       1.0  0.17149361893181242  0.6484556734549541  0.9133403415507005  1.0000
  C   C13       1.0  0.24491411747086286  0.0940356844464247  0.012969147852352602  1.0000
  C   C14       1.0  0.7449124106548338  0.4059638707269927  0.9870303940569229  1.0000
  C   C15       1.0  0.7550883799297025  0.9059643645295878  0.9870318491066001  1.0000
  C   C16       1.0  0.25508711700616266  0.5940351807231535  0.012968281181372299  1.0000
  C   C17       1.0  0.33345250667562004  0.16159735605681652  0.10842269859879392  1.0000
  C   C18       1.0  0.833453392530515  0.33840321751210933  0.8915777095436895  1.0000
  C   C19       1.0  0.6665470209891281  0.8384046639004055  0.8915775556833978  1.0000
  C   C20       1.0  0.1665461351314477  0.6615948501664165  0.10842172175470918  1.0000
  C   C21       1.0  0.2620513197267798  0.1052853531559137  0.2100360755894144  1.0000
  C   C22       1.0  0.7620504073206574  0.39471420738816926  0.7899634824633281  1.0000
  C   C23       1.0  0.7379511776737927  0.8947146958200921  0.7899649213695382  1.0000
  C   C24       1.0  0.23795060520830447  0.6052858312722691  0.21003520616039847  1.0000
  C   C25       1.0  0.35186817575190327  0.1805469470136742  0.3015469889519978  1.0000
  C   C26       1.0  0.85186837952142  0.31945066725771204  0.6984526269385114  1.0000
  C   C27       1.0  0.6481298670441545  0.8194521113131258  0.6984532251752781  1.0000
  C   C28       1.0  0.14812966327330196  0.6805483876306511  0.301546817743926  1.0000
  C   C29       1.0  0.3133285987079475  0.1235286933770965  0.4061537671596867  1.0000
  C   C30       1.0  0.8133255094666366  0.3764669412728168  0.5938473245455285  1.0000
  C   C31       1.0  0.6866768684308581  0.8764723496863313  0.5938487820750851  1.0000
  C   C32       1.0  0.18666956359482603  0.6235301460718433  0.40615363225571594  1.0000
  O   O1        1.0  0.33901719135877784  0.05922453991091461  0.6400430277502168  1.0000
  O   O2        1.0  0.839017790545384  0.4407760354018607  0.3599573856340115  1.0000
  O   O3        1.0  0.6609838211806078  0.9407784844488276  0.359961087141606  1.0000
  O   O4        1.0  0.16098322198394036  0.5592249904686426  0.6400413163744575  1.0000
  O   O5        1.0  0.34048740325253857  0.2633092284091632  0.7110102660112361  1.0000
  O   O6        1.0  0.8404891013751552  0.23669430211782577  0.288988650022965  1.0000
  O   O7        1.0  0.6595121244162103  0.7366928018633985  0.2889922966054712  1.0000
  O   O8        1.0  0.15951191115392052  0.7633096819444206  0.7110093226948706  1.0000
  O   O9        1.0  0.42527142763164244  0.17095394686214863  0.4805028595511303  1.0000
  O   O10       1.0  0.9252725028584691  0.3290397381341563  0.519496002501235  1.0000
  O   O11       1.0  0.5747266151627172  0.8290441208161499  0.5194965717465649  1.0000
  O   O12       1.0  0.07472702480458789  0.6709612911745567  0.4805034689513761  1.0000
  O   O13       1.0  0.1814515620851438  0.037892683518329306  0.42013362748825506  1.0000
  O   O14       1.0  0.6814529377800794  0.46210190884016106  0.5798642488279171  1.0000
  O   O15       1.0  0.8185449958429488  0.9621053875981791  0.5798665732535895  1.0000
  O   O16       1.0  0.31853322607066303  0.5378922065575795  0.420134359480393  1.0000
