data_image0
_chemical_formula_structural       Zn4H24C28O16
_chemical_formula_sum              "Zn4 H24 C28 O16"
_cell_length_a       7.363120627628165
_cell_length_b       7.354419638918935
_cell_length_c       13.67887810146315
_cell_angle_alpha    105.61474961738546
_cell_angle_beta     105.65693061606441
_cell_angle_gamma    89.98011569881345

_space_group_name_H-M_alt    "P 1"
_space_group_IT_number       1

loop_
  _space_group_symop_operation_xyz
  'x, y, z'

loop_
  _atom_site_type_symbol
  _atom_site_label
  _atom_site_symmetry_multiplicity
  _atom_site_fract_x
  _atom_site_fract_y
  _atom_site_fract_z
  _atom_site_occupancy
  Zn  Zn1       1.0  0.030235803282529602  0.28010622886270653  0.060287389546509515  1.0000
  Zn  Zn2       1.0  0.7800549485432312  0.5302001205196732  0.5601830041179527  1.0000
  Zn  Zn3       1.0  0.9697611591515028  0.7198979478847181  0.9397094426477255  1.0000
  Zn  Zn4       1.0  0.2199523294022327  0.4698097414947784  0.4398168380240791  1.0000
  H   H1        1.0  0.6877169863341377  0.14236755828702743  0.7003890434652719  1.0000
  H   H2        1.0  0.5578654198852462  0.18846185125116222  0.20000937164267904  1.0000
  H   H3        1.0  0.6425557718627032  0.5117763668793743  0.2001211547486008  1.0000
  H   H4        1.0  0.011950397860609002  0.05763620140290731  0.6999312975963365  1.0000
  H   H5        1.0  0.31228569901472275  0.8576366997859283  0.2996159266687783  1.0000
  H   H6        1.0  0.44213125781087115  0.8115381139606583  0.7999904762663166  1.0000
  H   H7        1.0  0.3574392705058642  0.488220756806115  0.7998773248225889  1.0000
  H   H8        1.0  0.9880501543215844  0.9423594917265634  0.3000655705180152  1.0000
  H   H9        1.0  0.7157526152117412  0.0214620005782606  0.7992607114694721  1.0000
  H   H10       1.0  0.777538254302698  0.21644513994075257  0.29902902311205565  1.0000
  H   H11       1.0  0.5215774556327588  0.582988813707189  0.29887885820809157  1.0000
  H   H12       1.0  0.0829842786269452  0.27741825111306895  0.7988706045769407  1.0000
  H   H13       1.0  0.28424421111908776  0.9785394175861911  0.20074301967168406  1.0000
  H   H14       1.0  0.2224625306824279  0.7835534001650687  0.7009697453021176  1.0000
  H   H15       1.0  0.47842369467339546  0.41701401159538437  0.7011242271969353  1.0000
  H   H16       1.0  0.9170076936562095  0.7225760070316483  0.20112410553620214  1.0000
  H   H17       1.0  0.39666022241294746  0.3157987164791154  0.9414202469089336  1.0000
  H   H18       1.0  0.6257723261883967  0.8973791537969903  0.44135487933090906  1.0000
  H   H19       1.0  0.8158911642495994  0.044618236522225616  0.4413962868710329  1.0000
  H   H20       1.0  0.5440414742995544  0.12564377902116064  0.9415719867384029  1.0000
  H   H21       1.0  0.6033320310230083  0.6841984328386346  0.058580763127409285  1.0000
  H   H22       1.0  0.37422832627864006  0.10261794808842241  0.5586414723922248  1.0000
  H   H23       1.0  0.18410954462561344  0.9553789169259874  0.558605197746033  1.0000
  H   H24       1.0  0.45595784816766394  0.8743533946093013  0.05843149638180027  1.0000
  C   C1        1.0  0.7199502728120565  0.39545191474211105  0.8886412691085682  1.0000
  C   C2        1.0  0.4927337778110897  0.2203771538803992  0.3882154429645511  1.0000
  C   C3        1.0  0.8954983719503248  0.6681345919960294  0.38842686410674093  1.0000
  C   C4        1.0  0.1679194318074408  0.992694416214768  0.8882336915298911  1.0000
  C   C5        1.0  0.2800524110735907  0.6045326152976003  0.1113703985404442  1.0000
  C   C6        1.0  0.5072703942306092  0.7796284927662498  0.6117870122751514  1.0000
  C   C7        1.0  0.10450237274324078  0.33186391127921405  0.6115682379546216  1.0000
  C   C8        1.0  0.8320833597626702  0.007329665650921403  0.1117741136065007  1.0000
  C   C9        1.0  0.545175288531702  0.2646339850020781  0.8205620879556506  1.0000
  C   C10       1.0  0.5558885842955448  0.045733841801165895  0.3202365717036316  1.0000
  C   C11       1.0  0.7646590515549149  0.7749354107212697  0.32039372070781985  1.0000
  C   C12       1.0  0.27470656752613826  0.055573949644824004  0.8203369899093149  1.0000
  C   C13       1.0  0.4548229242071288  0.7353674129801249  0.17943964468236834  1.0000
  C   C14       1.0  0.44411364350575877  0.9542647296852069  0.6797653311013365  1.0000
  C   C15       1.0  0.23534465488091172  0.2250645419726922  0.6796049339322395  1.0000
  C   C16       1.0  0.7252872809458141  0.9444260043686871  0.17966172211202294  1.0000
  C   C17       1.0  0.6145743960768684  0.09306619633381533  0.7499738003761964  1.0000
  C   C18       1.0  0.6566840032272764  0.11521735083725561  0.24968875421153314  1.0000
  C   C19       1.0  0.5932872070126862  0.6347514223047741  0.24966151244705515  1.0000
  C   C20       1.0  0.1348070893636049  0.15650043600992092  0.7496250307942135  1.0000
  C   C21       1.0  0.3854253436463537  0.9069366270526589  0.25002908372027843  1.0000
  C   C22       1.0  0.3433100780476082  0.8847854501526057  0.7503118581096331  1.0000
  C   C23       1.0  0.4067122999075962  0.3652485541053566  0.7503394713495981  1.0000
  C   C24       1.0  0.8651922608636581  0.8434980800814602  0.25037133649972537  1.0000
  C   C25       1.0  0.4447565795951718  0.195042131193425  0.8901802400631669  1.0000
  C   C26       1.0  0.6951467713887708  0.9452707692394144  0.3900492608322638  1.0000
  C   C27       1.0  0.5552358905270935  0.8049578503684459  0.10982120373187597  1.0000
  C   C28       1.0  0.30485663419251813  0.054724957186707016  0.6099509429814348  1.0000
  O   O1        1.0  0.805212090411338  0.37186427796936533  0.9780793893989215  1.0000
  O   O2        1.0  0.6055030620075003  0.3056725445732128  0.4777478918583429  1.0000
  O   O3        1.0  0.8720868113045056  0.6723591899296296  0.4778752686843363  1.0000
  O   O4        1.0  0.1721139591478575  0.10585001460991351  0.9776402817231473  1.0000
  O   O5        1.0  0.19477428576806233  0.6281484243783241  0.0219215332263971  1.0000
  O   O6        1.0  0.39450965176357766  0.694316092556946  0.5222504369067594  1.0000
  O   O7        1.0  0.1279244817034382  0.3276478455889915  0.5221247436246444  1.0000
  O   O8        1.0  0.8278835068323006  0.8941427982465556  0.022351350392035802  1.0000
  O   O9        1.0  0.7706820305849362  0.5221178191069953  0.8514336447700048  1.0000
  O   O10       1.0  0.32876750198236937  0.27089450483776295  0.3510657049847269  1.0000
  O   O11       1.0  0.02220320054123451  0.5802446211089463  0.35131676229219994  1.0000
  O   O12       1.0  0.07988252774233473  0.8287585181283392  0.8510251416282844  1.0000
  O   O13       1.0  0.2293283553862011  0.47787785060457827  0.1485609661513791  1.0000
  O   O14       1.0  0.6712501237077788  0.7291210719081749  0.6489400801873517  1.0000
  O   O15       1.0  0.9778060157082181  0.41975390102899024  0.6486802808910144  1.0000
  O   O16       1.0  0.9201007804735538  0.17123291100791252  0.14896939341599594  1.0000
