data_image0
_chemical_formula_structural       Cd4Si4H128C208N32O32F24
_chemical_formula_sum              "Cd4 Si4 H128 C208 N32 O32 F24"
_cell_length_a       16.436406477000755
_cell_length_b       21.452102752000936
_cell_length_c       21.452109335000298
_cell_angle_alpha    89.99998767126357
_cell_angle_beta     89.99998543180784
_cell_angle_gamma    89.99996843816902

_space_group_name_H-M_alt    "P 1"
_space_group_IT_number       1

loop_
  _space_group_symop_operation_xyz
  'x, y, z'

loop_
  _atom_site_type_symbol
  _atom_site_label
  _atom_site_symmetry_multiplicity
  _atom_site_fract_x
  _atom_site_fract_y
  _atom_site_fract_z
  _atom_site_occupancy
  Cd  Cd1       1.0  0.15690677448900914  0.7500004891999981  0.7500002768944753  1.0000
  Cd  Cd2       1.0  0.843094131365639  0.2499995299585933  0.25000141375502954  1.0000
  Cd  Cd3       1.0  0.3426921723662701  0.24999963560419766  0.2500014624840078  1.0000
  Cd  Cd4       1.0  0.6573081250826435  0.750000849709238  0.7500006943201286  1.0000
  Si  Si1       1.0  0.092120978123468  0.25000062081484486  0.2500000884205776  1.0000
  Si  Si2       1.0  0.9078793193260001  0.749999398344073  0.7499997376104872  1.0000
  Si  Si3       1.0  0.40805047830177443  0.7499995038686293  0.7500002524382836  1.0000
  Si  Si4       1.0  0.5919492107422145  0.25000004913555074  0.2500005059021362  1.0000
  H   H1        1.0  0.0327220624974558  0.7660213102922101  0.8636012372657619  1.0000
  H   H2        1.0  0.0327196780996815  0.7339759913063589  0.6363984084007086  1.0000
  H   H3        1.0  0.032720300053242106  0.6363981303678088  0.7660220356992866  1.0000
  H   H4        1.0  0.032718398515903906  0.8636010358505787  0.7339766776580278  1.0000
  H   H5        1.0  0.9672794517635951  0.23397684424732298  0.1363990549200054  1.0000
  H   H6        1.0  0.9672812277551943  0.26602449400724737  0.3636009514756183  1.0000
  H   H7        1.0  0.967280605802131  0.3636009564814914  0.23397732417718947  1.0000
  H   H8        1.0  0.967281290528078  0.1363985171536015  0.26602408068239214  1.0000
  H   H9        1.0  0.028917062946327107  0.8026536055052986  0.9746411301827255  1.0000
  H   H10       1.0  0.028915350139378404  0.697342765390225  0.5253585162248413  1.0000
  H   H11       1.0  0.028915974319801308  0.525357730512674  0.8026534108222168  1.0000
  H   H12       1.0  0.028915221954221706  0.9746414373119164  0.6973443709666614  1.0000
  H   H13       1.0  0.9710838429095648  0.19734361672482958  0.0253591620032054  1.0000
  H   H14       1.0  0.971084947309926  0.3026577199234595  0.4746413098061667  1.0000
  H   H15       1.0  0.9710843231304765  0.4746408901821368  0.19734455059049347  1.0000
  H   H16       1.0  0.9710838586841818  0.025358581847207497  0.3026559212191416  1.0000
  H   H17       1.0  0.2832859100926584  0.8503202095976906  0.9569351491316528  1.0000
  H   H18       1.0  0.2832860508782178  0.6496830462137665  0.5430621169611387  1.0000
  H   H19       1.0  0.2832854297871493  0.5430636282671912  0.8503200254095591  1.0000
  H   H20       1.0  0.28328592277853915  0.9569368306153339  0.6496814360752269  1.0000
  H   H21       1.0  0.7167137789506344  0.149682140335301  0.043063744589972  1.0000
  H   H22       1.0  0.7167136381659135  0.35031697294537884  0.45693677676072764  1.0000
  H   H23       1.0  0.7167142592562714  0.45693685704637227  0.14968213139464132  1.0000
  H   H24       1.0  0.71671437467068  0.0430636546983081  0.3503188561104126  1.0000
  H   H25       1.0  0.27927776811932864  0.8074148710331809  0.848463769638677  1.0000
  H   H26       1.0  0.2792778420644737  0.69258792031588  0.6515339633894187  1.0000
  H   H27       1.0  0.2792766141327833  0.6515350515156441  0.807414676215018  1.0000
  H   H28       1.0  0.2792765624295798  0.8484649429050181  0.6925858537413703  1.0000
  H   H29       1.0  0.7207219209240565  0.192587012744994  0.1515355902376143  1.0000
  H   H30       1.0  0.720723063790736  0.3074116326881864  0.34846539648700775  1.0000
  H   H31       1.0  0.7207230749107084  0.3484654337979762  0.19258701443455103  1.0000
  H   H32       1.0  0.7207231266145585  0.1515346100992545  0.30741397228980116  1.0000
  H   H33       1.0  0.19953537954438622  0.8923106145633211  0.04592357368375131  1.0000
  H   H34       1.0  0.19953541407327446  0.6076899872709376  0.4540755423397656  1.0000
  H   H35       1.0  0.19953478813000206  0.4540756283645209  0.8923103195234249  1.0000
  H   H36       1.0  0.19953498202799844  0.04592452801239231  0.6076894012426309  1.0000
  H   H37       1.0  0.8004643094994182  0.10768987075049102  0.9540762523473209  1.0000
  H   H38       1.0  0.8004642749705158  0.3923109641977476  0.5459233513820082  1.0000
  H   H39       1.0  0.8004655093195582  0.5459239246395738  0.10768997266231392  1.0000
  H   H40       1.0  0.800464707015884  0.9540759573014697  0.3923099586338169  1.0000
  H   H41       1.0  0.09661994709279044  0.8673438519217455  0.05618178508744622  1.0000
  H   H42       1.0  0.09661935867925563  0.6326563272132475  0.4438168848252958  1.0000
  H   H43       1.0  0.09661935623989142  0.4438169847799853  0.8673430888903583  1.0000
  H   H44       1.0  0.09661953447773901  0.05618321505225049  0.6326566519194401  1.0000
  H   H45       1.0  0.9033797419511844  0.13265616723730028  0.9438180409436754  1.0000
  H   H46       1.0  0.9033797219591336  0.3673441581007424  0.5561824750512089  1.0000
  H   H47       1.0  0.9033809412099104  0.5561821020693926  0.1326567371408061  1.0000
  H   H48       1.0  0.903380154565994  0.9438172702615119  0.36734364026625604  1.0000
  H   H49       1.0  0.422113264179963  0.7604181280715849  0.11714639916831973  1.0000
  H   H50       1.0  0.42211261916112636  0.7395819136259547  0.3828540719700585  1.0000
  H   H51       1.0  0.4221126846767548  0.38285367304798973  0.7604183803019141  1.0000
  H   H52       1.0  0.42211278361023835  0.11714592319212612  0.7395822294243218  1.0000
  H   H53       1.0  0.5778870332693489  0.2395818910872336  0.8828543591719936  1.0000
  H   H54       1.0  0.5778870698826993  0.2604181055329918  0.6171466863703117  1.0000
  H   H55       1.0  0.5778870043671419  0.6171463461110065  0.23958191188383182  1.0000
  H   H56       1.0  0.5778869054337366  0.8828540959669197  0.2604175966067999  1.0000
  H   H57       1.0  0.46786537325407107  0.680727087823854  0.19366148972273584  1.0000
  H   H58       1.0  0.46786530476984484  0.8192729345551086  0.30633850635030774  1.0000
  H   H59       1.0  0.46786603534665977  0.30633856204624277  0.6807273861770328  1.0000
  H   H60       1.0  0.46786544443407513  0.19366101487499068  0.8192732146383792  1.0000
  H   H61       1.0  0.5321349241953186  0.31927293133501417  0.8063388024629534  1.0000
  H   H62       1.0  0.5321349926793033  0.1807275507584762  0.6936622519899559  1.0000
  H   H63       1.0  0.5321342621029006  0.6936609909578522  0.3192729060087061  1.0000
  H   H64       1.0  0.532134244610063  0.8063385381292888  0.1807266113927923  1.0000
  H   H65       1.0  0.07717657925002191  0.6177342701841866  0.2656171625860041  1.0000
  H   H66       1.0  0.07717648938174192  0.882265451005708  0.23438197726814286  1.0000
  H   H67       1.0  0.07717726696136401  0.23438206887504984  0.6177340927589869  1.0000
  H   H68       1.0  0.07717721183254873  0.2656176730117537  0.8822656518374148  1.0000
  H   H69       1.0  0.922822501388126  0.3822666812845271  0.7343826634450752  1.0000
  H   H70       1.0  0.9228238080675554  0.1177350343079766  0.7656178487628722  1.0000
  H   H71       1.0  0.922822422082689  0.7656179502840458  0.3822652671175036  1.0000
  H   H72       1.0  0.9228236940223342  0.7343823461469866  0.11773464034821762  1.0000
  H   H73       1.0  0.0313745828202983  0.6938182052291141  0.18549450177534516  1.0000
  H   H74       1.0  0.0313739126278918  0.8061810691457011  0.31450464699927494  1.0000
  H   H75       1.0  0.03137463474901381  0.31450428587675117  0.6938179820060314  1.0000
  H   H76       1.0  0.0313740540501612  0.18549547535000235  0.8061817715109074  1.0000
  H   H77       1.0  0.9686251062235133  0.3061822800846982  0.8145053242557269  1.0000
  H   H78       1.0  0.9686257764162464  0.19381848385857134  0.6854951790318964  1.0000
  H   H79       1.0  0.968625662700774  0.6854952671275  0.3061809117158277  1.0000
  H   H80       1.0  0.9686262433992285  0.8145045438088658  0.19381852067477473  1.0000
  H   H81       1.0  0.29895681299927906  0.5456802005795325  0.3957801064437519  1.0000
  H   H82       1.0  0.29895793136737586  0.954319893119731  0.10421899021645233  1.0000
  H   H83       1.0  0.29895755515288874  0.10421949831384583  0.545680564653857  1.0000
  H   H84       1.0  0.29895799097042913  0.3957801499275888  0.9543200690579642  1.0000
  H   H85       1.0  0.701042267639373  0.45431935242487503  0.6042197195874764  1.0000
  H   H86       1.0  0.7010435828930641  0.0456805921937971  0.8957799035051935  1.0000
  H   H87       1.0  0.7010421338910932  0.8957800546903344  0.45432019368657  1.0000
  H   H88       1.0  0.7010429148846243  0.6042194030763852  0.04568022312771801  1.0000
  H   H89       1.0  0.40208762900444134  0.5551174847800127  0.370889302985539  1.0000
  H   H90       1.0  0.4020881374866719  0.9448825653730636  0.1291102397436532  1.0000
  H   H91       1.0  0.40208896831328644  0.1291098094086749  0.5551183184872883  1.0000
  H   H92       1.0  0.4020894251510543  0.3708897952862387  0.9448822951387188  1.0000
  H   H93       1.0  0.5979108432286397  0.44488206822447307  0.6291109892003776  1.0000
  H   H94       1.0  0.5979127683681187  0.05511791994049281  0.8708895862872982  1.0000
  H   H95       1.0  0.597910720730873  0.8708892774407317  0.4448824398531813  1.0000
  H   H96       1.0  0.5979120891094923  0.6291097577176002  0.0551179970468993  1.0000
  H   H97       1.0  0.46996564447621847  0.473298458274833  0.3086007917677307  1.0000
  H   H98       1.0  0.4699658244012497  0.026701691502829302  0.19140117610321997  1.0000
  H   H99       1.0  0.46996693524474875  0.19139973487038023  0.4732993114072457  1.0000
  H   H100      1.0  0.46996818406518076  0.3086018133708209  0.026702656463200497  1.0000
  H   H101      1.0  0.5300346529730434  0.5267006285741901  0.6914022973458104  1.0000
  H   H102      1.0  0.53003447304787  0.9732997261204942  0.8085977176184402  1.0000
  H   H103      1.0  0.5300333622047334  0.8085998181336647  0.5267014469331173  1.0000
  H   H104      1.0  0.5300339385995446  0.6914005365613037  0.9732995003405666  1.0000
  H   H105      1.0  0.46687620736928187  0.36277876115661917  0.2707723560743389  1.0000
  H   H106      1.0  0.4668738616906084  0.1372209237712525  0.2292300785532362  1.0000
  H   H107      1.0  0.46687624008626477  0.22922867306154868  0.3627801058676497  1.0000
  H   H108      1.0  0.46687626259493004  0.27077287648488385  0.1372223287594778  1.0000
  H   H109      1.0  0.5331253068910445  0.6372203256922047  0.7292302668844644  1.0000
  H   H110      1.0  0.5331252189476104  0.8627800276975107  0.7707692813232189  1.0000
  H   H111      1.0  0.5331240573628905  0.7707713460971631  0.6372215847819122  1.0000
  H   H112      1.0  0.5331252516645435  0.7292290072926518  0.8627793618897642  1.0000
  H   H113      1.0  0.21967131971542392  0.3469752300379482  0.31106399077504693  1.0000
  H   H114      1.0  0.21967080127136282  0.153024093115647  0.18893522891547582  1.0000
  H   H115      1.0  0.21967258735299575  0.18893663950510134  0.3469765601508499  1.0000
  H   H116      1.0  0.21967135885019223  0.3110626836480607  0.15302312569412635  1.0000
  H   H117      1.0  0.7803283693290269  0.6530243229665301  0.6889339706376207  1.0000
  H   H118      1.0  0.7803282793672967  0.8469749937338877  0.811065529425058  1.0000
  H   H119      1.0  0.780328318501475  0.8110643119631291  0.6530241981893071  1.0000
  H   H120      1.0  0.7803283301948626  0.6889345385824227  0.8469762341826694  1.0000
  H   H121      1.0  0.2147085100919527  0.455519364473183  0.3532845363495484  1.0000
  H   H122      1.0  0.21470869207323773  0.044480893085413704  0.14671375199811373  1.0000
  H   H123      1.0  0.21470921249019173  0.1467146606851415  0.4555197374885581  1.0000
  H   H124      1.0  0.21470920648642536  0.3532837322539706  0.044479949323061915  1.0000
  H   H125      1.0  0.7852899621414197  0.5444806546863673  0.646712958908566  1.0000
  H   H126      1.0  0.785290388565258  0.9555186599188941  0.8532870063423703  1.0000
  H   H127      1.0  0.7852904765537049  0.8532853584738549  0.5444805546971878  1.0000
  H   H128      1.0  0.7852910909644637  0.6467125576668451  0.9555194105537766  1.0000
  C   C1        1.0  0.08716521781028062  0.7840824628441752  0.8865919761661304  1.0000
  C   C2        1.0  0.08716346242889732  0.7159162142303757  0.6134071927421942  1.0000
  C   C3        1.0  0.08716407934069542  0.613407363730019  0.7840831938483177  1.0000
  C   C4        1.0  0.0871621672765031  0.8865913133450434  0.7159159750602414  1.0000
  C   C5        1.0  0.9128362964505997  0.2159161578501312  0.11340831601958712  1.0000
  C   C6        1.0  0.9128368350205706  0.2840838049285422  0.3865926332888705  1.0000
  C   C7        1.0  0.9128368265144362  0.38659218927399763  0.21591663218273993  1.0000
  C   C8        1.0  0.9128375217674647  0.11340870581400252  0.2840838509708804  1.0000
  C   C9        1.0  0.08526454123756369  0.8052934309339503  0.94797707981499  1.0000
  C   C10       1.0  0.08526282147570191  0.6947057130978536  0.5520225556180806  1.0000
  C   C11       1.0  0.08526283070924026  0.5520222372664065  0.8052932361123767  1.0000
  C   C12       1.0  0.0852620983819605  0.9479773729207394  0.6947059331662545  1.0000
  C   C13       1.0  0.9147369730231534  0.19470565591511496  0.05202321237068471  1.0000
  C   C14       1.0  0.914737475973766  0.3052943060610644  0.4479772704129844  1.0000
  C   C15       1.0  0.9147368583350544  0.44797731573797245  0.1947056576095463  1.0000
  C   C16       1.0  0.9147363738510422  0.052022180083696384  0.30529482517428624  1.0000
  C   C17       1.0  0.15616749586926199  0.8298476494110643  0.9744565176335271  1.0000
  C   C18       1.0  0.15616580254266677  0.6701528631468747  0.5255421716811242  1.0000
  C   C19       1.0  0.15616641240394813  0.5255418318553068  0.8298474608169716  1.0000
  C   C20       1.0  0.15616566919709382  0.9744577483931991  0.6701526269617732  1.0000
  C   C21       1.0  0.8438328015802838  0.1701523697479033  0.025542842242913404  1.0000
  C   C22       1.0  0.843833278095815  0.3298471560122991  0.47445765435005444  1.0000
  C   C23       1.0  0.8438338850456122  0.4744577211487879  0.1701528313687675  1.0000
  C   C24       1.0  0.843834019846881  0.025542270765846812  0.32984719906934873  1.0000
  C   C25       1.0  0.2267857353060379  0.831758872973019  0.9380339850176826  1.0000
  C   C26       1.0  0.22678524807294315  0.6682439405405489  0.5619637582337804  1.0000
  C   C27       1.0  0.2267846330775144  0.5619648196058761  0.8317582178327145  1.0000
  C   C28       1.0  0.22678391667986383  0.938035663134059  0.6682423223469983  1.0000
  C   C29       1.0  0.7732145621429114  0.168243010805071  0.06196490870392781  1.0000
  C   C30       1.0  0.7732150493766032  0.3317560786184188  0.4380356016426532  1.0000
  C   C31       1.0  0.7732150559660553  0.4380356657077868  0.16824300666223732  1.0000
  C   C32       1.0  0.773215163958618  0.061964356025114894  0.33175750368418744  1.0000
  C   C33       1.0  0.22463321503816772  0.8086035741078562  0.8774870279899291  1.0000
  C   C34       1.0  0.22463269106639674  0.6913987741598432  0.6225107156808181  1.0000
  C   C35       1.0  0.22463207652722167  0.6225118008601099  0.8086038451093104  1.0000
  C   C36       1.0  0.22463139595566162  0.8774882166339067  0.6913971616443038  1.0000
  C   C37       1.0  0.7753670824108739  0.1913978435154178  0.1225123318863552  1.0000
  C   C38       1.0  0.7753676063828154  0.3086021773086642  0.37748864419552325  1.0000
  C   C39       1.0  0.7753676125164405  0.3774882182987369  0.19139784554031536  1.0000
  C   C40       1.0  0.7753682930880718  0.12251226867986278  0.3086031305413998  1.0000
  C   C41       1.0  0.15736376763241114  0.8531741342316224  0.0409072920726459  1.0000
  C   C42       1.0  0.15736316396553465  0.6468260192547176  0.45909136600966616  1.0000
  C   C43       1.0  0.15736316601630312  0.45909100063675357  0.8531733791709328  1.0000
  C   C44       1.0  0.1573633505273975  0.0409087073920702  0.6468263498084923  1.0000
  C   C45       1.0  0.842635921411393  0.1468263510821899  0.9590925339584262  1.0000
  C   C46       1.0  0.8426359166730253  0.3531739999045058  0.5409079938668881  1.0000
  C   C47       1.0  0.8426371314334987  0.5409080862126316  0.14682644686022434  1.0000
  C   C48       1.0  0.8426363385165773  0.9590913117669757  0.3531734762226293  1.0000
  C   C49       1.0  0.1247356075120294  0.7688318185741708  0.11439005491920541  1.0000
  C   C50       1.0  0.12473435921939571  0.7311683486892663  0.38560907567243424  1.0000
  C   C51       1.0  0.12473441978260523  0.38560917576452175  0.7688315676507713  1.0000
  C   C52       1.0  0.12473513189456044  0.11439101219626481  0.7311677015286763  1.0000
  C   C53       1.0  0.8752640815319453  0.23116820058487522  0.8856097711119162  1.0000
  C   C54       1.0  0.8752647214185814  0.26883306893421377  0.6143907503585951  1.0000
  C   C55       1.0  0.8752658776671042  0.6143903772396797  0.23116779222571185  1.0000
  C   C56       1.0  0.8752663823657303  0.8856094731171639  0.2688321245022182  1.0000
  C   C57       1.0  0.1523803453521637  0.7223379972570142  0.16076172094157226  1.0000
  C   C58       1.0  0.1523796874452827  0.7776621583335555  0.3392369381113128  1.0000
  C   C59       1.0  0.15238038980300672  0.3392374969878063  0.7223377737235098  1.0000
  C   C60       1.0  0.152380444750854  0.1607631454545242  0.7776619562262682  1.0000
  C   C61       1.0  0.8476199520968921  0.2776629542113937  0.8392385712440176  1.0000
  C   C62       1.0  0.8476200015988411  0.22233786082558987  0.6607619556105534  1.0000
  C   C63       1.0  0.8476192992412167  0.660762056016523  0.2776615861530375  1.0000
  C   C64       1.0  0.8476198526984506  0.8392373398591602  0.22233786980473982  1.0000
  C   C65       1.0  0.23659401031360264  0.7130111538029456  0.17060783175079317  1.0000
  C   C66       1.0  0.23659334897200077  0.7869894323836136  0.32939220936452074  1.0000
  C   C67       1.0  0.2365940581329725  0.32939229149359767  0.7130104786741073  1.0000
  C   C68       1.0  0.23659410290925825  0.17060924769974412  0.7869883025649216  1.0000
  C   C69       1.0  0.7634062871358654  0.2869888653559727  0.8293919942802647  1.0000
  C   C70       1.0  0.763406948477055  0.2130115190847874  0.6706080828210688  1.0000
  C   C71       1.0  0.7634062393165736  0.6706077276653702  0.28698888120233335  1.0000
  C   C72       1.0  0.7634061945400462  0.8293912376139403  0.21301152346609342  1.0000
  C   C73       1.0  0.29520718045693434  0.7473942546710788  0.1367193133563376  1.0000
  C   C74       1.0  0.2952071409811127  0.7526063067664025  0.36328025018882937  1.0000
  C   C75       1.0  0.29520660871746435  0.3632798624972152  0.7473945006752628  1.0000
  C   C76       1.0  0.29520668926075194  0.1367207196376867  0.7526056676124003  1.0000
  C   C77       1.0  0.7047925085871968  0.2526057644880666  0.8632795803655359  1.0000
  C   C78       1.0  0.7047925480624503  0.2473946447021333  0.6367200419968173  1.0000
  C   C79       1.0  0.7047924719211098  0.6367196905071351  0.2526057915105966  1.0000
  C   C80       1.0  0.7047929997829671  0.8632802318309489  0.24739369226399793  1.0000
  C   C81       1.0  0.2689885433781569  0.7972359989044265  0.0934401166225598  1.0000
  C   C82       1.0  0.26898791694934954  0.702764107449049  0.40655945202904326  1.0000
  C   C83       1.0  0.2689885669465326  0.4065595360304001  0.7972362173187408  1.0000
  C   C84       1.0  0.2689880867320369  0.09344105717505613  0.7027634899205568  1.0000
  C   C85       1.0  0.7310111456657395  0.20276402025456974  0.9065601755631932  1.0000
  C   C86       1.0  0.7310111636890542  0.2972359117100751  0.5934408401567667  1.0000
  C   C87       1.0  0.7310111220976058  0.5934400169738793  0.2027636087124307  1.0000
  C   C88       1.0  0.7310109939061818  0.9065598942937072  0.2972358699558982  1.0000
  C   C89       1.0  0.3774745575448009  0.7352234015641771  0.14488214030725294  1.0000
  C   C90       1.0  0.37747329522058953  0.7647775912913064  0.3551192718341413  1.0000
  C   C91       1.0  0.37747459614524104  0.3551179425901339  0.7352231962621263  1.0000
  C   C92       1.0  0.3774746667829449  0.1448821386529247  0.7647769560031181  1.0000
  C   C93       1.0  0.6225263483097622  0.2647770837492303  0.8551190841875783  1.0000
  C   C94       1.0  0.6225257854172527  0.23522336017720144  0.6448824188154418  1.0000
  C   C95       1.0  0.6225250928986554  0.6448820765688623  0.26477709592361987  1.0000
  C   C96       1.0  0.6225256306664378  0.8551183466608095  0.23522240387326582  1.0000
  C   C97       1.0  0.40322350385025646  0.6902110208375304  0.18814175807290215  1.0000
  C   C98       1.0  0.40322344034903784  0.8097899611455404  0.31185825058965133  1.0000
  C   C99       1.0  0.4032235564717297  0.31185831329151636  0.6902103754309936  1.0000
  C   C100      1.0  0.4032229726735539  0.18814222323418756  0.8097893056647936  1.0000
  C   C101      1.0  0.5967761851936403  0.30978899832146567  0.8118585341128437  1.0000
  C   C102      1.0  0.5967762486945248  0.19021099032299565  0.6881420415959952  1.0000
  C   C103      1.0  0.5967761325722453  0.6881417058675297  0.30978945060012825  1.0000
  C   C104      1.0  0.5967761079648356  0.8118582620798092  0.19021005421171114  1.0000
  C   C105      1.0  0.346973987982608  0.6578505647913031  0.22408601791942576  1.0000
  C   C106      1.0  0.346973913157477  0.8421495086331988  0.27591400169835373  1.0000
  C   C107      1.0  0.3469746616339792  0.27591406673088414  0.657850396806225  1.0000
  C   C108      1.0  0.34697464966842523  0.2240855612357606  0.8421502275538586  1.0000
  C   C109      1.0  0.6530250926557959  0.3421494543678206  0.7759142742663843  1.0000
  C   C110      1.0  0.6530257758864978  0.15785051052584714  0.724085824332768  1.0000
  C   C111      1.0  0.6530250274101591  0.7240854862733953  0.3421494292249463  1.0000
  C   C112      1.0  0.6530256477809715  0.7759144579231075  0.15785006463183043  1.0000
  C   C113      1.0  0.3745670108614122  0.6122713390341445  0.27145618705691993  1.0000
  C   C114      1.0  0.37456631059976087  0.887728722739574  0.22854336103229403  1.0000
  C   C115      1.0  0.37456830898898374  0.2285434181970842  0.6122716645220125  1.0000
  C   C116      1.0  0.3745682478507463  0.2714561981182442  0.8877298867732082  1.0000
  C   C117      1.0  0.6254320697772401  0.38772821397025564  0.7285436389743083  1.0000
  C   C118      1.0  0.6254333784442923  0.11227129641952162  0.7714559988442036  1.0000
  C   C119      1.0  0.6254319884604983  0.771456134806968  0.3877290938183577  1.0000
  C   C120      1.0  0.6254320495986577  0.7285433548857512  0.11227133772177923  1.0000
  C   C121      1.0  0.23023862844406306  0.5920840679765789  0.3003438054452516  1.0000
  C   C122      1.0  0.23023792326413434  0.9079155885840183  0.19965577075331714  1.0000
  C   C123      1.0  0.23023811262674343  0.19965537365900585  0.5920839233046921  1.0000
  C   C124      1.0  0.23023802402711627  0.30034430359889086  0.9079162576363091  1.0000
  C   C125      1.0  0.7697610606000039  0.40791548502764385  0.6996564867405511  1.0000
  C   C126      1.0  0.7697617657801673  0.09208396442036101  0.800343122968606  1.0000
  C   C127      1.0  0.7697609680121504  0.800343713190685  0.4079154365719617  1.0000
  C   C128      1.0  0.7697616650165316  0.6996561817148219  0.0920845007040185  1.0000
  C   C129      1.0  0.20411977323144737  0.635513854031032  0.25067083254392497  1.0000
  C   C130      1.0  0.2041184743680233  0.86448581355819  0.24932874874158276  1.0000
  C   C131      1.0  0.20412045652899743  0.24932882667052778  0.6355141485270367  1.0000
  C   C132      1.0  0.20411920123254396  0.25067086161555346  0.8644865036553571  1.0000
  C   C133      1.0  0.7958799158122788  0.3644866312827304  0.7493294596417713  1.0000
  C   C134      1.0  0.7958806062708704  0.1355132732914939  0.7506706111350708  1.0000
  C   C135      1.0  0.795880449326134  0.7506707263334889  0.3644856775040139  1.0000
  C   C136      1.0  0.7958810962168458  0.7493291575433076  0.13551378853033216  1.0000
  C   C137      1.0  0.26278465860178113  0.6684206428840653  0.21539923352847273  1.0000
  C   C138      1.0  0.2627851968947397  0.8315799322435282  0.2845998701765993  1.0000
  C   C139      1.0  0.2627853297339088  0.2846004113308496  0.6684204602103634  1.0000
  C   C140      1.0  0.262785327519282  0.21539971833891505  0.8315801805463324  1.0000
  C   C141      1.0  0.7372144220365301  0.3315798424298748  0.7846005925026563  1.0000
  C   C142      1.0  0.7372151005548775  0.1684200869154893  0.7153990235452099  1.0000
  C   C143      1.0  0.7372143593101445  0.7153996078282462  0.3315788996661341  1.0000
  C   C144      1.0  0.737214969930186  0.784600300820003  0.16841964548473246  1.0000
  C   C145      1.0  0.1218043336994086  0.6446360552801876  0.23952927786672976  1.0000
  C   C146      1.0  0.12180425450453924  0.8553631809112263  0.26046938714116413  1.0000
  C   C147      1.0  0.12180501290843891  0.2604694758887191  0.6446363352168589  1.0000
  C   C148      1.0  0.12180437705198707  0.23953024715450508  0.8553629345333037  1.0000
  C   C149      1.0  0.8781953553444026  0.3553644300336244  0.760470548164342  1.0000
  C   C150      1.0  0.878195434539677  0.14463637209310323  0.7395299727353831  1.0000
  C   C151      1.0  0.8781952845412706  0.7395300771154752  0.3553630246596243  1.0000
  C   C152      1.0  0.878195920397481  0.7604697720044126  0.14463689149776124  1.0000
  C   C153      1.0  0.09605843047296504  0.6876271891392419  0.1943099462713249  1.0000
  C   C154      1.0  0.09605715035241501  0.812371591768681  0.3056887237509969  1.0000
  C   C155      1.0  0.09605909424079333  0.30568882005251646  0.6876274432246989  1.0000
  C   C156      1.0  0.09605789674614583  0.19431138001657902  0.8123722976943528  1.0000
  C   C157      1.0  0.9039412585707683  0.31237329617452053  0.8056903459143783  1.0000
  C   C158      1.0  0.9039419302862375  0.18762796123571954  0.6943111022802385  1.0000
  C   C159      1.0  0.9039424200197389  0.6943111991061954  0.312371916651621  1.0000
  C   C160      1.0  0.9039424007030735  0.8056891052970557  0.18762799449128661  1.0000
  C   C161      1.0  0.34127629088624906  0.5398868243670664  0.35683987627853503  1.0000
  C   C162      1.0  0.341276783759497  0.9601127853084106  0.143159678294289  1.0000
  C   C163      1.0  0.3412776198700911  0.1431592624646854  0.5398876528082682  1.0000
  C   C164      1.0  0.34127808174863367  0.3568403679073384  0.9601134388159452  1.0000
  C   C165      1.0  0.6587221813470736  0.4601122624827029  0.643159949752807  1.0000
  C   C166      1.0  0.6587235136899708  0.03988723385050721  0.8568401477367759  1.0000
  C   C167      1.0  0.6587220691741394  0.8568398243847711  0.46011263937757724  1.0000
  C   C168      1.0  0.658723432511671  0.6431596512512172  0.0398873195242473  1.0000
  C   C169      1.0  0.34230087345923016  0.47317355299019676  0.3342481655708411  1.0000
  C   C170      1.0  0.34230106180857695  0.026826184538499803  0.1657514963909392  1.0000
  C   C171      1.0  0.342301569270852  0.16575192645388628  0.4731739310043255  1.0000
  C   C172      1.0  0.34230219121303657  0.3342482772290438  0.026827129421100403  1.0000
  C   C173      1.0  0.6576982071795072  0.5268255338593946  0.6657521266150612  1.0000
  C   C174      1.0  0.6576986272354901  0.9731733684657226  0.8342487957948634  1.0000
  C   C175      1.0  0.6576975113678003  0.8342476265505138  0.5268258950269029  1.0000
  C   C176      1.0  0.6576993230472611  0.6657517419295188  0.9731736289190922  1.0000
  C   C177      1.0  0.41360722763503344  0.4465905986354882  0.3105577172485284  1.0000
  C   C178      1.0  0.4136079974218917  0.0534095749391952  0.18944239698019064  1.0000
  C   C179      1.0  0.4136085142679421  0.18944189961313646  0.4465909878199811  1.0000
  C   C180      1.0  0.41360914441121827  0.310557341651446  0.05340959256322721  1.0000
  C   C181      1.0  0.5863924614089698  0.5534084882138189  0.689443973401197  1.0000
  C   C182      1.0  0.5863923000274839  0.9465909103745386  0.8105569628961931  1.0000
  C   C183      1.0  0.5863911747760469  0.8105576533910437  0.5534097705204388  1.0000
  C   C184      1.0  0.5863923698492501  0.6894422113523434  0.9465911657770223  1.0000
  C   C185      1.0  0.4121063168756793  0.38533553387279795  0.288966374026522  1.0000
  C   C186      1.0  0.4121058186637044  0.11466370802626362  0.21103467280399005  1.0000
  C   C187      1.0  0.4121069719166428  0.21103512772369024  0.38533686934705  1.0000
  C   C188      1.0  0.412107597243896  0.28896597879383273  0.11466510979227712  1.0000
  C   C189      1.0  0.5878939805739024  0.6146630868215581  0.7110357827778202  1.0000
  C   C190      1.0  0.5878938703803414  0.8853363111328317  0.7889646870725074  1.0000
  C   C191      1.0  0.5878927171269339  0.7889653575899729  0.6146643551479016  1.0000
  C   C192      1.0  0.5878939170161602  0.7110345065194396  0.88533611470249  1.0000
  C   C193      1.0  0.2742811777610541  0.3761192145244364  0.3123053520901423  1.0000
  C   C194      1.0  0.2742812890786723  0.12388055172516492  0.18769385696448643  1.0000
  C   C195      1.0  0.2742824516859912  0.187694788536021  0.3761200760178981  1.0000
  C   C196      1.0  0.2742818403700724  0.3123045115582244  0.12388099765511382  1.0000
  C   C197      1.0  0.7257179028779178  0.6238798723252968  0.6876935416318872  1.0000
  C   C198      1.0  0.7257177915598164  0.8761190012791431  0.8123069013759903  1.0000
  C   C199      1.0  0.725717237357742  0.8123056967777416  0.6238802161678054  1.0000
  C   C200      1.0  0.7257184570800634  0.687693642981614  0.87611882837615  1.0000
  C   C201      1.0  0.271661358092473  0.4367142048389852  0.3354340737403804  1.0000
  C   C202      1.0  0.2716621290395835  0.0632855625166755  0.1645651358244251  1.0000
  C   C203      1.0  0.27166265588324023  0.1645655814031315  0.43671458626189263  1.0000
  C   C204      1.0  0.27166265646530974  0.33543371979727965  0.0632855556120404  1.0000
  C   C205      1.0  0.728337114140743  0.5632858143204658  0.6645643538269823  1.0000
  C   C206      1.0  0.7283375600044054  0.9367139904874973  0.8354356225159948  1.0000
  C   C207      1.0  0.7283376415662276  0.8354344377557865  0.5632852397691722  1.0000
  C   C208      1.0  0.7283376409849965  0.6645639685877923  0.9367142704192734  1.0000
  N   N1        1.0  0.15584933598854184  0.7854944348152773  0.8524163090887741  1.0000
  N   N2        1.0  0.15584878708762062  0.7145065440315292  0.6475823802876735  1.0000
  N   N3        1.0  0.15584757143407302  0.6475834859568934  0.7854942335353245  1.0000
  N   N4        1.0  0.15584750961463817  0.8524170267356795  0.7145053881507266  1.0000
  N   N5        1.0  0.8441515698661776  0.2145060504982297  0.1475839830968013  1.0000
  N   N6        1.0  0.8441521187671697  0.2854939412820343  0.3524174457432779  1.0000
  N   N7        1.0  0.844152117609582  0.35241699935681936  0.21450652480500312  1.0000
  N   N8        1.0  0.8441521794290952  0.14758345857808314  0.2854949040349695  1.0000
  N   N9        1.0  0.18480955818633768  0.8042628346114142  0.08461814777032832  1.0000
  N   N10       1.0  0.18480893387882702  0.695737773440861  0.41538097112124467  1.0000
  N   N11       1.0  0.18480897007419375  0.4153805997378228  0.804262107087368  1.0000
  N   N12       1.0  0.1848091069370454  0.08461909670225509  0.6957371503921124  1.0000
  N   N13       1.0  0.8151901308577153  0.1957371845476814  0.9153812121061692  1.0000
  N   N14       1.0  0.8151901467591502  0.3042636441826189  0.5846188549097918  1.0000
  N   N15       1.0  0.8151907189700298  0.5846189532664994  0.1957372527891792  1.0000
  N   N16       1.0  0.8151905821069293  0.9153809224567908  0.30426267563900933  1.0000
  N   N17       1.0  0.3433851033134943  0.35113377292288567  0.2895882346691253  1.0000
  N   N18       1.0  0.3433845807288877  0.14886549799322782  0.21041282554548252  1.0000
  N   N19       1.0  0.3433857520681515  0.210413295450266  0.35113511120994906  1.0000
  N   N20       1.0  0.34338575719012715  0.2895873739297201  0.14886641515895602  1.0000
  N   N21       1.0  0.6566151941360803  0.6488653139263434  0.710412989825912  1.0000
  N   N22       1.0  0.6566151083150092  0.8511345211657614  0.7895874666402634  1.0000
  N   N23       1.0  0.6566145453808263  0.7895876560180851  0.648865647130265  1.0000
  N   N24       1.0  0.6566151486645992  0.7104126452289137  0.8511348093359247  1.0000
  N   N25       1.0  0.31433608834428384  0.5830275946275449  0.30726619442359043  1.0000
  N   N26       1.0  0.3143359873592999  0.9169720264233661  0.19273336539615124  1.0000
  N   N27       1.0  0.31433679122286423  0.19273342471537802  0.5830283960988255  1.0000
  N   N28       1.0  0.31433608623721204  0.3072662170324704  0.916972700772483  1.0000
  N   N29       1.0  0.6856636006997762  0.41697195837668494  0.6927340977622054  1.0000
  N   N30       1.0  0.6856643100904095  0.08302752658083529  0.8072659944803392  1.0000
  N   N31       1.0  0.6856635062266889  0.8072661282887239  0.4169718960869133  1.0000
  N   N32       1.0  0.6856642112120994  0.692733802126348  0.08302805756783731  1.0000
  O   O1        1.0  0.052117543447252515  0.7774179398617775  0.10259821365234961  1.0000
  O   O2        1.0  0.052117514221748706  0.7225822580638734  0.3974009310822241  1.0000
  O   O3        1.0  0.052117567994884005  0.39740104120501485  0.7774167431971435  1.0000
  O   O4        1.0  0.05211829143084402  0.1025991774177299  0.7225825401251172  1.0000
  O   O5        1.0  0.9478821455967222  0.22258207929726836  0.8974016123787723  1.0000
  O   O6        1.0  0.9478827832272999  0.2774191595594004  0.6025984287940603  1.0000
  O   O7        1.0  0.9478827294549959  0.6025980456444201  0.22258261667938942  1.0000
  O   O8        1.0  0.9478820060184605  0.8974013078959615  0.2774172859058979  1.0000
  O   O9        1.0  0.3176056098891635  0.8320176634163159  0.0669317591945386  1.0000
  O   O10       1.0  0.3176043912508178  0.6679838208733742  0.43306779998833633  1.0000
  O   O11       1.0  0.3176038010417771  0.4330674129561628  0.8320164725193495  1.0000
  O   O12       1.0  0.3176051766390344  0.06693269356674848  0.6679827590969225  1.0000
  O   O13       1.0  0.6823940791546409  0.1679828218975032  0.9330680668365333  1.0000
  O   O14       1.0  0.6823934725760028  0.3320180629051279  0.5669320260427568  1.0000
  O   O15       1.0  0.6823952795966123  0.566933072357834  0.16798288735715525  1.0000
  O   O16       1.0  0.6823951208103409  0.9330677917469926  0.33201660077946843  1.0000
  O   O17       1.0  0.18151812859532876  0.5657178946343536  0.33516602972934356  1.0000
  O   O18       1.0  0.18151863283728184  0.9342827148075158  0.1648326236485218  1.0000
  O   O19       1.0  0.18152005959355932  0.16483455785654394  0.5657177600044321  1.0000
  O   O20       1.0  0.1815193288118594  0.3351665384366456  0.9342824304247729  1.0000
  O   O21       1.0  0.8184809520428901  0.4342830568344097  0.6648333301471113  1.0000
  O   O22       1.0  0.8184816646125058  0.0657168381967281  0.8351662700733374  1.0000
  O   O23       1.0  0.8184814546663121  0.8351668597663744  0.434282532180987  1.0000
  O   O24       1.0  0.8184815770431016  0.6648334807221445  0.065717395606228  1.0000
  O   O25       1.0  0.44718568485622984  0.6007577661043371  0.2804002900295757  1.0000
  O   O26       1.0  0.4471855876948327  0.8992422650065348  0.2195992439164129  1.0000
  O   O27       1.0  0.4471851602393146  0.21959975870941412  0.6007581053098293  1.0000
  O   O28       1.0  0.44718508885201663  0.28039982694406257  0.8992424995333225  1.0000
  O   O29       1.0  0.552814004187745  0.3992422530547088  0.7195995360015459  1.0000
  O   O30       1.0  0.5528141013490498  0.100758220307327  0.7804001159600349  1.0000
  O   O31       1.0  0.5528145288047526  0.780399794294816  0.39924218687596646  1.0000
  O   O32       1.0  0.5528152085975435  0.7195997260600322  0.10075779265241643  1.0000
  F   F1        1.0  0.5155758064488084  0.749999947322486  0.7500002419674558  1.0000
  F   F2        1.0  0.4844244910008444  0.24999913952679256  0.25000051637296394  1.0000
  F   F3        1.0  0.4081697445069921  0.7338239417364958  0.6721794686241653  1.0000
  F   F4        1.0  0.40816970704998573  0.7661755321051729  0.8278210362291318  1.0000
  F   F5        1.0  0.40816970050045154  0.8278203150074642  0.7338242123836451  1.0000
  F   F6        1.0  0.4081703594619413  0.6721791588340267  0.7661767586242194  1.0000
  F   F7        1.0  0.591828727725826  0.266176543577572  0.32782035740702753  1.0000
  F   F8        1.0  0.5918287651829246  0.2338244870540791  0.17217925595673483  1.0000
  F   F9        1.0  0.591830596949194  0.17217877184181424  0.2661765459567675  1.0000
  F   F10       1.0  0.5918293295818772  0.32782086032491964  0.23382399971615805  1.0000
  F   F11       1.0  0.30012664455593113  0.7499999928084334  0.7500002629478217  1.0000
  F   F12       1.0  0.6998730444879727  0.25000002635056257  0.25000002923792414  1.0000
  F   F13       1.0  0.091757790504829  0.18847518913809577  0.19966891397149314  1.0000
  F   F14       1.0  0.09175407914963073  0.3115255864909657  0.3003312629408015  1.0000
  F   F15       1.0  0.09175653535906751  0.30033135790538507  0.18847513090748444  1.0000
  F   F16       1.0  0.09175533429531414  0.19966941772362654  0.3115255121594345  1.0000
  F   F17       1.0  0.908244332161381  0.8115238977108489  0.8003313782141177  1.0000
  F   F18       1.0  0.9082456098943299  0.6884748988229531  0.699667630781022  1.0000
  F   F19       1.0  0.9082449789020475  0.6996672627890702  0.8115237628143603  1.0000
  F   F20       1.0  0.9082443547481703  0.8003315337448594  0.6884752461808363  1.0000
  F   F21       1.0  0.98452772290279  0.24999950009917174  0.24999906920913878  1.0000
  F   F22       1.0  0.015472574546997502  0.7500000529050727  0.7499998245127204  1.0000
  F   F23       1.0  0.19982152705240713  0.25000153038638456  0.2500010102418814  1.0000
  F   F24       1.0  0.800178770396741  0.7499989549272003  0.7499997480983822  1.0000
