data_image0
_chemical_formula_structural       La2H34C20O16
_chemical_formula_sum              "La2 H34 C20 O16"
_cell_length_a       6.976793176410136
_cell_length_b       8.968555624329474
_cell_length_c       12.214835433252054
_cell_angle_alpha    111.86026239506644
_cell_angle_beta     92.61393347909886
_cell_angle_gamma    103.07955282441259

_space_group_name_H-M_alt    "P 1"
_space_group_IT_number       1

loop_
  _space_group_symop_operation_xyz
  'x, y, z'

loop_
  _atom_site_type_symbol
  _atom_site_label
  _atom_site_symmetry_multiplicity
  _atom_site_fract_x
  _atom_site_fract_y
  _atom_site_fract_z
  _atom_site_occupancy
  La  La1       1.0  0.2337069082270844  0.9275247402961995  0.5841408068380003  1.0000
  La  La2       1.0  0.7663302938189319  0.0725137594808487  0.4158623898543609  1.0000
  H   H1        1.0  0.20479042489773747  0.8945891857950343  0.9520851455897839  1.0000
  H   H2        1.0  0.795171195446784  0.10538734354440747  0.04791178193114828  1.0000
  H   H3        1.0  0.06585727040145882  0.6433191885148092  0.9867971961546684  1.0000
  H   H4        1.0  0.9341447458953526  0.3566570971197365  0.01320370360657819  1.0000
  H   H5        1.0  0.9161584958928088  0.6439674943078374  0.8659881843236261  1.0000
  H   H6        1.0  0.0837999360696031  0.3559972324258638  0.13403014346881997  1.0000
  H   H7        1.0  0.07567294488978858  0.45164847552114656  0.7208365135236929  1.0000
  H   H8        1.0  0.9243073681294477  0.5483335488068376  0.27917367673860827  1.0000
  H   H9        1.0  0.9760255312962514  0.3624680889093952  0.819734712071124  1.0000
  H   H10       1.0  0.023994107533667434  0.6375159545916846  0.18027675029082965  1.0000
  H   H11       1.0  0.30801238353685517  0.44395797700013157  0.9362952068933407  1.0000
  H   H12       1.0  0.6920134171945166  0.5560507065033136  0.06371384878512737  1.0000
  H   H13       1.0  0.46760038886604616  0.5839963366946821  0.7541414818713006  1.0000
  H   H14       1.0  0.5323583947881971  0.41600391997609176  0.2458460781660036  1.0000
  H   H15       1.0  0.6090455151975007  0.5825521569350586  0.8778338667695491  1.0000
  H   H16       1.0  0.39094513339571085  0.41745769014332273  0.12214371530969707  1.0000
  H   H17       1.0  0.5476641214180374  0.861158255301646  0.9182218496758663  1.0000
  H   H18       1.0  0.452303509498698  0.1388500619198112  0.08176881735034405  1.0000
  H   H19       1.0  0.44824991747369586  0.7755735210085605  0.01797424685889126  1.0000
  H   H20       1.0  0.5517394723680553  0.22442081218885326  0.9820156061692484  1.0000
  H   H21       1.0  0.7006525722243494  0.1400455549248818  0.8336662454403906  1.0000
  H   H22       1.0  0.2993708019034358  0.8599455268509928  0.16632502968595728  1.0000
  H   H23       1.0  0.9329544945632835  0.0809069486557874  0.8297623409459828  1.0000
  H   H24       1.0  0.0670508405087133  0.9190656756316998  0.17022701212993493  1.0000
  H   H25       1.0  0.6954043336690958  0.9292844353691551  0.7869267563812554  1.0000
  H   H26       1.0  0.30459376752821754  0.0707115542375263  0.21305305111502543  1.0000
  H   H27       1.0  0.43457630354794213  0.6784725783543238  0.39112899205922236  1.0000
  H   H28       1.0  0.565454815018157  0.3215486415276416  0.6088801876895359  1.0000
  H   H29       1.0  0.20926243393430613  0.574144244890924  0.3778741601951977  1.0000
  H   H30       1.0  0.7907235295196177  0.42593785085255587  0.6221043333244578  1.0000
  H   H31       1.0  0.8770352594558022  0.6692273916468423  0.5563750607350568  1.0000
  H   H32       1.0  0.1230707462363654  0.3308292578044886  0.4436456731052799  1.0000
  H   H33       1.0  0.8078731001656793  0.6896356216586952  0.43620516557334793  1.0000
  H   H34       1.0  0.19215280451510353  0.31038044553288563  0.5638082920540552  1.0000
  C   C1        1.0  0.20391507117036406  0.7880837315529803  0.7674649392863342  1.0000
  C   C2        1.0  0.79604535598493  0.211886650267914  0.23253198556479043  1.0000
  C   C3        1.0  0.22582081725832376  0.7760364271309115  0.8889436846664223  1.0000
  C   C4        1.0  0.7741460935551104  0.22394532564146633  0.11105144170391407  1.0000
  C   C5        1.0  0.06236641094626796  0.6329073543657914  0.8939518461359479  1.0000
  C   C6        1.0  0.9376101410564672  0.3670716441976367  0.10604683137871253  1.0000
  C   C7        1.0  0.09141036919727702  0.46445791819473214  0.8141848747910171  1.0000
  C   C8        1.0  0.9085816376895223  0.5355260510456433  0.1858170398221261  1.0000
  C   C9        1.0  0.2990313393851097  0.4463924833249564  0.8466881951746071  1.0000
  C   C10       1.0  0.700972747963135  0.5536083632700154  0.1533200267193776  1.0000
  C   C11       1.0  0.4639071425774475  0.5920895068545136  0.8460299988630379  1.0000
  C   C12       1.0  0.5360746205568533  0.40791022625634804  0.15395867506688884  1.0000
  C   C13       1.0  0.4315136054201217  0.7601919925812765  0.9240899556976739  1.0000
  C   C14       1.0  0.5684685597303627  0.23980912095072426  0.07590400245273088  1.0000
  C   C15       1.0  0.32001138117625066  0.2796995546011019  0.7614461939243853  1.0000
  C   C16       1.0  0.6799979821344025  0.7202971962260848  0.2385741515897449  1.0000
  C   C17       1.0  0.7734858858077658  0.03208550161291158  0.6598920334708251  1.0000
  C   C18       1.0  0.22653761504353295  0.9679285692889934  0.3400987434743924  1.0000
  C   C19       1.0  0.7801884346066005  0.04794551052449952  0.786302753130762  1.0000
  C   C20       1.0  0.2198249473714284  0.9520469922008774  0.2136813377828304  1.0000
  O   O1        1.0  0.3580584028944146  0.8079658294272037  0.7164378182243282  1.0000
  O   O2        1.0  0.6419101888977751  0.19205996885111892  0.28357056998866165  1.0000
  O   O3        1.0  0.034221041782608076  0.7861141367211887  0.721636686075591  1.0000
  O   O4        1.0  0.9657002645036245  0.213782547634402  0.27834747541560734  1.0000
  O   O5        1.0  0.9197917236770651  0.677915671708732  0.4833136306557647  1.0000
  O   O6        1.0  0.08025540568151972  0.32209320562571986  0.5166827755220565  1.0000
  O   O7        1.0  0.3151819229980005  0.6670352299318267  0.4320644244938519  1.0000
  O   O8        1.0  0.6848395270129829  0.3329814312134971  0.5679392788897031  1.0000
  O   O9        1.0  0.6077670436719984  0.005514879071100189  0.5975350298844475  1.0000
  O   O10       1.0  0.39225216578225286  0.9945135028715553  0.4024610705585656  1.0000
  O   O11       1.0  0.9327343444247733  0.048357136521055104  0.612418899245668  1.0000
  O   O12       1.0  0.06728094276895287  0.9516577558436765  0.38758258476014606  1.0000
  O   O13       1.0  0.34229206667293977  0.2577242651158683  0.6516590425011086  1.0000
  O   O14       1.0  0.657728553968589  0.7422855755152185  0.34836414127269677  1.0000
  O   O15       1.0  0.30815996661884537  0.1608270197678152  0.794888549671583  1.0000
  O   O16       1.0  0.6918454123541836  0.8391654899396175  0.20512077790655778  1.0000
