data_image0
_chemical_formula_structural       Ag2H16C24S2N4O8F6
_chemical_formula_sum              "Ag2 H16 C24 S2 N4 O8 F6"
_cell_length_a       8.992687850703515
_cell_length_b       9.162785578583524
_cell_length_c       10.106280774045194
_cell_angle_alpha    89.78739616612324
_cell_angle_beta     72.13506070685307
_cell_angle_gamma    64.60026873986482

_space_group_name_H-M_alt    "P 1"
_space_group_IT_number       1

loop_
  _space_group_symop_operation_xyz
  'x, y, z'

loop_
  _atom_site_type_symbol
  _atom_site_label
  _atom_site_symmetry_multiplicity
  _atom_site_fract_x
  _atom_site_fract_y
  _atom_site_fract_z
  _atom_site_occupancy
  Ag  Ag1       1.0  0.40455173496145136  0.44587430148401797  0.28897128240609493  1.0000
  Ag  Ag2       1.0  0.5954479539328545  0.5541254601584598  0.7110290283255691  1.0000
  H   H1        1.0  0.14095233816521371  0.36354934104422637  0.49741861668048404  1.0000
  H   H2        1.0  0.8590473404835776  0.6364504138715574  0.502580707467736  1.0000
  H   H3        1.0  0.0944999192667453  0.1261180002016431  0.5853228683272816  1.0000
  H   H4        1.0  0.9054997831552781  0.8738842180836741  0.41467938693553197  1.0000
  H   H5        1.0  0.3311283664931395  0.8416670493581363  0.47860831157536404  1.0000
  H   H6        1.0  0.6688713531377175  0.15833273246441584  0.5213949589066473  1.0000
  H   H7        1.0  0.5994398848858108  0.8107073092175837  0.283668182942165  1.0000
  H   H8        1.0  0.4005609928961745  0.18929246561904017  0.7163337706012882  1.0000
  H   H9        1.0  0.3678325480830366  0.39153402781895613  0.8832152258467972  1.0000
  H   H10       1.0  0.6321688866423826  0.6084645051132328  0.11678361708663225  1.0000
  H   H11       1.0  0.37561432738652917  0.21371237717893618  0.07161840329507639  1.0000
  H   H12       1.0  0.6243894408499744  0.7862837053186167  0.928378820980434  1.0000
  H   H13       1.0  0.9091383692283658  0.12765574984450717  0.9960916805202938  1.0000
  H   H14       1.0  0.09086250855362012  0.8723440249921096  0.003910273023151897  1.0000
  H   H15       1.0  0.8772364071562964  0.31108697018478887  0.8157071820270261  1.0000
  H   H16       1.0  0.12276562181350667  0.6889152408553443  0.18429342594212267  1.0000
  C   C1        1.0  0.23755336584662962  0.23898364051886734  0.4505996755524464  1.0000
  C   C2        1.0  0.7624451648965477  0.7610161281095527  0.5494019521177834  1.0000
  C   C3        1.0  0.21342048167149127  0.10577058871494667  0.5002428640481611  1.0000
  C   C4        1.0  0.7865803756194651  0.8942291726682896  0.4997571163283963  1.0000
  C   C5        1.0  0.3435943558718221  0.9484629588928399  0.44027282540626084  1.0000
  C   C6        1.0  0.6564029757381603  0.05153678981474739  0.5597261728687357  1.0000
  C   C7        1.0  0.49219882164202006  0.9307641792287383  0.33123940877564456  1.0000
  C   C8        1.0  0.5077979325334994  0.06923679792988931  0.6687607269424802  1.0000
  C   C9        1.0  0.5037179186775306  0.0694798237740741  0.28244628620636547  1.0000
  C   C10       1.0  0.4962811997456243  0.9305187231299994  0.7175551906041804  1.0000
  C   C11       1.0  0.6610882813642576  0.0444208416682628  0.15926161993141358  1.0000
  C   C12       1.0  0.33890845560243593  0.9555825719531296  0.8407375005675135  1.0000
  C   C13       1.0  0.48438938008601445  0.3310523221327273  0.9124006634664993  1.0000
  C   C14       1.0  0.5156108895249575  0.6689486609748554  0.08759946776974198  1.0000
  C   C15       1.0  0.4896790790183943  0.23228605233508395  0.017608499099644313  1.0000
  C   C16       1.0  0.5103211873103746  0.7677124808563531  0.982390674188892  1.0000
  C   C17       1.0  0.6429611888525103  0.15793065186716146  0.051607404660089166  1.0000
  C   C18       1.0  0.3570408573261262  0.8420691227102066  0.94839421852825  1.0000
  C   C19       1.0  0.7864131119678461  0.1831620162633385  0.9753546168034075  1.0000
  C   C20       1.0  0.2135871850974739  0.8168365371081733  0.024647516235475595  1.0000
  C   C21       1.0  0.7693315580608057  0.2854755415606292  0.8736318425649755  1.0000
  C   C22       1.0  0.2306669624368568  0.7145242203410971  0.12636879852180263  1.0000
  C   C23       1.0  0.028985908813638248  0.6336773917111527  0.7887319418751274  1.0000
  C   C24       1.0  0.9710114191152355  0.36632725010203154  0.21126798571181374  1.0000
  S   S1        1.0  0.2298858496763573  0.6103789182284557  0.6447853704425482  1.0000
  S   S2        1.0  0.7701150076145995  0.38962084315478046  0.3552146099340091  1.0000
  N   N1        1.0  0.3785216384166573  0.22250809702873645  0.34262447948560754  1.0000
  N   N2        1.0  0.6214786311943143  0.7774928860788464  0.6573756517506336  1.0000
  N   N3        1.0  0.6204690891562592  0.3601435640569832  0.8428195656514531  1.0000
  N   N4        1.0  0.37952884366142564  0.6398574195690896  0.15718122629500186  1.0000
  O   O1        1.0  0.8025338020519257  0.9251693659749661  0.14214136247485948  1.0000
  O   O2        1.0  0.1974706018099397  0.07482307851555701  0.8578596859105119  1.0000
  O   O3        1.0  0.174282542358462  0.6347117975917839  0.5213088192040658  1.0000
  O   O4        1.0  0.8257188923669575  0.3652867353404118  0.4786900237293634  1.0000
  O   O5        1.0  0.2637148917728993  0.7395536571875494  0.6925130287189987  1.0000
  O   O6        1.0  0.7362847971214067  0.26044610445493527  0.3074872820126726  1.0000
  O   O7        1.0  0.358415493937379  0.4446592212160566  0.6442524145663099  1.0000
  O   O8        1.0  0.6415830265602835  0.5553405406856697  0.3557482265204683  1.0000
  F   F1        1.0  0.060486754921392105  0.6031606717063126  0.9114682947460789  1.0000
  F   F2        1.0  0.93950941157415  0.3968415271766687  0.08853199183172929  1.0000
  F   F3        1.0  0.8969577285827911  0.7874721043987947  0.8107561210275591  1.0000
  F   F4        1.0  0.1030442421961126  0.21253251619732783  0.1892395253885937  1.0000
  F   F5        1.0  0.9708414322457486  0.5274205723995209  0.7571141380549803  1.0000
  F   F6        1.0  0.029154139606497206  0.47258529139725874  0.24288627074675867  1.0000
