data_image0
_chemical_formula_structural       Co2H16C24N8O4
_chemical_formula_sum              "Co2 H16 C24 N8 O4"
_cell_length_a       4.583322587590042
_cell_length_b       10.852490052767548
_cell_length_c       11.09146599469706
_cell_angle_alpha    89.99921446784933
_cell_angle_beta     92.4341989197605
_cell_angle_gamma    90.00128254164466

_space_group_name_H-M_alt    "P 1"
_space_group_IT_number       1

loop_
  _space_group_symop_operation_xyz
  'x, y, z'

loop_
  _atom_site_type_symbol
  _atom_site_label
  _atom_site_symmetry_multiplicity
  _atom_site_fract_x
  _atom_site_fract_y
  _atom_site_fract_z
  _atom_site_occupancy
  Co  Co1       1.0  0.49999916878608985  0.5000004096290666  0.49999945479211066  1.0000
  Co  Co2       1.0  0.5000005375505907  6.948351229999834e-08  0.9999994984688105  1.0000
  H   H1        1.0  0.035481637713665706  0.11703757832984246  0.4241731640850476  1.0000
  H   H2        1.0  0.9645019997131001  0.617037976809911  0.07582692558631271  1.0000
  H   H3        1.0  0.964516674071753  0.8829623194742098  0.5758266465839913  1.0000
  H   H4        1.0  0.03549849571415109  0.3829619210051334  0.924172934044542  1.0000
  H   H5        1.0  0.7710093189882699  0.9779112388794147  0.2773459740942173  1.0000
  H   H6        1.0  0.2289868033254834  0.47790927651693943  0.2226468571076056  1.0000
  H   H7        1.0  0.22898683494208427  0.022089580367719495  0.722652886528188  1.0000
  H   H8        1.0  0.7710114826731811  0.5220896998330317  0.7773538546462365  1.0000
  H   H9        1.0  0.45908662316497834  0.2706088900332944  0.07225823673469021  1.0000
  H   H10       1.0  0.5409194382848028  0.7706044726891791  0.42774029886646064  1.0000
  H   H11       1.0  0.5409138980490268  0.7293919292358308  0.9277407218113543  1.0000
  H   H12       1.0  0.45908105712103253  0.22939450367834976  0.5722595607700856  1.0000
  H   H13       1.0  0.6940701316575327  0.4238743715140032  0.21605388319723332  1.0000
  H   H14       1.0  0.30591651562195216  0.9238723289264285  0.2839538858207079  1.0000
  H   H15       1.0  0.30593036379113403  0.5761264477485637  0.7839459764279301  1.0000
  H   H16       1.0  0.69408837283288  0.07612664746964981  0.7160451706603654  1.0000
  C   C1        1.0  0.03638859404514961  0.3712493602632847  0.4140562730747491  1.0000
  C   C2        1.0  0.9636023382951038  0.8712477620749153  0.08594598526874363  1.0000
  C   C3        1.0  0.9636097434841987  0.6287496160998173  0.5859426365208551  1.0000
  C   C4        1.0  0.036400366517902696  0.12875121431017078  0.9140530222504996  1.0000
  C   C5        1.0  0.9055790127084861  0.15545317731310598  0.34860710693526203  1.0000
  C   C6        1.0  0.09440851680493978  0.655454514603349  0.15139526044004734  1.0000
  C   C7        1.0  0.0944192990983552  0.8445476419384615  0.6513927037280853  1.0000
  C   C8        1.0  0.9055919528569657  0.34454538320512995  0.8486055002699261  1.0000
  C   C9        1.0  0.8797921041487768  0.2829593755503905  0.33308760286468714  1.0000
  C   C10       1.0  0.12019688200363991  0.7829589163916847  0.16691669602452922  1.0000
  C   C11       1.0  0.12020399825089359  0.7170414436836194  0.6669130599159561  1.0000
  C   C12       1.0  0.8798036134450271  0.217041902870875  0.833083163600634  1.0000
  C   C13       1.0  0.7594051896181212  0.0776837548283353  0.26651087101148363  1.0000
  C   C14       1.0  0.24058984912029757  0.5776826750345663  0.2334854931222311  1.0000
  C   C15       1.0  0.24059314793264258  0.9223161429822824  0.733488038578429  1.0000
  C   C16       1.0  0.7594106205416082  0.4223172227739197  0.7665152675877425  1.0000
  C   C17       1.0  0.5830354089948527  0.24106366247556818  0.15330865211319636  1.0000
  C   C18       1.0  0.4169649375468012  0.7410591139205988  0.3466892494132382  1.0000
  C   C19       1.0  0.41696071917015587  0.7589371567650003  0.8466911095883278  1.0000
  C   C20       1.0  0.5830355321151046  0.258940783887887  0.6533115112967354  1.0000
  C   C21       1.0  0.7162768834453317  0.32537716221705176  0.23201587935055568  1.0000
  C   C22       1.0  0.2837161807307779  0.8253732738362913  0.2679906478366477  1.0000
  C   C23       1.0  0.2837214283615026  0.674623657034516  0.7679839313127846  1.0000
  C   C24       1.0  0.7162865240822285  0.17462570254879486  0.7320083596825954  1.0000
  N   N1        1.0  0.5992107908209049  0.11830746761813767  0.17003813327299616  1.0000
  N   N2        1.0  0.4007905293775025  0.6183085184507746  0.3299569259291745  1.0000
  N   N3        1.0  0.4007875467298589  0.8816924301924799  0.8299607763169167  1.0000
  N   N4        1.0  0.5992099145190651  0.38169137935114605  0.6700447358599109  1.0000
  N   N5        1.0  0.8986131149929335  0.46183451417742555  0.46737559791642996  1.0000
  N   N6        1.0  0.1013864469866448  0.9618348544640797  0.03262383731996012  1.0000
  N   N7        1.0  0.10138740619965599  0.5381653836441841  0.5326233606353059  1.0000
  N   N8        1.0  0.8986162578477774  0.03816504336852939  0.9673751701935989  1.0000
  O   O1        1.0  0.3192336095348338  0.3599390729417636  0.42344322133480744  1.0000
  O   O2        1.0  0.6807589807178758  0.8599383557828089  0.07655922566383573  1.0000
  O   O3        1.0  0.6807647022505847  0.6400608248622887  0.5765565893342244  1.0000
  O   O4        1.0  0.31924372409513063  0.14006062060227714  0.9234397818554075  1.0000
