data_image0
_chemical_formula_structural       Zn6H12C20O20
_chemical_formula_sum              "Zn6 H12 C20 O20"
_cell_length_a       5.164682672503291
_cell_length_b       9.544285192130136
_cell_length_c       14.230630802010495
_cell_angle_alpha    94.10390075914157
_cell_angle_beta     100.4813579670448
_cell_angle_gamma    105.72768632306696

_space_group_name_H-M_alt    "P 1"
_space_group_IT_number       1

loop_
  _space_group_symop_operation_xyz
  'x, y, z'

loop_
  _atom_site_type_symbol
  _atom_site_label
  _atom_site_symmetry_multiplicity
  _atom_site_fract_x
  _atom_site_fract_y
  _atom_site_fract_z
  _atom_site_occupancy
  Zn  Zn1       1.0  0.022900798095136534  0.7505547905748313  0.7495317735904762  1.0000
  Zn  Zn2       1.0  0.9771057695652557  0.24944384598406086  0.2504769547276524  1.0000
  Zn  Zn3       1.0  0.33406635951439506  0.16328024073452949  0.7965435002581315  1.0000
  Zn  Zn4       1.0  0.8756863251632578  0.3380127411698765  0.7041393773154352  1.0000
  Zn  Zn5       1.0  0.6659461462765748  0.8367172239525897  0.20345790748068984  1.0000
  Zn  Zn6       1.0  0.1243262125465776  0.6619912710187917  0.2958590353460763  1.0000
  H   H1        1.0  0.8345950022467078  0.6318716463978686  0.8850025472593828  1.0000
  H   H2        1.0  0.8173094460323538  0.8698101201869545  0.6142721614415904  1.0000
  H   H3        1.0  0.16535813292637863  0.3680686330808881  0.11498352869521257  1.0000
  H   H4        1.0  0.18271815727644028  0.13022145404728747  0.38574045882340596  1.0000
  H   H5        1.0  0.5734060187860236  0.6781183385568352  0.8369161044782485  1.0000
  H   H6        1.0  0.5579811559605828  0.8228144841770583  0.6622588075677384  1.0000
  H   H7        1.0  0.4265938763962181  0.32187800410209616  0.16308304577592733  1.0000
  H   H8        1.0  0.442035233997494  0.1771917921017874  0.33774636891946835  1.0000
  H   H9        1.0  0.6410341178300173  0.7744748214037144  0.012140992527861301  1.0000
  H   H10       1.0  0.35412048649776995  0.7251946130574891  0.4870127166563804  1.0000
  H   H11       1.0  0.35896681897900606  0.22551825868311673  0.9878607106043231  1.0000
  H   H12       1.0  0.6458755789015881  0.27481815949087707  0.512984866474916  1.0000
  C   C1        1.0  0.7245272005377924  0.964580261061492  0.9394362668373545  1.0000
  C   C2        1.0  0.3206634411020346  0.5358153835725189  0.5604409296705768  1.0000
  C   C3        1.0  0.27546972069747966  0.03541609114677159  0.060563844525866294  1.0000
  C   C4        1.0  0.6793283203513737  0.46418309648497996  0.43955302389674955  1.0000
  C   C5        1.0  0.9393220536220709  0.09999743608125299  0.9349449609172921  1.0000
  C   C6        1.0  0.4048197839410861  0.40057241644734615  0.5654052762574722  1.0000
  C   C7        1.0  0.06068518996062956  0.9000043992363866  0.06505507094738759  1.0000
  C   C8        1.0  0.5951714680090773  0.5994403666988076  0.4345933967576059  1.0000
  C   C9        1.0  0.7994356398791781  0.875094040335689  0.008509690504780586  1.0000
  C   C10       1.0  0.4155954290765179  0.6247091099823976  0.49104372818234043  1.0000
  C   C11       1.0  0.20056685115342507  0.12490451214939916  0.9914910411086878  1.0000
  C   C12       1.0  0.5843939833714202  0.3753036742121905  0.508955073607474  1.0000
  C   C13       1.0  0.473751357500461  0.9007278351301476  0.8716869716669108  1.0000
  C   C14       1.0  0.20145753614062295  0.5999709139844569  0.6279314327372774  1.0000
  C   C15       1.0  0.5262541268509153  0.09926636372620827  0.1283168004893014  1.0000
  C   C16       1.0  0.7985340010881856  0.40003639571498434  0.372068083021773  1.0000
  C   C17       1.0  0.8968401719871792  0.21602416065952204  0.8795442710961225  1.0000
  C   C18       1.0  0.3021633104523288  0.28495902845569526  0.6211419506654962  1.0000
  C   C19       1.0  0.10316605894897884  0.7839710962983374  0.12045581283288698  1.0000
  C   C20       1.0  0.697839039410276  0.7150504549694502  0.37885555956616906  1.0000
  O   O1        1.0  0.34465214510356634  0.7599542781063418  0.8655231446546523  1.0000
  O   O2        1.0  0.21860456513263674  0.7406387538781869  0.6335647144829153  1.0000
  O   O3        1.0  0.6553554863391042  0.24004649060890407  0.1344797431029363  1.0000
  O   O4        1.0  0.7814067484080525  0.2593850507991745  0.36643911077623403  1.0000
  O   O5        1.0  0.3512700640382178  0.9664985500318505  0.8055417995252724  1.0000
  O   O6        1.0  0.07992458159132092  0.5346152965627481  0.6943141443628703  1.0000
  O   O7        1.0  0.648733161032105  0.033490168973798994  0.19446224059009154  1.0000
  O   O8        1.0  0.920043141596352  0.46537339555177926  0.30568786356565875  1.0000
  O   O9        1.0  0.7282967801437575  0.6392112804776529  0.8224113346913028  1.0000
  O   O10       1.0  0.7663809183537325  0.8618703527567033  0.6768266387870198  1.0000
  O   O11       1.0  0.27168456598931806  0.36077181277368436  0.1775792885161778  1.0000
  O   O12       1.0  0.23363413215187018  0.1381337679599994  0.32318213880731145  1.0000
  O   O13       1.0  0.6978114057814221  0.2717145687804247  0.8785300279948627  1.0000
  O   O14       1.0  0.04841856410516951  0.22923605835478614  0.6223144844156039  1.0000
  O   O15       1.0  0.3022059453776009  0.7282894328104702  0.12146729478287449  1.0000
  O   O16       1.0  0.95158638145287  0.7707689852709335  0.37767781210466467  1.0000
  O   O17       1.0  0.07603045501108578  0.27114279732941055  0.8246567986942279  1.0000
  O   O18       1.0  0.481386429116334  0.23020701310273478  0.6761534917231627  1.0000
  O   O19       1.0  0.9239655560040416  0.7288447337378016  0.1753385828115626  1.0000
  O   O20       1.0  0.5185928147012432  0.7698002486233618  0.32384161421790475  1.0000
