data_image0
_chemical_formula_structural       Zn2H30C36N2O8F4
_chemical_formula_sum              "Zn2 H30 C36 N2 O8 F4"
_cell_length_a       8.980169683797506
_cell_length_b       14.682480730887043
_cell_length_c       16.145210498619065
_cell_angle_alpha    88.47234896209004
_cell_angle_beta     90.14891117106022
_cell_angle_gamma    81.49687717591347

_space_group_name_H-M_alt    "P 1"
_space_group_IT_number       1

loop_
  _space_group_symop_operation_xyz
  'x, y, z'

loop_
  _atom_site_type_symbol
  _atom_site_label
  _atom_site_symmetry_multiplicity
  _atom_site_fract_x
  _atom_site_fract_y
  _atom_site_fract_z
  _atom_site_occupancy
  Zn  Zn1       1.0  0.510450784292779  0.40317564144774565  0.5033304060746531  1.0000
  Zn  Zn2       1.0  0.489570770076071  0.5968553314578102  0.4966639662394812  1.0000
  H   H1        1.0  0.5655200152843849  0.21591522020396073  0.9909237011519352  1.0000
  H   H2        1.0  0.623130563866731  0.6511764343219825  0.13409874226574203  1.0000
  H   H3        1.0  0.1986479343961775  0.8315428256704396  0.5143202481652409  1.0000
  H   H4        1.0  0.09593818482612446  0.9448238827893933  0.5071094420704441  1.0000
  H   H5        1.0  0.06120196176583182  0.8598181181847838  0.4355492391684663  1.0000
  H   H6        1.0  0.21274154668866888  0.9642999472171074  0.3636864919339473  1.0000
  H   H7        1.0  0.3239860354521653  0.8562709140816341  0.3797190300528754  1.0000
  H   H8        1.0  0.9041824853469296  0.05510124892936121  0.4930709240843925  1.0000
  H   H9        1.0  0.8013988914898464  0.1683268775712393  0.4856799379787091  1.0000
  H   H10       1.0  0.9387200264910336  0.1402517649408353  0.5645065397599041  1.0000
  H   H11       1.0  0.6760210723571519  0.14380601794417205  0.6203360659072957  1.0000
  H   H12       1.0  0.36643838245270643  0.2416799093967726  0.9911277151783225  1.0000
  H   H13       1.0  0.7871817575175232  0.03576987376018081  0.636421939880293  1.0000
  H   H14       1.0  0.38769890389964  0.1849537509162361  0.3280547726612681  1.0000
  H   H15       1.0  0.3109953809702973  0.08822922458418964  0.2920430797675095  1.0000
  H   H16       1.0  0.19380221928290822  0.19638061859315314  0.3017369488197873  1.0000
  H   H17       1.0  0.1455692451002975  0.09326154332202215  0.4206658830301039  1.0000
  H   H18       1.0  0.226785444686783  0.18704278185646228  0.45552972431730154  1.0000
  H   H19       1.0  0.6889303808402615  0.9117667578673194  0.7080254268530128  1.0000
  H   H20       1.0  0.6123575009994437  0.8150042484980775  0.6719876330518275  1.0000
  H   H21       1.0  0.8062345919219427  0.8036660959667263  0.6983148316643409  1.0000
  H   H22       1.0  0.7732159621451162  0.8130117441097512  0.544501502202003  1.0000
  H   H23       1.0  0.45971258481399985  0.18625334200245905  0.9053000714868915  1.0000
  H   H24       1.0  0.8544062237124025  0.9068130000679206  0.5794078164846326  1.0000
  H   H25       1.0  0.3767441402093752  0.3487951131065402  0.8658895381595215  1.0000
  H   H26       1.0  0.5717592541023606  0.32287513568302745  0.8643878811526875  1.0000
  H   H27       1.0  0.6333915470811179  0.7582834142360612  0.008851985128870902  1.0000
  H   H28       1.0  0.43430011687144104  0.7840156254588848  0.009061372109982802  1.0000
  H   H29       1.0  0.5400923825904441  0.8137119345815339  0.09468455082842551  1.0000
  H   H30       1.0  0.42812426201155057  0.677065291354751  0.1356094773005196  1.0000
  C   C1        1.0  0.49795634566124414  0.49812781828148905  0.3387424551325822  1.0000
  C   C2        1.0  0.7921225171627528  0.4697489316168275  0.4999112611608113  1.0000
  C   C3        1.0  0.040106590435996715  0.5357247555689285  0.5004546502317737  1.0000
  C   C4        1.0  0.9599133490214271  0.4642719255805403  0.49952839655918524  1.0000
  C   C5        1.0  0.4877893304137546  0.415104546869685  0.9573565044483415  1.0000
  C   C6        1.0  0.5121321474926149  0.5848400369793226  0.04264390970097051  1.0000
  C   C7        1.0  0.5004138881977412  0.49909639147286833  0.9136186074794209  1.0000
  C   C8        1.0  0.49951426826059736  0.5008482040320389  0.08638180869780851  1.0000
  C   C9        1.0  0.5120514428862039  0.5800130700919512  0.956818366416833  1.0000
  C   C10       1.0  0.4878372374137144  0.419933541691151  0.043180771901028  1.0000
  C   C11       1.0  0.5013981638979815  0.5021803581461272  0.8262100689765006  1.0000
  C   C12       1.0  0.5020573617653596  0.5018989262503056  0.6612575442742213  1.0000
  C   C13       1.0  0.4985392871996055  0.4977717721451925  0.17379458865005404  1.0000
  C   C14       1.0  0.4979896754032681  0.49748396396670114  0.24925910380274272  1.0000
  C   C15       1.0  0.5019887418870966  0.5025096930766965  0.7507375961003362  1.0000
  C   C16       1.0  0.37499520094827693  0.05816740487936301  0.4608215763480104  1.0000
  C   C17       1.0  0.6249475331200574  0.9418687172315077  0.5392848205969258  1.0000
  C   C18       1.0  0.4754229388483325  0.33097427937521934  0.9071341414351153  1.0000
  C   C19       1.0  0.46630534781083105  0.23887112323063772  0.9517940428747949  1.0000
  C   C20       1.0  0.5244485759036339  0.6689876144184909  0.09285426299744869  1.0000
  C   C21       1.0  0.5335224480481672  0.7610873371808753  0.048188197456518415  1.0000
  C   C22       1.0  0.2679638893924335  0.9169240187341856  0.4119629790495267  1.0000
  C   C23       1.0  0.49130556323944324  0.09257444204528302  0.5039703765952055  1.0000
  C   C24       1.0  0.1491050732033585  0.886640886112389  0.4709072296515657  1.0000
  C   C25       1.0  0.7319996637562768  0.08312215127792652  0.5881178978538061  1.0000
  C   C26       1.0  0.850898730289103  0.11332331010145684  0.5291771999514481  1.0000
  C   C27       1.0  0.2499558901567198  0.12391113934890544  0.41966366866544996  1.0000
  C   C28       1.0  0.2880213922974519  0.14968108694068863  0.3300481742753973  1.0000
  C   C29       1.0  0.750043760884296  0.8761284149654573  0.5804024393623594  1.0000
  C   C30       1.0  0.7119867651747713  0.8503283104370284  0.6700077968335876  1.0000
  C   C31       1.0  0.5086317220335277  0.9074657611135066  0.49613906286438697  1.0000
  C   C32       1.0  0.6152404217830708  0.037797580594499905  0.5439520344961579  1.0000
  C   C33       1.0  0.38473796776906966  0.9622425105051566  0.45612211224732846  1.0000
  C   C34       1.0  0.48656982726281234  0.1894703548849322  0.506251886639717  1.0000
  C   C35       1.0  0.5134054945672659  0.8105774888019684  0.4938097700563162  1.0000
  C   C36       1.0  0.20789755425361986  0.530242810473297  0.5000799022565587  1.0000
  N   N1        1.0  0.5114909604491589  0.7317742741802961  0.4922753843025518  1.0000
  N   N2        1.0  0.4885202877699939  0.2682539749575455  0.5077636189773216  1.0000
  O   O1        1.0  0.512163532882397  0.419917450495234  0.3762818471827103  1.0000
  O   O2        1.0  0.48786900898227287  0.5801141775394713  0.623716236817124  1.0000
  O   O3        1.0  0.483911999045553  0.5771642775239557  0.37109027028318314  1.0000
  O   O4        1.0  0.5161005159298213  0.42286729782676974  0.6289090467276351  1.0000
  O   O5        1.0  0.2834898196521536  0.45009784321784735  0.5024044992573805  1.0000
  O   O6        1.0  0.7165168109177248  0.5498987171802058  0.49758535849878893  1.0000
  O   O7        1.0  0.25822100577998  0.6066777740883041  0.4975241970743696  1.0000
  O   O8        1.0  0.7418079479961437  0.39331870114867934  0.5024743411046728  1.0000
  F   F1        1.0  0.9662899269798545  0.6229021377025249  0.5017119591323791  1.0000
  F   F2        1.0  0.033726721877641815  0.37708976686444373  0.4982674318710423  1.0000
  F   F3        1.0  0.4759874077912372  0.34345548319793556  0.09096001201948671  1.0000
  F   F4        1.0  0.5239503985083189  0.6564815662548614  0.9090392661910158  1.0000
