data_image0
_chemical_formula_structural       Cu2H28C32S2N12O8
_chemical_formula_sum              "Cu2 H28 C32 S2 N12 O8"
_cell_length_a       9.143157449604677
_cell_length_b       10.065127848650919
_cell_length_c       10.215130277428898
_cell_angle_alpha    85.64189673698989
_cell_angle_beta     83.71775161651175
_cell_angle_gamma    70.57780978143269

_space_group_name_H-M_alt    "P 1"
_space_group_IT_number       1

loop_
  _space_group_symop_operation_xyz
  'x, y, z'

loop_
  _atom_site_type_symbol
  _atom_site_label
  _atom_site_symmetry_multiplicity
  _atom_site_fract_x
  _atom_site_fract_y
  _atom_site_fract_z
  _atom_site_occupancy
  Cu  Cu1       1.0  0.8302099628305086  0.050614218425046396  0.5897472220444584  1.0000
  Cu  Cu2       1.0  0.16978694519028908  0.9493878714080705  0.41025490304529916  1.0000
  H   H1        1.0  0.8102284806996779  0.535672034062017  0.7804111834571258  1.0000
  H   H2        1.0  0.18976870139879057  0.4643258384064452  0.21958735005918584  1.0000
  H   H3        1.0  0.7984813603954066  0.7295920691602903  0.1475938247937236  1.0000
  H   H4        1.0  0.20152014502763646  0.2704089348135597  0.8524019498647064  1.0000
  H   H5        1.0  0.671130917981202  0.3536580278202876  0.1489133544653215  1.0000
  H   H6        1.0  0.3288711476038913  0.6463419300584119  0.8510883163388172  1.0000
  H   H7        1.0  0.8687831948747446  0.3120750431637801  0.7158032310189953  1.0000
  H   H8        1.0  0.13121188413556703  0.6879260038400825  0.2841992085499498  1.0000
  H   H9        1.0  0.5556094577362601  0.08757124734324856  0.8373538545647321  1.0000
  H   H10       1.0  0.44439199613393054  0.9124245086505379  0.16265118796189884  1.0000
  H   H11       1.0  0.5298619448892553  0.2788856362610018  0.02745325146335631  1.0000
  H   H12       1.0  0.470141070282992  0.7211059048892067  0.9725539165618501  1.0000
  H   H13       1.0  0.7558458193913185  0.7728190458426738  0.7005900439329482  1.0000
  H   H14       1.0  0.24416633699672027  0.2271734796270337  0.2994031814066247  1.0000
  H   H15       1.0  0.04576777152338727  0.9792029802461992  0.8260017469824065  1.0000
  H   H16       1.0  0.9542304464311189  0.02079595468529759  0.17400636158943433  1.0000
  H   H17       1.0  0.9922383201433577  0.7949206595581088  0.03125518167031065  1.0000
  H   H18       1.0  0.007753483901851218  0.20508040619140638  0.9687486395280446  1.0000
  H   H19       1.0  0.5917058633780029  0.6395106650088564  0.3359201821187838  1.0000
  H   H20       1.0  0.40829982117865166  0.360488218336279  0.6640791753112012  1.0000
  H   H21       1.0  0.7922850590315492  0.5702269524348155  0.35508922714756613  1.0000
  H   H22       1.0  0.20771989846277716  0.42977088229407917  0.6449103093560993  1.0000
  H   H23       1.0  0.8997196610278168  0.3202880847732885  0.4495729979698027  1.0000
  H   H24       1.0  0.10027739321979112  0.679710853175841  0.5504332951816906  1.0000
  H   H25       1.0  0.5103486711643016  0.1802660380907142  0.4550271109888797  1.0000
  H   H26       1.0  0.4896500084416361  0.819736020782912  0.5449610875089946  1.0000
  H   H27       1.0  0.43866075550348443  0.4510817461090398  0.3364221443760513  1.0000
  H   H28       1.0  0.5613437778497071  0.5489192280417257  0.6635644453495999  1.0000
  C   C1        1.0  0.7310806360330561  0.4375393999152736  0.9581852400812565  1.0000
  C   C2        1.0  0.26891887347921545  0.5624584665179241  0.0418169242757429  1.0000
  C   C3        1.0  0.7847528201560864  0.5388449999867008  0.887067933184106  1.0000
  C   C4        1.0  0.21524810443143141  0.46115180348692064  0.112932188609733  1.0000
  C   C5        1.0  0.8102235320888839  0.6421889625418515  0.9572378250470736  1.0000
  C   C6        1.0  0.18977469019900178  0.3578089013702623  0.04275862223789772  1.0000
  C   C7        1.0  0.7834851826348557  0.6451449887646277  0.09428891095254952  1.0000
  C   C8        1.0  0.21651600149105835  0.3548539135744306  0.9057080618606648  1.0000
  C   C9        1.0  0.7311685154217783  0.5417182526685095  0.16362575186210654  1.0000
  C   C10       1.0  0.26883197252116997  0.45827960243897786  0.836372375437712  1.0000
  C   C11       1.0  0.7066603204467798  0.4372053524570845  0.09550518790104688  1.0000
  C   C12       1.0  0.2933387833002926  0.5627935669946709  0.9044959573748487  1.0000
  C   C13       1.0  0.7762163961606775  0.2796578805553054  0.7719771721001295  1.0000
  C   C14       1.0  0.2237809712140191  0.7203400002212348  0.2280272138937107  1.0000
  C   C15       1.0  0.6175934094130043  0.1620117752679917  0.8413814730459279  1.0000
  C   C16       1.0  0.3824035521964931  0.8379871585270989  0.15862189386680106  1.0000
  C   C17       1.0  0.6041769399695697  0.2554027162682501  0.9363947557729162  1.0000
  C   C18       1.0  0.3958227157695049  0.7445919982809599  0.06361157664581191  1.0000
  C   C19       1.0  0.828985552730359  0.8016652742340042  0.7624140394919651  1.0000
  C   C20       1.0  0.17102072720110334  0.19833149338126788  0.23758052820978295  1.0000
  C   C21       1.0  0.9767216083361632  0.9087987101151996  0.8330221608919857  1.0000
  C   C22       1.0  0.023276080335662617  0.0912012722961322  0.1669810269470631  1.0000
  C   C23       1.0  0.9543189767316492  0.8168177312369024  0.9328590577962929  1.0000
  C   C24       1.0  0.04567864201138859  0.1831790895976866  0.06714147021404672  1.0000
  C   C25       1.0  0.697217505582259  0.5495738763331699  0.31161806205440007  1.0000
  C   C26       1.0  0.3027873901533269  0.4504239556263627  0.6883795236234249  1.0000
  C   C27       1.0  0.7868975037195441  0.3152936426049848  0.430872781981968  1.0000
  C   C28       1.0  0.21309977918708972  0.6847073928249046  0.5691293867759769  1.0000
  C   C29       1.0  0.5819843975447015  0.2476626180833605  0.43258400356270954  1.0000
  C   C30       1.0  0.41801751364354084  0.7523373328719316  0.5674127901768173  1.0000
  C   C31       1.0  0.5446600331390385  0.38124441498946027  0.3746417281605829  1.0000
  C   C32       1.0  0.455344646440949  0.6187534072773174  0.625349029626797  1.0000
  S   S1        1.0  0.8385381119531347  0.8334274869926759  0.3929992569806586  1.0000
  S   S2        1.0  0.16146202561412798  0.166580898940218  0.6070009536595862  1.0000
  N   N1        1.0  0.7045720148290401  0.33003466575749474  0.8913949938968599  1.0000
  N   N2        1.0  0.2954242505974988  0.6699632208060395  0.10860952750248032  1.0000
  N   N3        1.0  0.7250779491982086  0.1782039259698251  0.7406348822994886  1.0000
  N   N4        1.0  0.27492048924527523  0.8217939476350435  0.2593683928759276  1.0000
  N   N5        1.0  0.8620218738189893  0.748014630497515  0.8869778754933861  1.0000
  N   N6        1.0  0.13797748129643136  0.2519832290122821  0.11301941179900872  1.0000
  N   N7        1.0  0.8965307895780942  0.8986969171246885  0.7287340248882188  1.0000
  N   N8        1.0  0.1034737930304033  0.10130197200743399  0.2712654679472664  1.0000
  N   N9        1.0  0.6751132587916404  0.42233570006659693  0.37436441718372043  1.0000
  N   N10       1.0  0.3248872064419857  0.5776653124636013  0.6256334437060502  1.0000
  N   N11       1.0  0.7329074732130892  0.2089921895323457  0.4667837965302652  1.0000
  N   N12       1.0  0.2670904977064553  0.7910067343217192  0.5332165087382067  1.0000
  O   O1        1.0  0.9323291945932867  0.9179739381599888  0.44564201829226857  1.0000
  O   O2        1.0  0.06767140232786771  0.082030238716321  0.554360453252059  1.0000
  O   O3        1.0  0.6966801619561241  0.8547094017793451  0.4838006755531765  1.0000
  O   O4        1.0  0.30330404969858193  0.14532115189888367  0.5161888363515743  1.0000
  O   O5        1.0  0.9415069305325617  0.6830317072756387  0.3951636482254416  1.0000
  O   O6        1.0  0.05847785989515597  0.3169746760411484  0.6048523366145347  1.0000
  O   O7        1.0  0.8061556887737851  0.8865141014230601  0.2566321910477997  1.0000
  O   O8        1.0  0.19386461152669915  0.11348680694133151  0.7433632325430042  1.0000
