data_image0
_chemical_formula_structural       Zn2H20C23N2O9
_chemical_formula_sum              "Zn2 H20 C23 N2 O9"
_cell_length_a       8.9750617251068
_cell_length_b       9.736267379692272
_cell_length_c       11.080153639484909
_cell_angle_alpha    89.7004649563383
_cell_angle_beta     91.22413198439621
_cell_angle_gamma    98.90039727976246

_space_group_name_H-M_alt    "P 1"
_space_group_IT_number       1

loop_
  _space_group_symop_operation_xyz
  'x, y, z'

loop_
  _atom_site_type_symbol
  _atom_site_label
  _atom_site_symmetry_multiplicity
  _atom_site_fract_x
  _atom_site_fract_y
  _atom_site_fract_z
  _atom_site_occupancy
  Zn  Zn1       1.0  0.49056535577165056  0.6308264916266352  0.5035153212826202  1.0000
  Zn  Zn2       1.0  0.47246334357341624  0.3445959111605177  0.5040942460670763  1.0000
  H   H1        1.0  0.958020457580886  0.3231158566782568  0.4850378482432233  1.0000
  H   H2        1.0  0.6588091675476305  0.8886211491521078  0.3773834629414026  1.0000
  H   H3        1.0  0.17011262117504342  0.8046607912201084  0.6272093397418458  1.0000
  H   H4        1.0  0.307843644585077  0.8254075016429638  0.7468003203436169  1.0000
  H   H5        1.0  0.1627291457098323  0.0648842466575559  0.6287529274492982  1.0000
  H   H6        1.0  0.30221609124698284  0.0856586785369942  0.7475227473126226  1.0000
  H   H7        1.0  0.0031364755664284832  0.6408681976586408  0.519406178485319  1.0000
  H   H8        1.0  0.3732930144210371  0.2789772892421497  0.8955769788086627  1.0000
  H   H9        1.0  0.38531702875167895  0.2834001326255802  0.1200863630301399  1.0000
  H   H10       1.0  0.5570537616450223  0.8387921456427133  0.12272394328368821  1.0000
  H   H11       1.0  0.730824049160823  0.7747967099486742  0.1010559398118644  1.0000
  H   H12       1.0  0.5059207370840114  0.8345494624413379  0.900816938587475  1.0000
  H   H13       1.0  0.6512035989986485  0.1469241032629043  0.3779093572074927  1.0000
  H   H14       1.0  0.8560741221198214  0.6977760230936596  0.7697754876359681  1.0000
  H   H15       1.0  0.7966895499624796  0.6322060366077266  0.9135437909626134  1.0000
  H   H16       1.0  0.023765777576798503  0.894652545709931  0.8620018275191442  1.0000
  H   H17       1.0  0.9461580984330806  0.856777210547719  0.0051730096839719  1.0000
  H   H18       1.0  0.04926010053287653  0.630450512926224  0.0130374295184126  1.0000
  H   H19       1.0  0.19700318657512386  0.771118664424492  0.991341572716138  1.0000
  H   H20       1.0  0.126727536852087  0.6624702348075998  0.8681695090171359  1.0000
  C   C1        1.0  0.4640727630899947  0.4908127311275409  0.7390460044687259  1.0000
  C   C2        1.0  0.4241014393367024  0.37744581188876236  0.0687431260772939  1.0000
  C   C3        1.0  0.4829692728327899  0.4986481236992119  0.1335898150263759  1.0000
  C   C4        1.0  0.53267565453109  0.6162499771914938  0.0643900295814532  1.0000
  C   C5        1.0  0.6120006989571891  0.7650536426404528  0.0713834904296178  1.0000
  C   C6        1.0  0.590117080937766  0.7687045369513257  0.9280749067944285  1.0000
  C   C7        1.0  0.3916327929758694  0.0436684393024436  0.5704791983840636  1.0000
  C   C8        1.0  0.5763946573551307  0.07581217172523222  0.4340104280108363  1.0000
  C   C9        1.0  0.580987740680861  0.9332191887003278  0.43412530297551644  1.0000
  C   C10       1.0  0.3962973396680454  0.9011522893984817  0.5706881776237864  1.0000
  C   C11       1.0  0.2727091841665299  0.8698146499343126  0.6616709081854353  1.0000
  C   C12       1.0  0.1859369086448623  0.44591609836882634  0.4899146723729544  1.0000
  C   C13       1.0  0.2680090584072019  0.0325973630555936  0.661972801810947  1.0000
  C   C14       1.0  0.4920656462796913  0.4972081755060813  0.2681484214592729  1.0000
  C   C15       1.0  0.7758664307838642  0.5172359538337545  0.5155340802146995  1.0000
  C   C16       1.0  0.018629441432125332  0.4288048045560018  0.49326846166290744  1.0000
  C   C17       1.0  0.9429944040845867  0.535117946443215  0.5105360447009062  1.0000
  C   C18       1.0  0.5220238582314279  0.6147748104586767  0.9384942461598699  1.0000
  C   C19       1.0  0.4665130968122142  0.494618508563164  0.8736667362258288  1.0000
  C   C20       1.0  0.4171852876807804  0.37512739442992443  0.9428688657419214  1.0000
  C   C21       1.0  0.8341145162387917  0.7286940829570555  0.8626173605155287  1.0000
  C   C22       1.0  0.9768535238688189  0.8083485997559877  0.9215409958192424  1.0000
  C   C23       1.0  0.09395580339582213  0.7133825297240364  0.9497246691391936  1.0000
  N   N1        1.0  0.47953427019923106  0.1340456792269578  0.5030985505207469  1.0000
  N   N2        1.0  0.4892308734262159  0.8422110776610482  0.5034464915387106  1.0000
  O   O1        1.0  0.46159330680334426  0.6066010607059624  0.6855719863909114  1.0000
  O   O2        1.0  0.46613904679114176  0.3738191402296281  0.6886354727270715  1.0000
  O   O3        1.0  0.25938070411482533  0.5682776674632564  0.48081927461514345  1.0000
  O   O4        1.0  0.24213920930604618  0.333329586414969  0.498000330588205  1.0000
  O   O5        1.0  0.5170258218677545  0.615143584708143  0.3207509469218905  1.0000
  O   O6        1.0  0.4732544092527532  0.3789009928639474  0.3199866066059514  1.0000
  O   O7        1.0  0.7188224911930163  0.6285073443191109  0.5275151810303029  1.0000
  O   O8        1.0  0.7029478349662809  0.394445381533636  0.5065694343302596  1.0000
  O   O9        1.0  0.7148100069799596  0.8116597861611012  0.8541288870677021  1.0000
