data_image0
_chemical_formula_structural       Zn8H96C152N24O26
_chemical_formula_sum              "Zn8 H96 C152 N24 O26"
_cell_length_a       15.03337350755322
_cell_length_b       17.541880348480355
_cell_length_c       19.891003833100882
_cell_angle_alpha    115.11304842984927
_cell_angle_beta     92.59104546536066
_cell_angle_gamma    105.27478836233324

_space_group_name_H-M_alt    "P 1"
_space_group_IT_number       1

loop_
  _space_group_symop_operation_xyz
  'x, y, z'

loop_
  _atom_site_type_symbol
  _atom_site_label
  _atom_site_symmetry_multiplicity
  _atom_site_fract_x
  _atom_site_fract_y
  _atom_site_fract_z
  _atom_site_occupancy
  Zn  Zn1       1.0  0.7354919008139191  0.6414440142752298  0.3431404368186151  1.0000
  Zn  Zn2       1.0  0.7961212148251209  0.7006730879461854  0.9457838154514137  1.0000
  Zn  Zn3       1.0  0.860283905013553  0.7776560945684778  0.6787842086896418  1.0000
  Zn  Zn4       1.0  0.6683240722839942  0.5639251402291735  0.6096201053073216  1.0000
  Zn  Zn5       1.0  0.26450736397605107  0.3585548103731141  0.6568581722752995  1.0000
  Zn  Zn6       1.0  0.20387538797376692  0.2993277358683031  0.05421595403891635  1.0000
  Zn  Zn7       1.0  0.1397148918046511  0.2223473572513868  0.3212130889455338  1.0000
  Zn  Zn8       1.0  0.3316780723932736  0.4360723451811381  0.3903770929558164  1.0000
  H   H1        1.0  0.5178366432024576  0.5974386782154893  0.5882715234101142  1.0000
  H   H2        1.0  0.5135890729486049  0.5708110709631882  0.6572238457739134  1.0000
  H   H3        1.0  0.6878066905626028  0.20196268842448004  0.1703719676896611  1.0000
  H   H4        1.0  0.6066015726082058  0.6757743483215535  0.9907920883823139  1.0000
  H   H5        1.0  0.5297515514012403  0.5997581293805822  0.27722450533784126  1.0000
  H   H6        1.0  0.4191763568542441  0.6855055092761403  0.28905775744475176  1.0000
  H   H7        1.0  0.34216521277620876  0.12170247181246908  0.4202777005479703  1.0000
  H   H8        1.0  0.6231761065556187  0.1210768664268258  0.4711517933067314  1.0000
  H   H9        1.0  0.5738895105422585  0.9883651359460615  0.4042200342745729  1.0000
  H   H10       1.0  0.40265002500437674  0.28490311394368467  0.4625353648127871  1.0000
  H   H11       1.0  0.6449657087544266  0.066197060339924  0.1098733883948668  1.0000
  H   H12       1.0  0.7757670235909444  0.0628919389650449  0.7367634055328622  1.0000
  H   H13       1.0  0.6791362888436866  0.5605876353511263  0.7727793579349651  1.0000
  H   H14       1.0  0.3310911422202238  0.7631573699521967  0.3491641792907814  1.0000
  H   H15       1.0  0.879803645535645  0.9675709901352292  0.7077931943500531  1.0000
  H   H16       1.0  0.7305556810423113  0.3654001485974873  0.2363004719949018  1.0000
  H   H17       1.0  0.46811587945920513  0.9013876453436538  0.7105112114850841  1.0000
  H   H18       1.0  0.818435954765178  0.8908637579241798  0.005410274425564288  1.0000
  H   H19       1.0  0.6989206365982953  0.14404066798647364  0.8113909195313412  1.0000
  H   H20       1.0  0.8958751658882919  0.8015582091462149  0.8499541199414509  1.0000
  H   H21       1.0  0.6467098905301968  0.9214909805423162  0.43607937932321766  1.0000
  H   H22       1.0  0.6743533031042405  0.7641464892835188  0.7188189866104722  1.0000
  H   H23       1.0  0.5634588722936867  0.8491432382514714  0.7478122722760148  1.0000
  H   H24       1.0  0.6415032646153946  0.5308643267149192  0.4361659131877572  1.0000
  H   H25       1.0  0.8607714787185118  0.7712384113367603  0.513904023464768  1.0000
  H   H26       1.0  0.4077906416779342  0.8290579924372421  0.02222999934569697  1.0000
  H   H27       1.0  0.3972476165516242  0.18387908499603617  0.13017346035635313  1.0000
  H   H28       1.0  0.7358547138288785  0.27006052259813623  0.8252344823331584  1.0000
  H   H29       1.0  0.4998957087570234  0.7651088797619962  0.03689880797969632  1.0000
  H   H30       1.0  0.4489303233180024  0.2584394222957229  0.8447303239385278  1.0000
  H   H31       1.0  0.09329464688639173  0.724135241214121  0.9865453662330239  1.0000
  H   H32       1.0  0.6812036284254364  0.2834101927956496  0.5201219903615241  1.0000
  H   H33       1.0  0.4409529122454927  0.3487565741050105  0.19838133664642044  1.0000
  H   H34       1.0  0.2586779754144288  0.046436796832587404  0.09029944598044183  1.0000
  H   H35       1.0  0.7494481178154259  0.8259744400882241  0.41305151766658094  1.0000
  H   H36       1.0  0.7795360074990757  0.4326268490032206  0.8720312027347177  1.0000
  H   H37       1.0  0.4928475560484955  0.4220447416881044  0.8859482192156066  1.0000
  H   H38       1.0  0.26676143778830413  0.7793061916229649  0.013763927147827789  1.0000
  H   H39       1.0  0.7186365435256192  0.9889413562371203  0.04678856252876063  1.0000
  H   H40       1.0  0.08353351137252214  0.9887806269338881  0.05471715423725939  1.0000
  H   H41       1.0  0.15680584815567752  0.8029354094999162  0.7157525290516347  1.0000
  H   H42       1.0  0.3307314882310378  0.866077841536523  0.7436504981359775  1.0000
  H   H43       1.0  0.308957808298196  0.0887771948392668  0.7117804464981887  1.0000
  H   H44       1.0  0.13400702940595013  0.019829510158182  0.6762759958604861  1.0000
  H   H45       1.0  0.02442158491939479  0.9315489658949829  0.443044866256372  1.0000
  H   H46       1.0  0.19636568358843928  0.9862216999615327  0.4451750601482729  1.0000
  H   H47       1.0  0.18882634095965767  0.7194630169476001  0.2969656735931991  1.0000
  H   H48       1.0  0.017219156833938508  0.6669959892688978  0.292915195534519  1.0000
  H   H49       1.0  0.48217082207666107  0.4025647723592343  0.4117295713925273  1.0000
  H   H50       1.0  0.4864203732595768  0.42919634603726553  0.3427772788429024  1.0000
  H   H51       1.0  0.31219302030778817  0.7980394600777246  0.8296293995390586  1.0000
  H   H52       1.0  0.39339968749196425  0.32422646417602136  0.009207826480597637  1.0000
  H   H53       1.0  0.4702479312849377  0.40024135519588105  0.7227738533217192  1.0000
  H   H54       1.0  0.5808227119676277  0.3144926780406365  0.7109451331575799  1.0000
  H   H55       1.0  0.657839173193672  0.8782956969215548  0.5797243484259412  1.0000
  H   H56       1.0  0.3768238769945  0.8789180248729522  0.5288539234226732  1.0000
  H   H57       1.0  0.42611068748698955  0.011632405156610997  0.5957861716026898  1.0000
  H   H58       1.0  0.597357440237971  0.7150923630091057  0.5374602522397112  1.0000
  H   H59       1.0  0.355032237730981  0.9338057670633545  0.8901301855182524  1.0000
  H   H60       1.0  0.22423223436487658  0.9371108654328423  0.2632366827254699  1.0000
  H   H61       1.0  0.3208614122985979  0.4394065302563916  0.22721394981978452  1.0000
  H   H62       1.0  0.6689034933546623  0.2368395015594089  0.6508380798066682  1.0000
  H   H63       1.0  0.12019980997273191  0.0324364385909703  0.292207239474898  1.0000
  H   H64       1.0  0.26943915053744394  0.6346053338676254  0.7637029833442596  1.0000
  H   H65       1.0  0.5318858308145239  0.09861250843366778  0.2894894784639561  1.0000
  H   H66       1.0  0.1815626186747892  0.1091390283184239  0.9945862658754409  1.0000
  H   H67       1.0  0.3010815170148362  0.8559628068201447  0.18861202466823804  1.0000
  H   H68       1.0  0.10411523653762342  0.19844197493961246  0.1500467208441449  1.0000
  H   H69       1.0  0.35328850406381224  0.07850919261679219  0.5639232223253005  1.0000
  H   H70       1.0  0.325652845898496  0.23585498594811577  0.2811833426119676  1.0000
  H   H71       1.0  0.4365506102237476  0.15086222276904238  0.25219415936969375  1.0000
  H   H72       1.0  0.35849867038869826  0.4691325072409852  0.563833047162511  1.0000
  H   H73       1.0  0.13922222500598747  0.2287637319437721  0.48609362966652725  1.0000
  H   H74       1.0  0.5922112590818644  0.17094279302251186  0.9777654013264013  1.0000
  H   H75       1.0  0.6027516564613862  0.8161197481260131  0.8698266603903377  1.0000
  H   H76       1.0  0.26414438856122047  0.7299357059141371  0.17477321141381444  1.0000
  H   H77       1.0  0.5001073143760095  0.23489523923319663  0.9631013871317508  1.0000
  H   H78       1.0  0.5510663123730595  0.7415614354136082  0.1552754921629144  1.0000
  H   H79       1.0  0.9067066008608365  0.2758615717619222  0.01344954227565857  1.0000
  H   H80       1.0  0.3188029947071556  0.7165846682142601  0.4798814146217013  1.0000
  H   H81       1.0  0.5590405824818918  0.6512429250217693  0.8016168351055343  1.0000
  H   H82       1.0  0.7413203705173927  0.9535613327849289  0.9096928422849401  1.0000
  H   H83       1.0  0.2505507139231327  0.1740230675284451  0.5869480961802938  1.0000
  H   H84       1.0  0.22046418985411972  0.5673726847987905  0.12797624660900905  1.0000
  H   H85       1.0  0.5071515169032778  0.577957436676499  0.114058166088185  1.0000
  H   H86       1.0  0.7332407034718857  0.220693283662122  0.9862340106975154  1.0000
  H   H87       1.0  0.2813629014991933  0.011064069717960496  0.9532069760348423  1.0000
  H   H88       1.0  0.91646726975506  0.011216827814990898  0.945273955879749  1.0000
  H   H89       1.0  0.8431976388192128  0.1970600912759295  0.2842454828170915  1.0000
  H   H90       1.0  0.66926842202453  0.13392295442247362  0.2563458480021056  1.0000
  H   H91       1.0  0.6910392755382303  0.9112289822478344  0.28822987508878123  1.0000
  H   H92       1.0  0.8659865002785593  0.9801720183873426  0.3237299698533106  1.0000
  H   H93       1.0  0.9755763492130642  0.06844986198676388  0.5569537013025113  1.0000
  H   H94       1.0  0.8036336161586493  0.013779154105556303  0.5548313429074767  1.0000
  H   H95       1.0  0.8111702776092571  0.28053981651365223  0.7030383626691546  1.0000
  H   H96       1.0  0.9827776604440859  0.33300748434848515  0.7070850631036765  1.0000
  C   C1        1.0  0.5227981624699396  0.8125229990759094  0.36340727961673014  1.0000
  C   C2        1.0  0.6326534351940154  0.23292094239271682  0.1759645097044711  1.0000
  C   C3        1.0  0.629176690192338  0.7462241919046732  0.006155212022647904  1.0000
  C   C4        1.0  0.5529148476237111  0.6715058767181289  0.31082839324426464  1.0000
  C   C5        1.0  0.5458852939520257  0.2945784641083478  0.4938963092081039  1.0000
  C   C6        1.0  0.4778696108357679  0.10949823259517188  0.441248513937218  1.0000
  C   C7        1.0  0.4912325301688796  0.7202885811220411  0.3189402993801806  1.0000
  C   C8        1.0  0.612179369549203  0.464760001268445  0.27274397124783434  1.0000
  C   C9        1.0  0.4166785556727391  0.1575895863615955  0.4404614104786902  1.0000
  C   C10       1.0  0.5738750740924133  0.15596246679009343  0.468788234743336  1.0000
  C   C11       1.0  0.4990019410452291  0.9592773820756051  0.3991084076994227  1.0000
  C   C12       1.0  0.5927265101464416  0.016140775982599095  0.7595077336889277  1.0000
  C   C13       1.0  0.45041497259078533  0.2485088114494971  0.46473570341341036  1.0000
  C   C14       1.0  0.5697806790443067  0.0331007291188996  0.0968339946192387  1.0000
  C   C15       1.0  0.7506904725786114  0.9979224337033656  0.7351890925323303  1.0000
  C   C16       1.0  0.5347987634737308  0.9404445879776872  0.06465794960420354  1.0000
  C   C17       1.0  0.4401672055246594  0.012465127407843102  0.414685754529856  1.0000
  C   C18       1.0  0.7324056022580477  0.6168657477549288  0.7739999076236259  1.0000
  C   C19       1.0  0.3634079894498541  0.8331707309959312  0.36530435396078076  1.0000
  C   C20       1.0  0.8096628652867893  0.9457123681111383  0.7189848359017432  1.0000
  C   C21       1.0  0.6573986292596319  0.3250905585116827  0.2133942351592992  1.0000
  C   C22       1.0  0.5591329465682335  0.1551802220526923  0.8014216634908921  1.0000
  C   C23       1.0  0.275311470171907  0.9175699367635346  0.05249282399118013  1.0000
  C   C24       1.0  0.46084824704036004  0.868202288009371  0.37520240669224586  1.0000
  C   C25       1.0  0.5886339517077843  0.252857432128593  0.8324399179115503  1.0000
  C   C26       1.0  0.5881094660672233  0.3670848996226895  0.22412483022392138  1.0000
  C   C27       1.0  0.5071838675394176  0.0824848121680262  0.11200809557504242  1.0000
  C   C28       1.0  0.49581316010177545  0.9734208157316642  0.7390578174624238  1.0000
  C   C29       1.0  0.5816059739640808  0.39253584373988554  0.5221773568077596  1.0000
  C   C30       1.0  0.5381554775192682  0.18075582823064457  0.14713781103888832  1.0000
  C   C31       1.0  0.7470647236115155  0.8668203953232094  0.013593989666219289  1.0000
  C   C32       1.0  0.6242719462532805  0.10870321384945207  0.7921366715434816  1.0000
  C   C33       1.0  0.8419625370547905  0.7397482749567601  0.8129303466170726  1.0000
  C   C34       1.0  0.6174665646713181  0.8509586216178419  0.3981494796678787  1.0000
  C   C35       1.0  0.6952090745583845  0.8311981539095754  0.724284834743557  1.0000
  C   C36       1.0  0.6326123978385498  0.8792304392681984  0.7398960718690972  1.0000
  C   C37       1.0  0.6986175684555392  0.5904525537915435  0.4715476246343188  1.0000
  C   C38       1.0  0.8097815276683918  0.7127478315796981  0.5114335093748538  1.0000
  C   C39       1.0  0.4375637382196942  0.9008617043284488  0.049305041882732194  1.0000
  C   C40       1.0  0.4700130617844423  0.2242406346819337  0.15437044865830526  1.0000
  C   C41       1.0  0.6593888790109543  0.9648871446368331  0.745562869317922  1.0000
  C   C42       1.0  0.6821088841363122  0.3026152073134938  0.8402989164146818  1.0000
  C   C43       1.0  0.37882583353420773  0.954311462657934  0.06678657670005349  1.0000
  C   C44       1.0  0.434587602993311  0.024209756766346395  0.7513947650509893  1.0000
  C   C45       1.0  0.07807245372784169  0.8528495395105367  0.018028949241838167  1.0000
  C   C46       1.0  0.30828669371830836  0.8899082721523328  0.3807130713175865  1.0000
  C   C47       1.0  0.5693136004107019  0.7967359527464808  0.030333718890894028  1.0000
  C   C48       1.0  0.5212498661035383  0.2974534873853044  0.8513157043890516  1.0000
  C   C49       1.0  0.13026390082453077  0.7946712320851574  0.008363874653994616  1.0000
  C   C50       1.0  0.607210432007122  0.24750572630164666  0.4963850704202031  1.0000
  C   C51       1.0  0.49429185424886407  0.31584596183895286  0.19281771865436068  1.0000
  C   C52       1.0  0.22169142231750527  0.9757955579649433  0.06638132886811818  1.0000
  C   C53       1.0  0.6753503867407176  0.7986613041608734  0.3872330803608435  1.0000
  C   C54       1.0  0.7071069725642545  0.3937705729640867  0.8654406307457522  1.0000
  C   C55       1.0  0.545721640043233  0.3880890380279993  0.8742895913312623  1.0000
  C   C56       1.0  0.22789249098423167  0.826461747031793  0.02417353062631367  1.0000
  C   C57       1.0  0.6905606952965897  0.9207406261446137  0.03738628336081711  1.0000
  C   C58       1.0  0.9092121122799031  0.7641201123045606  0.3728466589844572  1.0000
  C   C59       1.0  0.5984651977696985  0.8860073248060872  0.04499534862090118  1.0000
  C   C60       1.0  0.6387726337543214  0.4369331132970302  0.8810789129606676  1.0000
  C   C61       1.0  0.12461340042775494  0.9439778492125511  0.047872461069907425  1.0000
  C   C62       1.0  0.6642579439661062  0.5332088704027595  0.8997166570730856  1.0000
  C   C63       1.0  0.9739268074745481  0.8192662872084  0.9926458085282662  1.0000
  C   C64       1.0  0.13493326375819242  0.9079082405035167  0.6949438884290019  1.0000
  C   C65       1.0  0.19093545165060277  0.864673782968822  0.7135572077811361  1.0000
  C   C66       1.0  0.2881573835605735  0.9006007058949664  0.7294450202882246  1.0000
  C   C67       1.0  0.3316114768044542  0.9824182948985578  0.7301093928832502  1.0000
  C   C68       1.0  0.2750938913191519  0.0253339601877087  0.7111902557618424  1.0000
  C   C69       1.0  0.1780394283567617  0.9876437096346676  0.6923073622477888  1.0000
  C   C70       1.0  0.03023546959369136  0.870764118797368  0.6797199149475475  1.0000
  C   C71       1.0  0.061307076012397425  0.8860290858174479  0.4107706771386148  1.0000
  C   C72       1.0  0.15694557643596593  0.9162322764443189  0.4123341165899106  1.0000
  C   C73       1.0  0.20520837271826753  0.8567697038220883  0.37325609627746553  1.0000
  C   C74       1.0  0.15368627169972623  0.7667065630877373  0.3294726207037257  1.0000
  C   C75       1.0  0.05742707603533143  0.7366867521776042  0.3266849628574704  1.0000
  C   C76       1.0  0.01080916186928245  0.7957959193297341  0.36865466634561267  1.0000
  C   C77       1.0  0.47720046233646235  0.18747385991091645  0.6365946002015336  1.0000
  C   C78       1.0  0.3673469245590439  0.7670811875453724  0.8240338549862047  1.0000
  C   C79       1.0  0.3708236729777995  0.2537759481586335  0.9938424130858157  1.0000
  C   C80       1.0  0.44708355312839404  0.32849230939078217  0.6891739727062998  1.0000
  C   C81       1.0  0.4541219657470562  0.7054203524378477  0.5061045646329774  1.0000
  C   C82       1.0  0.5221323509024031  0.8905006223057655  0.5587567287221091  1.0000
  C   C83       1.0  0.5087623349423396  0.27970696891662783  0.6810624813534858  1.0000
  C   C84       1.0  0.3878185495260595  0.5352427978891328  0.7272545638226973  1.0000
  C   C85       1.0  0.5833280441796164  0.8424092374504468  0.5595404503634  1.0000
  C   C86       1.0  0.4261271281461418  0.8440350779361765  0.5312195450892432  1.0000
  C   C87       1.0  0.5009947076380713  0.040717508833971294  0.6008956935396486  1.0000
  C   C88       1.0  0.40727386057067594  0.9838613652537589  0.24049264653878302  1.0000
  C   C89       1.0  0.5495947223040644  0.7514893302280611  0.5352639922792973  1.0000
  C   C90       1.0  0.4302185987746724  0.9669001023516299  0.9031683773624337  1.0000
  C   C91       1.0  0.2493130007279731  0.0020810265715666995  0.26481187766523834  1.0000
  C   C92       1.0  0.4652002827439717  0.0595555694418763  0.9353421533905293  1.0000
  C   C93       1.0  0.5598336571572844  0.9875344047774702  0.5853217155813866  1.0000
  C   C94       1.0  0.2675929978792269  0.3831310858107669  0.2259974372363018  1.0000
  C   C95       1.0  0.636591099911236  0.1668234906941493  0.6346995768984273  1.0000
  C   C96       1.0  0.19033972753584294  0.0542904366769434  0.2810168678469225  1.0000
  C   C97       1.0  0.34259839836762057  0.6749115738607686  0.7866030179252947  1.0000
  C   C98       1.0  0.44086589271730503  0.8448192867370282  0.19858070547523  1.0000
  C   C99       1.0  0.7246884297956626  0.08242885519783978  0.9475002631433967  1.0000
  C   C100      1.0  0.5391497295594335  0.1317925968422315  0.6248012321975908  1.0000
  C   C101      1.0  0.41136513769007627  0.747144763183428  0.1675694906977938  1.0000
  C   C102      1.0  0.4118833414033034  0.632914578524236  0.7758692896864473  1.0000
  C   C103      1.0  0.49281385076177736  0.9175153513095038  0.8879924697689248  1.0000
  C   C104      1.0  0.5041878903252269  0.02657934531150369  0.2609438594876182  1.0000
  C   C105      1.0  0.41839972141126225  0.6074603064648371  0.4778194591606351  1.0000
  C   C106      1.0  0.4618448911328983  0.8192443174818036  0.8528608218380924  1.0000
  C   C107      1.0  0.25293495162569  0.133181716459589  0.9864008270671293  1.0000
  C   C108      1.0  0.37572709996441483  0.8912969435701112  0.20786343145125122  1.0000
  C   C109      1.0  0.15803584109313823  0.2602518812549377  0.1870692317258928  1.0000
  C   C110      1.0  0.3825318326637018  0.14904155436583716  0.601853625864891  1.0000
  C   C111      1.0  0.30479617819037236  0.16880065618845208  0.2757139612579635  1.0000
  C   C112      1.0  0.36738951388530683  0.1207703574898318  0.26010134434003623  1.0000
  C   C113      1.0  0.30138368683866906  0.4095462603575513  0.5284500389936113  1.0000
  C   C114      1.0  0.19021240285142235  0.2872529874033277  0.4885641615083999  1.0000
  C   C115      1.0  0.5624350791377353  0.09913778186471228  0.9506932960093124  1.0000
  C   C116      1.0  0.529985962505137  0.7757595001410705  0.8456256232623574  1.0000
  C   C117      1.0  0.3406139241609126  0.0351143189063237  0.2544358288771491  1.0000
  C   C118      1.0  0.3178913132168761  0.6973843264885249  0.15970853292905224  1.0000
  C   C119      1.0  0.6211718566807889  0.0456906652732485  0.9332101932677904  1.0000
  C   C120      1.0  0.5654110019499329  0.9757890751478371  0.24860483104393435  1.0000
  C   C121      1.0  0.9219303316090478  0.14714791886194692  0.9819637348304797  1.0000
  C   C122      1.0  0.6917141668986846  0.1100892645090639  0.6192926514429262  1.0000
  C   C123      1.0  0.43069054918869665  0.20326751721003697  0.9696692876112253  1.0000
  C   C124      1.0  0.47874921233026413  0.7025486966284333  0.1486916886832574  1.0000
  C   C125      1.0  0.8697371098393845  0.20532490119077806  0.9916277570992236  1.0000
  C   C126      1.0  0.392793971084906  0.7524904666804557  0.5036187583927969  1.0000
  C   C127      1.0  0.5057067171261451  0.6841548288797413  0.8071770742959146  1.0000
  C   C128      1.0  0.7783093560690659  0.024201893959364895  0.9336092773646314  1.0000
  C   C129      1.0  0.32464490526382417  0.20133754995966055  0.6127689313178097  1.0000
  C   C130      1.0  0.2928941244599912  0.6062296360967637  0.13456961223668876  1.0000
  C   C131      1.0  0.4542794371178475  0.6119131439602087  0.12571836792784546  1.0000
  C   C132      1.0  0.7721074199473962  0.1735370562278575  0.9758215720452984  1.0000
  C   C133      1.0  0.3094409834738627  0.07926348196112795  0.9626113507943117  1.0000
  C   C134      1.0  0.0907826925657744  0.23588334921551277  0.6271505140456526  1.0000
  C   C135      1.0  0.4015364947058232  0.1139967974225016  0.9550048049555216  1.0000
  C   C136      1.0  0.36122799458532745  0.563065742012739  0.11892578427936934  1.0000
  C   C137      1.0  0.8753860466252449  0.0560215986445058  0.9521193470942819  1.0000
  C   C138      1.0  0.3357440068080138  0.46678997319990156  0.10028657004919948  1.0000
  C   C139      1.0  0.0260744443658183  0.1807265431935292  0.007347116931740088  1.0000
  C   C140      1.0  0.865064228423755  0.09209125457218903  0.30505541569654343  1.0000
  C   C141      1.0  0.8090626928310914  0.1353237036679928  0.28643835422415265  1.0000
  C   C142      1.0  0.7118401092974338  0.0993967964814004  0.2705530403708494  1.0000
  C   C143      1.0  0.668387792791485  0.0175825280982664  0.2698914674456532  1.0000
  C   C144      1.0  0.7249033953195294  0.9746688744814094  0.288814305152286  1.0000
  C   C145      1.0  0.8219578582819127  0.012359125034443297  0.3076971986663395  1.0000
  C   C146      1.0  0.9697617594836886  0.12923865655579184  0.3202740643971396  1.0000
  C   C147      1.0  0.9386912939124913  0.1139710619205374  0.5892273895515673  1.0000
  C   C148      1.0  0.8430525947797989  0.08376723113752861  0.587667727724437  1.0000
  C   C149      1.0  0.7947918081888405  0.1432298130325051  0.6267483297607157  1.0000
  C   C150      1.0  0.8463101180089154  0.23329559914711234  0.670529650455947  1.0000
  C   C151      1.0  0.9425715159156669  0.2633180465363267  0.6733163480998172  1.0000
  C   C152      1.0  0.9891872086522611  0.2042062231331343  0.6313440776242488  1.0000
  N   N1        1.0  0.6439302549764463  0.7098760640969247  0.34424698887644223  1.0000
  N   N2        1.0  0.7262274854159615  0.6175053596377822  0.5447980141253909  1.0000
  N   N3        1.0  0.4662027739191786  0.1130670439692594  0.7813797031955617  1.0000
  N   N4        1.0  0.782476816586005  0.8632502045386589  0.713516554111365  1.0000
  N   N5        1.0  0.8177768247828041  0.7091768009051406  0.7387956594743913  1.0000
  N   N6        1.0  0.346811969878189  0.9779733894132859  0.4059152412533179  1.0000
  N   N7        1.0  0.414058006078264  0.0429266149784056  0.09694615764454541  1.0000
  N   N8        1.0  0.7473842607251129  0.6300490222923187  0.7137173798248213  1.0000
  N   N9        1.0  0.7978181164099923  0.6961887558947311  0.5703880707343671  1.0000
  N   N10       1.0  0.7166098395628069  0.7800954949652807  0.9967834208826362  1.0000
  N   N11       1.0  0.7490298344938181  0.6479768980710929  0.4484528211092851  1.0000
  N   N12       1.0  0.7900180842721558  0.6840716126242513  0.8372545078801467  1.0000
  N   N13       1.0  0.35606835203174825  0.29012476334116843  0.6557543545692042  1.0000
  N   N14       1.0  0.2737744379480134  0.3824934557191781  0.4552001741543137  1.0000
  N   N15       1.0  0.53379829843594  0.8869331396704607  0.21862600482855743  1.0000
  N   N16       1.0  0.2175288733440723  0.1367539136388629  0.28648473183864814  1.0000
  N   N17       1.0  0.1822255487547224  0.2908213557315733  0.26120330389142776  1.0000
  N   N18       1.0  0.6531877862005545  0.0220248188833452  0.5940917011905997  1.0000
  N   N19       1.0  0.5859414704498249  0.9570748566482619  0.9030524367129614  1.0000
  N   N20       1.0  0.25262076658045624  0.3699471267045382  0.28627891149179874  1.0000
  N   N21       1.0  0.20218024803286738  0.3038113861941127  0.4296089881873045  1.0000
  N   N22       1.0  0.2833907353454492  0.21990729207634976  0.003214189489426569  1.0000
  N   N23       1.0  0.25096476683677343  0.352023924944362  0.5515458783099945  1.0000
  N   N24       1.0  0.209973640588224  0.31592855975446105  0.1627448627876973  1.0000
  O   O1        1.0  0.6479178247361547  0.43694664428254987  0.5806705464548331  1.0000
  O   O2        1.0  0.6899618939532389  0.5142206322790769  0.2693323074492183  1.0000
  O   O3        1.0  0.5564572845824002  0.605959385727722  0.6351553197361567  1.0000
  O   O4        1.0  0.5564380808103877  0.49317008829539327  0.3160180153368159  1.0000
  O   O5        1.0  0.7485294407170429  0.5807250815301045  0.9369303316324675  1.0000
  O   O6        1.0  0.9300918622222909  0.7441142223357744  0.991008683652808  1.0000
  O   O7        1.0  0.5475448493913505  0.4299793015576796  0.49029597927965807  1.0000
  O   O8        1.0  0.8620425554699339  0.6834915633056865  0.3241005461777391  1.0000
  O   O9        1.0  0.9359443844847846  0.8640989709637024  0.9727981894486463  1.0000
  O   O10       1.0  0.6059276893994294  0.5604345675529315  0.8768493418052402  1.0000
  O   O11       1.0  0.8763300439315813  0.8151601398828417  0.4235617416517029  1.0000
  O   O12       1.0  0.9963336742132824  0.8117162822771674  0.7032203180425682  1.0000
  O   O13       1.0  0.979530553701068  0.8962344443790683  0.6474475769165622  1.0000
  O   O14       1.0  0.3520878624161412  0.5630494974484604  0.4193247578607853  1.0000
  O   O15       1.0  0.3100353693684426  0.4857781915702333  0.7306652315736386  1.0000
  O   O16       1.0  0.44355017589074913  0.39404206649852097  0.364843523831496  1.0000
  O   O17       1.0  0.4435598286897147  0.506836687787164  0.6839814950138818  1.0000
  O   O18       1.0  0.2514747068174046  0.4192763929024963  0.06307092751892177  1.0000
  O   O19       1.0  0.06991004330671302  0.2558805878505197  0.008983490504142789  1.0000
  O   O20       1.0  0.4524588609617837  0.570016864795427  0.5097027899232387  1.0000
  O   O21       1.0  0.1379542707071977  0.3165099260860629  0.6758999806467614  1.0000
  O   O22       1.0  0.0640528966351042  0.13589588443434045  0.02719988594682827  1.0000
  O   O23       1.0  0.3940735871100641  0.43955828827012766  0.12314811861309485  1.0000
  O   O24       1.0  0.12366296637795675  0.18484396946803372  0.5764320953359601  1.0000
  O   O25       1.0  0.0036642222210474754  0.18828051336126347  0.2967699516702282  1.0000
  O   O26       1.0  0.020468670686518895  0.10377031882332227  0.35254770819713604  1.0000
