data_image0
_chemical_formula_structural       Zn8H8C52Cl8O34
_chemical_formula_sum              "Zn8 H8 C52 Cl8 O34"
_cell_length_a       15.954792967536907
_cell_length_b       15.954275314634463
_cell_length_c       20.653963974117136
_cell_angle_alpha    67.36122594226259
_cell_angle_beta     67.36426639698304
_cell_angle_gamma    90.19817724293362

_space_group_name_H-M_alt    "P 1"
_space_group_IT_number       1

loop_
  _space_group_symop_operation_xyz
  'x, y, z'

loop_
  _atom_site_type_symbol
  _atom_site_label
  _atom_site_symmetry_multiplicity
  _atom_site_fract_x
  _atom_site_fract_y
  _atom_site_fract_z
  _atom_site_occupancy
  Zn  Zn1       1.0  0.7826016351830847  0.38344707902973607  0.43357219973610484  1.0000
  Zn  Zn2       1.0  0.217399671065536  0.6165529949905348  0.5664275907364599  1.0000
  Zn  Zn3       1.0  0.183000048801233  0.7837639720614858  0.4335891185331988  1.0000
  Zn  Zn4       1.0  0.8170004581188832  0.21623634698316618  0.5664111161909205  1.0000
  Zn  Zn5       1.0  0.7837571325123847  0.1830011161915053  0.4335927584285528  1.0000
  Zn  Zn6       1.0  0.21624393510130346  0.8170008217803828  0.5664065475761719  1.0000
  Zn  Zn7       1.0  0.3834375895165677  0.78260431763853  0.43357161903290414  1.0000
  Zn  Zn8       1.0  0.6165634773506736  0.2173966532755074  0.566428654778619  1.0000
  H   H1        1.0  0.8375853117133192  0.5287993644391951  0.871761446348657  1.0000
  H   H2        1.0  0.16241171695304496  0.47119894242275256  0.12823734381029092  1.0000
  H   H3        1.0  0.5284854289653681  0.8376117457216452  0.8717845130252686  1.0000
  H   H4        1.0  0.4715140770047555  0.16238585407948852  0.12821636966135233  1.0000
  H   H5        1.0  0.2906179767134772  0.5994679175105091  0.8717408289281751  1.0000
  H   H6        1.0  0.7093786925075847  0.40053125116316585  0.12825917014261282  1.0000
  H   H7        1.0  0.5997839288236976  0.29058724580470857  0.8717185199625421  1.0000
  H   H8        1.0  0.400217056485964  0.7094107959234819  0.12828123198706018  1.0000
  C   C1        1.0  0.645886655091324  0.14588185935917145  0.7081674945605912  1.0000
  C   C2        1.0  0.09120470750102774  0.5911659797379587  0.5000030959161778  1.0000
  C   C3        1.0  0.5061336131489894  0.13327479766293493  0.04009012740826992  1.0000
  C   C4        1.0  0.17337661135487534  0.5460530452353539  0.9598925820416755  1.0000
  C   C5        1.0  0.826618340264929  0.4539480289917962  0.04010757939489192  1.0000
  C   C6        1.0  0.546261803601503  0.173356194753481  0.959875582738576  1.0000
  C   C7        1.0  0.4537383820064278  0.8266416084701619  0.04012509736597287  1.0000
  C   C8        1.0  0.09082819555111854  0.909160823769234  0.5000024362122559  1.0000
  C   C9        1.0  0.9091706730197586  0.09083851379480717  0.4999925625876431  1.0000
  C   C10       1.0  0.591161940442845  0.09118826165050826  0.5000263390754043  1.0000
  C   C11       1.0  0.4088388870430108  0.9088136061572955  0.4999744180750839  1.0000
  C   C12       1.0  0.40918341652209017  0.590816474877933  0.5000049454259498  1.0000
  C   C13       1.0  0.5908131307689429  0.40918024106908757  0.4999981987347086  1.0000
  C   C14       1.0  0.9087956808480654  0.4088362383403421  0.4999959287672201  1.0000
  C   C15       1.0  0.3541072963249334  0.8541174626823108  0.29183234703167943  1.0000
  C   C16       1.0  0.5268354288041052  0.47316969012043597  0.49999728990753334  1.0000
  C   C17       1.0  0.47316711777589393  0.5268322062495798  0.5000013692635719  1.0000
  C   C18       1.0  0.026939646799789232  0.5269090546742562  0.500021175058244  1.0000
  C   C19       1.0  0.9730609794377968  0.47309033239458403  0.49997930189979917  1.0000
  C   C20       1.0  0.9731655147964065  0.02683871953242085  0.4999990153437467  1.0000
  C   C21       1.0  0.14588534654841104  0.6458856043300188  0.708168556313787  1.0000
  C   C22       1.0  0.026835113307292473  0.973163085181028  0.49999904209729373  1.0000
  C   C23       1.0  0.4730903539345164  0.9730679272304528  0.4999706658569424  1.0000
  C   C24       1.0  0.5269093540303161  0.026933120367495286  0.5000295292153254  1.0000
  C   C25       1.0  0.8541124810732369  0.3541119739786253  0.29183027349701274  1.0000
  C   C26       1.0  0.1549648137787613  0.6025280878708588  0.8355023681963447  1.0000
  C   C27       1.0  0.8450301378410358  0.3974729863562913  0.16449779324022276  1.0000
  C   C28       1.0  0.602642732633264  0.15493649363512688  0.8354968970898682  1.0000
  C   C29       1.0  0.3973568934007688  0.8450611412480458  0.16450326002387078  1.0000
  C   C30       1.0  0.009508393632167184  0.5619764301705958  0.8354790703618634  1.0000
  C   C31       1.0  0.9904888355360201  0.43802339037246457  0.16452096779632813  1.0000
  C   C32       1.0  0.5618951834430206  0.009526390748469261  0.8354876724776548  1.0000
  C   C33       1.0  0.4381070410783536  0.9904720227427006  0.16451239988068525  1.0000
  C   C34       1.0  0.10234424092769957  0.6023678713695801  0.7952796741408152  1.0000
  C   C35       1.0  0.8976528692962378  0.39763336467821375  0.20471963788006065  1.0000
  C   C36       1.0  0.6023839446148004  0.10233788030367201  0.7952793815527459  1.0000
  C   C37       1.0  0.397616801686702  0.8976615418472137  0.20472036983241548  1.0000
  C   C38       1.0  0.9643355032623049  0.5249816678090513  0.9170671563803482  1.0000
  C   C39       1.0  0.03566060601163907  0.4750168489952245  0.08293280360302903  1.0000
  C   C40       1.0  0.5248819126003355  0.9643358443532082  0.9170788190678325  1.0000
  C   C41       1.0  0.4751181540633524  0.035663374375168574  0.08292113489940081  1.0000
  C   C42       1.0  0.11857239114857519  0.5579067742668259  0.9170782498854066  1.0000
  C   C43       1.0  0.8814224411537523  0.4420952319361292  0.08292166931723709  1.0000
  C   C44       1.0  0.5580189056785655  0.11855193685055097  0.9170727633093848  1.0000
  C   C45       1.0  0.44198128030259204  0.8814463499020208  0.08292743289176496  1.0000
  C   C46       1.0  0.020612308968310216  0.5205985766325086  0.9587620467340516  1.0000
  C   C47       1.0  0.9793838822364336  0.47940335288654273  0.04123795120784731  1.0000
  C   C48       1.0  0.5206010339820609  0.020607035137686386  0.9587625663573011  1.0000
  C   C49       1.0  0.4793990326816271  0.979392183590683  0.04123738760993235  1.0000
  C   C50       1.0  0.8667119060296358  0.494078097554379  0.9598912381669394  1.0000
  C   C51       1.0  0.1332854435756872  0.5059222415996487  0.040107590514978114  1.0000
  C   C52       1.0  0.49386793248102373  0.8667243794635696  0.9599091797253367  1.0000
  Cl  Cl1       1.0  0.26834412390393686  0.66335010878489  0.7769358481594113  1.0000
  Cl  Cl2       1.0  0.7316513872897658  0.33665113378273054  0.22306483626795898  1.0000
  Cl  Cl3       1.0  0.6635827226893125  0.26827580784397037  0.7769290037952177  1.0000
  Cl  Cl4       1.0  0.3364183815645988  0.7317208183794932  0.22307147429170032  1.0000
  Cl  Cl5       1.0  0.9546864474580022  0.559666394611213  0.7769469338578291  1.0000
  Cl  Cl6       1.0  0.0453099823816743  0.4403336709562283  0.2230535485519169  1.0000
  Cl  Cl7       1.0  0.5594863755830701  0.954735304028503  0.7769564679535251  1.0000
  Cl  Cl8       1.0  0.4405158485650774  0.04526262593374505  0.22304408830821393  1.0000
  O   O1        1.0  0.7499801781319846  0.25002329447674043  0.5000000828823872  1.0000
  O   O2        1.0  0.2678379843321607  0.8516891869010551  0.3241986661467493  1.0000
  O   O3        1.0  0.14834865964674285  0.732156853914468  0.6758026920925037  1.0000
  O   O4        1.0  0.8516461734020382  0.2678461193463306  0.32419625930334206  1.0000
  O   O5        1.0  0.5919448994935053  0.1758130417980296  0.675845780751928  1.0000
  O   O6        1.0  0.40805640526222225  0.8241850981065542  0.3241559453342334  1.0000
  O   O7        1.0  0.17578541293265468  0.5919225911405022  0.6758438318612151  1.0000
  O   O8        1.0  0.8242120174837951  0.4080797101415286  0.3241564864894287  1.0000
  O   O9        1.0  0.7321649209466942  0.1483108805993895  0.6757997519193212  1.0000
  O   O10       1.0  0.2500208887352569  0.7499776764373041  0.5000001909291358  1.0000
  O   O11       1.0  0.8858084650394317  0.32799260548861053  0.5542871503669816  1.0000
  O   O12       1.0  0.11418896463057131  0.6720087287355769  0.4457141357904606  1.0000
  O   O13       1.0  0.137042340573835  0.9058794332183882  0.5390644788642833  1.0000
  O   O14       1.0  0.8629604061347679  0.09412349330382608  0.46093591220946456  1.0000
  O   O15       1.0  0.5598810969800141  0.1177498045120515  0.5543219183989053  1.0000
  O   O16       1.0  0.44011929286196483  0.8822543476819363  0.44567517067089585  1.0000
  O   O17       1.0  0.3239079940630346  0.5550144237091246  0.5389707189871517  1.0000
  O   O18       1.0  0.6760985106531622  0.4449891416428287  0.46102696636101126  1.0000
  O   O19       1.0  0.09410619335501012  0.8629472414106091  0.460941920596021  1.0000
  O   O20       1.0  0.905893595420956  0.13705576831534222  0.539059764144966  1.0000
  O   O21       1.0  0.8822337383584583  0.4401241174770122  0.44569273193143033  1.0000
  O   O22       1.0  0.11776928773075909  0.5598769521633217  0.5543039927549673  1.0000
  O   O23       1.0  0.4449746366845844  0.6760926536708283  0.4610440145051202  1.0000
  O   O24       1.0  0.5550292310379277  0.3239130271769427  0.5389550030332515  1.0000
  O   O25       1.0  0.6720098015865474  0.11416845568099637  0.4457360697140729  1.0000
  O   O26       1.0  0.3279915039156264  0.8858306512814309  0.5542646885652902  1.0000
  O   O27       1.0  0.805044062868703  0.5036761869094806  0.9281623339893132  1.0000
  O   O28       1.0  0.19495216684237704  0.4963228485057627  0.07183641651778323  1.0000
  O   O29       1.0  0.5033512890031987  0.805061392393981  0.9281834265730142  1.0000
  O   O30       1.0  0.4966475373291103  0.1949360039846439  0.07181765869567876  1.0000
  O   O31       1.0  0.26675956835674697  0.5682606552640053  0.9281463032800875  1.0000
  O   O32       1.0  0.7332357419619128  0.43173859009357335  0.07185361705143845  1.0000
  O   O33       1.0  0.5685959913651786  0.2667360202968681  0.9281219968298089  1.0000
  O   O34       1.0  0.43140419461597884  0.7332622664556964  0.07187819937134078  1.0000
