data_image0
_chemical_formula_structural       Cd4H32C16O24
_chemical_formula_sum              "Cd4 H32 C16 O24"
_cell_length_a       7.034469767420076
_cell_length_b       6.94847383905497
_cell_length_c       15.449103739066606
_cell_angle_alpha    89.9998929851208
_cell_angle_beta     89.99973273896433
_cell_angle_gamma    111.5378231347054

_space_group_name_H-M_alt    "P 1"
_space_group_IT_number       1

loop_
  _space_group_symop_operation_xyz
  'x, y, z'

loop_
  _atom_site_type_symbol
  _atom_site_label
  _atom_site_symmetry_multiplicity
  _atom_site_fract_x
  _atom_site_fract_y
  _atom_site_fract_z
  _atom_site_occupancy
  Cd  Cd1       1.0  0.5117280966027594  0.9154282550093741  0.7998201485253418  1.0000
  Cd  Cd2       1.0  0.0117378942401061  0.4154354452677607  0.7001776059726266  1.0000
  Cd  Cd3       1.0  0.48826676718697815  0.08456953514561862  0.20017934750367056  1.0000
  Cd  Cd4       1.0  0.9882688961833636  0.5845638640135745  0.2998231846167272  1.0000
  H   H1        1.0  0.7376325204475619  0.7030751552634201  0.6988665959226095  1.0000
  H   H2        1.0  0.2376316011725521  0.2030753506725347  0.8011354427246855  1.0000
  H   H3        1.0  0.26236802451153096  0.2969226208527687  0.3011348419607458  1.0000
  H   H4        1.0  0.7623675234865815  0.7969224289487401  0.19886664244688027  1.0000
  H   H5        1.0  0.500058897276986  0.5714962476219938  0.6846473154128956  1.0000
  H   H6        1.0  5.749497232440799e-05  0.07149942493808231  0.8153508214291988  1.0000
  H   H7        1.0  0.49994164769517363  0.42850152850212436  0.3153521806102403  1.0000
  H   H8        1.0  0.9999386330879289  0.9285011733950768  0.18464971045001724  1.0000
  H   H9        1.0  0.4673270056029822  0.2220677669527618  0.9243559352250938  1.0000
  H   H10       1.0  0.9673326766912496  0.7220809578522636  0.575646255057876  1.0000
  H   H11       1.0  0.5326672939004453  0.7779284760035735  0.0756448553787905  1.0000
  H   H12       1.0  0.032668724298908144  0.2779152675707621  0.42435324096518195  1.0000
  H   H13       1.0  0.6052966477626995  0.330582172896385  0.8445634047557602  1.0000
  H   H14       1.0  0.10530365731040102  0.830592872423857  0.6554381279720757  1.0000
  H   H15       1.0  0.3946939551402265  0.6694156277817596  0.1554360912776644  1.0000
  H   H16       1.0  0.8946940470618329  0.16940491071041208  0.34456266262748153  1.0000
  H   H17       1.0  0.4026603519403408  0.29637887023436343  0.44730239947253375  1.0000
  H   H18       1.0  0.9026510194901293  0.7963814460632221  0.05269491114415099  1.0000
  H   H19       1.0  0.5973475670513864  0.7036235334416289  0.5526964492538153  1.0000
  H   H20       1.0  0.09734977882037303  0.2036287181336647  0.9473039375855308  1.0000
  H   H21       1.0  0.27687609304392413  0.06153482388907611  0.5001341957890091  1.0000
  H   H22       1.0  0.7768618726363171  0.5615368460158834  0.9998659671034671  1.0000
  H   H23       1.0  0.723134958288128  0.9384644748823021  0.49986335836223356  1.0000
  H   H24       1.0  0.22313637681031648  0.4384702272940543  0.0001348234906828  1.0000
  H   H25       1.0  0.6488570445233107  0.41656164182882083  0.5758454610581012  1.0000
  H   H26       1.0  0.14885024318819978  0.9165577856083331  0.9241520081916972  1.0000
  H   H27       1.0  0.3511483256132593  0.5834376709655089  0.42415403495923687  1.0000
  H   H28       1.0  0.8511468777250072  0.08344619332806497  0.07584554597153209  1.0000
  H   H29       1.0  0.6713452510800407  0.21378547097626213  0.5163780159384216  1.0000
  H   H30       1.0  0.17133226018792416  0.7137780457455989  0.9836196178926568  1.0000
  H   H31       1.0  0.3286626679073308  0.786216932697094  0.48362148007467437  1.0000
  H   H32       1.0  0.8286659892717764  0.2862290275722614  0.0163792308412738  1.0000
  C   C1        1.0  0.22781812352482686  0.3129465009521296  0.5584475308496691  1.0000
  C   C2        1.0  0.7278149023235301  0.812953619351795  0.9415505299934495  1.0000
  C   C3        1.0  0.7721824406548874  0.6870435321923268  0.4415513178907417  1.0000
  C   C4        1.0  0.2721847674230559  0.18705345045306385  0.058449613312497185  1.0000
  C   C5        1.0  0.540847428810963  0.12921216606689262  0.6409498228974184  1.0000
  C   C6        1.0  0.040837534278225125  0.629205753603202  0.8590488166406018  1.0000
  C   C7        1.0  0.45915708530324645  0.8707886974258939  0.3590503204067374  1.0000
  C   C8        1.0  0.9591584580667102  0.3707951309385322  0.1409506793856323  1.0000
  C   C9        1.0  0.36807445653074916  0.22561771760694432  0.511828545423917  1.0000
  C   C10       1.0  0.8680660746601203  0.7256198211141935  0.9881699630842746  1.0000
  C   C11       1.0  0.6319331899237853  0.774380040981221  0.4881703033051323  1.0000
  C   C12       1.0  0.13193303080887384  0.2743857014972946  0.011830180223057596  1.0000
  C   C13       1.0  0.5660810791589128  0.25394306380562165  0.5588601801210586  1.0000
  C   C14       1.0  0.06607064442162176  0.7539375288368929  0.941137629964487  1.0000
  C   C15       1.0  0.433926275550867  0.7460577926743639  0.4411393158934159  1.0000
  C   C16       1.0  0.933926476482874  0.24606645009422584  0.05886121877222189  1.0000
  O   O1        1.0  0.6944263774772563  0.17331426849114  0.6932750063627964  1.0000
  O   O2        1.0  0.1944186072511017  0.6733082793940213  0.8067245636499292  1.0000
  O   O3        1.0  0.30557473175943534  0.8266850548184267  0.30672643151917356  1.0000
  O   O4        1.0  0.8055756922566814  0.3266879635649572  0.19327557966721537  1.0000
  O   O5        1.0  0.6009183455031106  0.6647135025390583  0.725393862704017  1.0000
  O   O6        1.0  0.10092175230930417  0.16471700174548684  0.7746052626830391  1.0000
  O   O7        1.0  0.39907879459587997  0.3352827334044761  0.27460628061018605  1.0000
  O   O8        1.0  0.8990773723628961  0.8352807778837031  0.22539488062830765  1.0000
  O   O9        1.0  0.2927232782919519  0.4188052813058719  0.6278261904730724  1.0000
  O   O10       1.0  0.7927184609192608  0.918802131853852  0.8721703311026017  1.0000
  O   O11       1.0  0.7072786869758119  0.5811924913105243  0.3721733055485927  1.0000
  O   O12       1.0  0.2072772396896312  0.08120185058498919  0.127828517635578  1.0000
  O   O13       1.0  0.04993296331050353  0.27748195618274707  0.5292926442208736  1.0000
  O   O14       1.0  0.5499250889507578  0.7774888472532095  0.9707058220840991  1.0000
  O   O15       1.0  0.9500712974653638  0.7225065192372638  0.4707081463767365  1.0000
  O   O16       1.0  0.4500700473761724  0.22251358798961718  0.02929367394221319  1.0000
  O   O17       1.0  0.475361697219327  0.21635248889516842  0.858873814080958  1.0000
  O   O18       1.0  0.9753693278596033  0.7163651385645694  0.6411283655063753  1.0000
  O   O19       1.0  0.5246311819928522  0.7836437575715323  0.1411263292376574  1.0000
  O   O20       1.0  0.024630652830595106  0.2836310903635351  0.3588717778048931  1.0000
  O   O21       1.0  0.3759093948449035  0.9827298118580997  0.6588282563958072  1.0000
  O   O22       1.0  0.8758953102468751  0.4827269005196441  0.8411706154310108  1.0000
  O   O23       1.0  0.6240979598735804  0.0172710446271651  0.34116994504518766  1.0000
  O   O24       1.0  0.1240992617893895  0.5172739875218895  0.1588308224569133  1.0000
