data_image0
_chemical_formula_structural       Cd2H40C52N4O12
_chemical_formula_sum              "Cd2 H40 C52 N4 O12"
_cell_length_a       7.397794671
_cell_length_b       9.404802623153264
_cell_length_c       17.659
_cell_angle_alpha    99.9653170320301
_cell_angle_beta     90.0
_cell_angle_gamma    113.15955232957441

_space_group_name_H-M_alt    "P 1"
_space_group_IT_number       1

loop_
  _space_group_symop_operation_xyz
  'x, y, z'

loop_
  _atom_site_type_symbol
  _atom_site_label
  _atom_site_symmetry_multiplicity
  _atom_site_fract_x
  _atom_site_fract_y
  _atom_site_fract_z
  _atom_site_occupancy
  Cd  Cd1       1.0  0.4868182146649858  0.9998995910757245  0.7500807850086417  1.0000
  Cd  Cd2       1.0  0.5131826964891388  0.000100090049159  0.2499197518861109  1.0000
  H   H1        1.0  0.7837343192440969  0.8164569040412459  0.7283606059496677  1.0000
  H   H2        1.0  0.9675348004022196  0.18276089717021896  0.7717722982820375  1.0000
  H   H3        1.0  0.21625706359927216  0.1835345343736989  0.2716397375493429  1.0000
  H   H4        1.0  0.03246164097466677  0.8172352513646928  0.22822621418546163  1.0000
  H   H5        1.0  0.7420263400964444  0.6088359937204828  0.48793831793985737  1.0000
  H   H6        1.0  0.13295016150553343  0.39161114880062786  0.012080241060985495  1.0000
  H   H7        1.0  0.25796798652832104  0.3911613323444171  0.5120608693367217  1.0000
  H   H8        1.0  0.8670523416758017  0.6083944199742035  0.9879174407608814  1.0000
  H   H9        1.0  0.4920796510430208  0.7175526275845314  0.46413677175640805  1.0000
  H   H10       1.0  0.7743351569894442  0.28299460498573836  0.035836648706400395  1.0000
  H   H11       1.0  0.5079203228715485  0.2824505861303166  0.5358646569986334  1.0000
  H   H12       1.0  0.22566575416468018  0.7170050761391449  0.9641621893378982  1.0000
  H   H13       1.0  0.4060512511004788  0.8795112799500089  0.5767700435100664  1.0000
  H   H14       1.0  0.5264913517636245  0.1205390349644446  0.9231943875749095  1.0000
  H   H15       1.0  0.5939508375662043  0.1204907562348509  0.42323014415240584  1.0000
  H   H16       1.0  0.4735093851488656  0.8794630012204152  0.07680466752059799  1.0000
  H   H17       1.0  0.06458987363021865  0.6965537352714505  0.5929426997694665  1.0000
  H   H18       1.0  0.3683546452324933  0.3034765616331754  0.9071121905877605  1.0000
  H   H19       1.0  0.9354040384799092  0.3034400582034777  0.4070555956468311  1.0000
  H   H20       1.0  0.631645677165352  0.6965219419617199  0.09288597264746562  1.0000
  H   H21       1.0  0.9895752817461771  0.6821984671623937  0.6878929525610787  1.0000
  H   H22       1.0  0.3076376370746274  0.3181238571797707  0.812234721107494  1.0000
  H   H23       1.0  0.010422925899554543  0.3178012139624826  0.31210588548321994  1.0000
  H   H24       1.0  0.6923636885941419  0.6818793565350842  0.1877638762301359  1.0000
  H   H25       1.0  0.7490870844355086  0.18035167081051637  0.5604862082381531  1.0000
  H   H26       1.0  0.568773124030933  0.8197798936732497  0.9399693172065825  1.0000
  H   H27       1.0  0.25091011993929146  0.8196433001943999  0.4395150271211534  1.0000
  H   H28       1.0  0.4312244948585118  0.18021860992163843  0.060032243729523295  1.0000
  H   H29       1.0  0.945049875443651  0.0255147198250327  0.583361216196252  1.0000
  H   H30       1.0  0.9195420738288718  0.9745544355692601  0.9170166393894162  1.0000
  H   H31       1.0  0.0549545022167806  0.9744837837698553  0.41663807960593163  1.0000
  H   H32       1.0  0.080454607821018  0.0254476006155997  0.0829858134069852  1.0000
  H   H33       1.0  0.4112447819319769  0.448657766700002  0.7016348314434355  1.0000
  H   H34       1.0  0.9623517663155566  0.5515267866333173  0.7984960006671642  1.0000
  H   H35       1.0  0.5887559549805134  0.5513442694848578  0.2983630910851148  1.0000
  H   H36       1.0  0.03765402913045081  0.4484799596715021  0.2015051873811942  1.0000
  H   H37       1.0  0.22073210821536554  0.6043189886785356  0.6800855790505764  1.0000
  H   H38       1.0  0.6161630583299456  0.39585025676490904  0.8200234560218577  1.0000
  H   H39       1.0  0.7792647476761657  0.3956806924463407  0.3199143915606939  1.0000
  H   H40       1.0  0.38384155960349625  0.604154134479927  0.1799758161248519  1.0000
  C   C1        1.0  0.7231264257161881  0.7927049466113656  0.6689197097632301  1.0000
  C   C2        1.0  0.9306746960322768  0.20678368649782183  0.8311883224106111  1.0000
  C   C3        1.0  0.2768667233960187  0.20729002439355773  0.3310809593125867  1.0000
  C   C4        1.0  0.06932157110296802  0.7932148170970663  0.1688109733915724  1.0000
  C   C5        1.0  0.7825294626633905  0.7043101253160984  0.6101375397901592  1.0000
  C   C6        1.0  0.07834417983834642  0.2954611149907009  0.8899857791420587  1.0000
  C   C7        1.0  0.217463512207182  0.2956872007488016  0.38986334633686687  1.0000
  C   C8        1.0  0.9216547908052986  0.704537388604187  0.11001295037664248  1.0000
  C   C9        1.0  0.6989408809659352  0.677171591634746  0.5352726829841643  1.0000
  C   C10       1.0  0.021606399056104002  0.3229387773092043  0.9647680683417121  1.0000
  C   C11       1.0  0.30105285690255096  0.3228245569001657  0.4647263957668102  1.0000
  C   C12       1.0  0.978395449337576  0.6770573712257075  0.03523101040926951  1.0000
  C   C13       1.0  0.5614007403893169  0.738795268605557  0.521711539473408  1.0000
  C   C14       1.0  0.8223862022084062  0.26137750942785937  0.9782936250152333  1.0000
  C   C15       1.0  0.4385999965231733  0.2612067675793028  0.47829034703950424  1.0000
  C   C16       1.0  0.1776181754520252  0.7386209941670288  0.02170680335390779  1.0000
  C   C17       1.0  0.5123264976972592  0.8274361936687455  0.5833126991290456  1.0000
  C   C18       1.0  0.6848700765552138  0.1724940131867143  0.9166876638734751  1.0000
  C   C19       1.0  0.4876736504589445  0.172564664986119  0.41668907885826917  1.0000
  C   C20       1.0  0.3151310088405452  0.8275033128781786  0.0833115234031112  1.0000
  C   C21       1.0  0.9372742145962434  0.6462378787953682  0.6266478890365832  1.0000
  C   C22       1.0  0.29118065940605214  0.3538065484691373  0.8734989089849066  1.0000
  C   C23       1.0  0.06272205253900859  0.35376062479952  0.3733514067656003  1.0000
  C   C24       1.0  0.7088188999938723  0.6461931326557462  0.1264993627759168  1.0000
  C   C25       1.0  0.9717751538662186  0.401796783214813  0.6179898239208229  1.0000
  C   C26       1.0  0.5697945527826107  0.5983312486789885  0.8822666104451004  1.0000
  C   C27       1.0  0.028224405533705973  0.5982028979100633  0.3820090141234829  1.0000
  C   C28       1.0  0.4302067728861587  0.40167196503586666  0.11773368574297652  1.0000
  C   C29       1.0  0.8949036548843949  0.2381024516439538  0.5909460616172808  1.0000
  C   C30       1.0  0.6567075789112522  0.7620161600099209  0.9094120018539728  1.0000
  C   C31       1.0  0.10509666751345043  0.7618960519509343  0.4090543667518674  1.0000
  C   C32       1.0  0.3432912174907585  0.23798469864495084  0.0905886435663774  1.0000
  C   C33       1.0  0.003271802647056186  0.15224874006728575  0.6042385112086919  1.0000
  C   C34       1.0  0.8509182243020135  0.8478404333368414  0.8960907900823614  1.0000
  C   C35       1.0  0.9967298715049822  0.8477497635276023  0.3957607845934916  1.0000
  C   C36       1.0  0.14908369012304223  0.1521639579080016  0.10391074719827742  1.0000
  C   C37       1.0  0.18941086873515187  0.22663919719053635  0.645300969829073  1.0000
  C   C38       1.0  0.9626189648066014  0.7734358458537043  0.8549794613423104  1.0000
  C   C39       1.0  0.8105902166606072  0.7733581288743636  0.354697651164031  1.0000
  C   C40       1.0  0.03738430137264709  0.22656854539113164  0.1450226422218108  1.0000
  C   C41       1.0  0.2661713019261569  0.3902817174418303  0.6704848123206801  1.0000
  C   C42       1.0  0.8756426098508925  0.6098486695119474  0.8296857640072517  1.0000
  C   C43       1.0  0.733826731477933  0.6097203187430296  0.3295131102078628  1.0000
  C   C44       1.0  0.12435989333043551  0.3901568992628768  0.17031588179898452  1.0000
  C   C45       1.0  0.15988976683495082  0.4785258148983615  0.6571850237421941  1.0000
  C   C46       1.0  0.6811055526437781  0.521630477715199  0.8429692527940987  1.0000
  C   C47       1.0  0.8401097925649736  0.5214738662265148  0.3428115491681822  1.0000
  C   C48       1.0  0.3188965360229048  0.4783715584696608  0.1570315011518488  1.0000
  C   C49       1.0  0.2964915727846957  0.1320423254375243  0.6663968245934697  1.0000
  C   C50       1.0  0.16433883552517156  0.8680809963363103  0.8339192017190841  1.0000
  C   C51       1.0  0.7035099271257151  0.8679585332173401  0.3336043871103627  1.0000
  C   C52       1.0  0.8356646048957117  0.1319210398485495  0.16608381736079994  1.0000
  N   N1        1.0  0.5920953446330017  0.853940038685451  0.6557446339974717  1.0000
  N   N2        1.0  0.7383423330562664  0.145706383442409  0.8443133842901744  1.0000
  N   N3        1.0  0.4079030372543642  0.14605728737944898  0.3442568184130367  1.0000
  N   N4        1.0  0.2616585780978582  0.8542932976824744  0.15568545375413126  1.0000
  O   O1        1.0  0.8538370087569476  0.4765357892151271  0.6040331574643787  1.0000
  O   O2        1.0  0.3771604910386658  0.5234815548596004  0.8962311965663475  1.0000
  O   O3        1.0  0.1461567291115458  0.5234603593197846  0.3959687527040145  1.0000
  O   O4        1.0  0.6228423606259312  0.47651930379526425  0.10376944885400263  1.0000
  O   O5        1.0  0.4624541523799763  0.2072028871742901  0.7072607080204918  1.0000
  O   O6        1.0  0.2552809800384991  0.792941630139367  0.7931042732818625  1.0000
  O   O7        1.0  0.5375485250429861  0.7928003265405577  0.2927384556006132  1.0000
  O   O8        1.0  0.7447251638907773  0.2070604060454926  0.2069004446484612  1.0000
  O   O9        1.0  0.21937692978943354  0.98307386504748  0.6474473286619897  1.0000
  O   O10       1.0  0.23603010861663876  0.0170329713064916  0.8528060196761302  1.0000
  O   O11       1.0  0.7806266848730842  0.0169258160773964  0.3525549070832028  1.0000
  O   O12       1.0  0.7639712170521306  0.9829702424083563  0.1471931439449818  1.0000
