data_image0
_chemical_formula_structural       Cu8H24C40N32O8
_chemical_formula_sum              "Cu8 H24 C40 N32 O8"
_cell_length_a       8.112731609
_cell_length_b       9.915133084
_cell_length_c       14.611
_cell_angle_alpha    90.0
_cell_angle_beta     90.0
_cell_angle_gamma    90.0

_space_group_name_H-M_alt    "P 1"
_space_group_IT_number       1

loop_
  _space_group_symop_operation_xyz
  'x, y, z'

loop_
  _atom_site_type_symbol
  _atom_site_label
  _atom_site_symmetry_multiplicity
  _atom_site_fract_x
  _atom_site_fract_y
  _atom_site_fract_z
  _atom_site_occupancy
  Cu  Cu1       1.0  0.3837116953982047  0.1463954127194071  0.0706159742659622  1.0000
  Cu  Cu2       1.0  0.1163011480563796  0.3535968675657557  0.0706166586818142  1.0000
  Cu  Cu3       1.0  0.8837011188742778  0.8535982248849052  0.4293840257340379  1.0000
  Cu  Cu4       1.0  0.6162856410106556  0.646394752919889  0.4293840257340379  1.0000
  Cu  Cu5       1.0  0.6162868736411082  0.8536052848002313  0.9293847101498898  1.0000
  Cu  Cu6       1.0  0.8836986536133793  0.6464028213945454  0.9293840257340379  1.0000
  Cu  Cu7       1.0  0.1162986827954882  0.14640146407539592  0.5706152898501105  1.0000
  Cu  Cu8       1.0  0.383715393289549  0.3536049360404121  0.5706152898501105  1.0000
  H   H1        1.0  0.0546104593807257  0.8409640021328002  0.2815714187940586  1.0000
  H   H2        1.0  0.4453826619866916  0.6590320013499849  0.2815714187940586  1.0000
  H   H3        1.0  0.5546183723135201  0.1590306440308424  0.2184285812059414  1.0000
  H   H4        1.0  0.9453868770281415  0.3409666790509789  0.2184278967900894  1.0000
  H   H5        1.0  0.94538934228904  0.1590356868275009  0.7184292656217934  1.0000
  H   H6        1.0  0.5546171396830673  0.3409686961696465  0.7184292656217934  1.0000
  H   H7        1.0  0.4453838946171373  0.840970053488796  0.7815707343782068  1.0000
  H   H8        1.0  0.05461292464161718  0.6590330099093222  0.7815721032099106  1.0000
  H   H9        1.0  0.2508156436165905  0.0232442669248627  0.2517568954896987  1.0000
  H   H10       1.0  0.2491824082726168  0.4767490219196304  0.2517562110738468  1.0000
  H   H11       1.0  0.7508198586580406  0.9767483621201194  0.2482437889261533  1.0000
  H   H12       1.0  0.7491792275313784  0.5232446156846748  0.24824310451030135  1.0000
  H   H13       1.0  0.7491829254227225  0.9767564305947758  0.7482437889261533  1.0000
  H   H14       1.0  0.7508186260275949  0.5232506670406707  0.7482437889261533  1.0000
  H   H15       1.0  0.2491799430117183  0.0232513268401817  0.7517555266579947  1.0000
  H   H16       1.0  0.2508205741383875  0.4767550732756263  0.7517568954896989  1.0000
  H   H17       1.0  0.9219582700976259  0.7109556614399111  0.1512093628088422  1.0000
  H   H18       1.0  0.5780358855699959  0.7890423591615416  0.15121004722469425  1.0000
  H   H19       1.0  0.4219651487302158  0.2890420104017224  0.3487892683594539  1.0000
  H   H20       1.0  0.07803906631123429  0.2109563212394292  0.3487892683594539  1.0000
  H   H21       1.0  0.0780415315721328  0.28904402752039  0.8487906371911578  1.0000
  H   H22       1.0  0.4219639160997629  0.21095732979875953  0.8487906371911578  1.0000
  H   H23       1.0  0.5780358855699959  0.7109576785585787  0.6512093628088425  1.0000
  H   H24       1.0  0.9219595027280787  0.7890433677208719  0.6512114160563982  1.0000
  C   C1        1.0  0.08293014393002097  0.8644382205853631  0.2103730066388323  1.0000
  C   C2        1.0  0.4170666753287406  0.6355567743380988  0.21037232222298036  1.0000
  C   C3        1.0  0.5829343589714711  0.1355554170189492  0.28962767777701975  1.0000
  C   C4        1.0  0.9170671924788465  0.3644398889442044  0.28962562452946383  1.0000
  C   C5        1.0  0.9170708903701907  0.1355604598156077  0.7896276777770199  1.0000
  C   C6        1.0  0.5829331263410253  0.3644429146222024  0.7896283621928718  1.0000
  C   C7        1.0  0.4170679079591864  0.8644452805006823  0.7103709533912834  1.0000
  C   C8        1.0  0.08293014393002097  0.635557782897429  0.7103736910546845  1.0000
  C   C9        1.0  0.1769404029596586  0.9324262137155587  0.04184176305523121  1.0000
  C   C10       1.0  0.3230687426035885  0.5675718068858941  0.04183902539183041  1.0000
  C   C11       1.0  0.6769310590661775  0.0675714581260749  0.4581602901923177  1.0000
  C   C12       1.0  0.8230606313405531  0.432427882074407  0.4581589213606209  1.0000
  C   C13       1.0  0.8230593987101074  0.0675744838040728  0.958158921360621  1.0000
  C   C14       1.0  0.6769322916966232  0.432427882074407  0.9581609746081698  1.0000
  C   C15       1.0  0.3230687426035885  0.9324292393935566  0.5418383409759786  1.0000
  C   C16       1.0  0.1769391703292058  0.5675718068858941  0.5418410786393792  1.0000
  C   C17       1.0  0.1973490652918741  0.9689844723822957  0.19417630552323575  1.0000
  C   C18       1.0  0.3026526844886774  0.5310095139818287  0.19417493669153177  1.0000
  C   C19       1.0  0.6973483498115343  0.031008156662679205  0.3058250633084683  1.0000
  C   C20       1.0  0.802649503747439  0.46898614074114425  0.3058243788926164  1.0000
  C   C21       1.0  0.8026507363778848  0.031015216578005305  0.8058250633084685  1.0000
  C   C22       1.0  0.6973471171810814  0.4689901749784724  0.8058250633084685  1.0000
  C   C23       1.0  0.3026526844886774  0.9689915322976219  0.69417425227568  1.0000
  C   C24       1.0  0.1973502979223198  0.5310135482191569  0.6941756211073837  1.0000
  C   C25       1.0  0.0104120293966474  0.7918370770705465  0.139694750530424  1.0000
  C   C26       1.0  0.4895847898621142  0.7081609435309133  0.13969338169872  1.0000
  C   C27       1.0  0.5104162444380975  0.20816059477109408  0.3603059338854281  1.0000
  C   C28       1.0  0.9895877722731187  0.2918387454293878  0.3603045650537241  1.0000
  C   C29       1.0  0.9895890049035643  0.2081626118897617  0.8603059338854282  1.0000
  C   C30       1.0  0.5104150118076447  0.2918387454293878  0.8603066183012802  1.0000
  C   C31       1.0  0.4895847898621142  0.7918401027485373  0.639692697282868  1.0000
  C   C32       1.0  0.0104120293966474  0.7081609435309133  0.6396954349462762  1.0000
  C   C33       1.0  0.061164355474239984  0.828379198787971  0.0511046471836281  1.0000
  C   C34       1.0  0.4388373943063115  0.6716208389321494  0.05110259393607211  1.0000
  C   C35       1.0  0.5611624073634474  0.1716204901723302  0.44889672164807604  1.0000
  C   C36       1.0  0.9388354461955186  0.3283808671468122  0.4488946684005199  1.0000
  C   C37       1.0  0.9388354461955186  0.1716204901723302  0.9488953528163719  1.0000
  C   C38       1.0  0.5611624073634474  0.3283788500281517  0.948898090479773  1.0000
  C   C39       1.0  0.4388373943063115  0.8283802073473012  0.5511019095202274  1.0000
  C   C40       1.0  0.061164355474239984  0.6716188218134889  0.55110533159948  1.0000
  N   N1        1.0  0.24642008343801786  0.0047412374197862  0.10952433098350413  1.0000
  N   N2        1.0  0.2535865968643307  0.49525406854337456  0.1095229621518001  1.0000
  N   N3        1.0  0.7464132048054279  0.9952534087438565  0.3904777222640448  1.0000
  N   N4        1.0  0.7535784856012953  0.5047425947389357  0.39047566901649594  1.0000
  N   N5        1.0  0.7535784856012953  0.9952594600998523  0.8904763534323481  1.0000
  N   N6        1.0  0.7464132048054279  0.5047456204169265  0.8904777222640448  1.0000
  N   N7        1.0  0.2535865968643307  0.0047472887757749  0.6095215933201032  1.0000
  N   N8        1.0  0.2464213160684636  0.4952570942213654  0.6095243309835043  1.0000
  N   N9        1.0  0.11393449759567888  0.8565008586424342  0.9028950790500332  1.0000
  N   N10       1.0  0.3860697174457712  0.6434971619590186  0.9028923413866254  1.0000
  N   N11       1.0  0.6139300842239876  0.1434968131992065  0.5971076586133748  1.0000
  N   N12       1.0  0.8860653040740799  0.3564995013232847  0.5971042365341148  1.0000
  N   N13       1.0  0.8860665367045328  0.1434998388771973  0.09710560536581883  1.0000
  N   N14       1.0  0.6139313168544405  0.3565035355606128  0.0971083430292268  1.0000
  N   N15       1.0  0.3860684848153255  0.8565028757610947  0.4028916569707732  1.0000
  N   N16       1.0  0.11393449759567888  0.6435001876370166  0.4028957634658853  1.0000
  N   N17       1.0  0.0251851053193164  0.7845865440327131  0.9644151666552576  1.0000
  N   N18       1.0  0.4748129465698909  0.7154155108060678  0.9644131134077087  1.0000
  N   N19       1.0  0.5251880877303136  0.21541516204624864  0.5355868865922915  1.0000
  N   N20       1.0  0.9748134637199968  0.284586195272901  0.5355841489288906  1.0000
  N   N21       1.0  0.9748146963504425  0.2154141534869183  0.0355848333447426  1.0000
  N   N22       1.0  0.5251868550998677  0.2845851867135636  0.035587571008143505  1.0000
  N   N23       1.0  0.4748117139394452  0.7845845269140526  0.4644124289918566  1.0000
  N   N24       1.0  0.02518633794976209  0.7154145022467375  0.4644165354869615  1.0000
  N   N25       1.0  0.20614511617082334  0.9453892268099011  0.9496858531243576  1.0000
  N   N26       1.0  0.2938640293924237  0.554606776672891  0.9496837998768088  1.0000
  N   N27       1.0  0.706135772277342  0.0546054193537415  0.5503162001231914  1.0000
  N   N28       1.0  0.7938546854989426  0.445388878050082  0.5503141468756425  1.0000
  N   N29       1.0  0.7938546854989426  0.0546114707097374  0.05031483129149451  1.0000
  N   N30       1.0  0.706135772277342  0.44539392084674034  0.050316884539043406  1.0000
  N   N31       1.0  0.2938640293924237  0.9453942696065596  0.4496824310451046  1.0000
  N   N32       1.0  0.20614511617082334  0.5546108109102192  0.4496858531243576  1.0000
  O   O1        1.0  0.3098278263281316  0.028137796803775903  0.9126158373827951  1.0000
  O   O2        1.0  0.1901899476482498  0.47185347492204954  0.9126124153035421  1.0000
  O   O3        1.0  0.8098086213910634  0.9718528151225386  0.5873869002806131  1.0000
  O   O4        1.0  0.6901719753416272  0.5281371370042649  0.5873855314489091  1.0000
  O   O5        1.0  0.6901719753416272  0.9718629007158555  0.0873855314489091  1.0000
  O   O6        1.0  0.8098098540215088  0.5281472225975818  0.08738826911231003  1.0000
  O   O7        1.0  0.19018871501779694  0.0281468738377626  0.41261173088769004  1.0000
  O   O8        1.0  0.3098278263281316  0.47186356051537365  0.4126151529669429  1.0000
