data_image0
_chemical_formula_structural       Co4H20C20N8O8
_chemical_formula_sum              "Co4 H20 C20 N8 O8"
_cell_length_a       8.555766741075942
_cell_length_b       8.55578629792752
_cell_length_c       10.394763546738046
_cell_angle_alpha    107.78607449407222
_cell_angle_beta     107.7862580052306
_cell_angle_gamma    104.9182941622198

_space_group_name_H-M_alt    "P 1"
_space_group_IT_number       1

loop_
  _space_group_symop_operation_xyz
  'x, y, z'

loop_
  _atom_site_type_symbol
  _atom_site_label
  _atom_site_symmetry_multiplicity
  _atom_site_fract_x
  _atom_site_fract_y
  _atom_site_fract_z
  _atom_site_occupancy
  Co  Co1       1.0  0.036269921696416005  0.06919103050056212  0.7050764925847165  1.0000
  Co  Co2       1.0  0.3642281756501546  0.3313205212031535  0.2947428952943272  1.0000
  Co  Co3       1.0  0.5813186581070512  0.11422320793129613  0.7947428280470139  1.0000
  Co  Co4       1.0  0.3191877645363803  0.7862698684397246  0.2050763299012319  1.0000
  H   H1        1.0  0.9860972794561815  0.7131518771351182  0.48595886380982045  1.0000
  H   H2        1.0  0.22755445751783304  0.5003835357003156  0.5144061036658204  1.0000
  H   H3        1.0  0.7503784495990898  0.9775531564519683  0.01440060212960511  1.0000
  H   H4        1.0  0.9631509944175959  0.736099773493777  0.9859558534574195  1.0000
  H   H5        1.0  0.052945491466879  0.6375678313959198  0.6266226143218605  1.0000
  H   H6        1.0  0.011243064406805628  0.42644373388303336  0.37383772962510176  1.0000
  H   H7        1.0  0.6764407494281953  0.7612445296423475  0.873835460289023  1.0000
  H   H8        1.0  0.887563828846922  0.8029434463572687  0.12662038947436124  1.0000
  H   H9        1.0  0.6107048665010097  0.8344532122459611  0.5143170501837634  1.0000
  H   H10       1.0  0.3205257632074492  0.09627881400012943  0.4852935404414896  1.0000
  H   H11       1.0  0.346278875108716  0.0705307747315018  0.9852943261006434  1.0000
  H   H12       1.0  0.08444807731272869  0.3607047253807636  0.014320649509642198  1.0000
  H   H13       1.0  0.6600891814359003  0.03437405465771091  0.1987838201868258  1.0000
  H   H14       1.0  0.8355014375922353  0.46159944608223213  0.801222158238666  1.0000
  H   H15       1.0  0.7116093487909296  0.5855006274730385  0.301222880293942  1.0000
  H   H16       1.0  0.2843783844925127  0.41008986056987595  0.6987909302235739  1.0000
  H   H17       1.0  0.9951735206119139  0.14290741594610523  0.42000959941972865  1.0000
  H   H18       1.0  0.7227913887014309  0.5756481964608826  0.5800810868354918  1.0000
  H   H19       1.0  0.8256575497472342  0.4727846530131644  0.08008041873160471  1.0000
  H   H20       1.0  0.39290691218444357  0.7451720330317073  0.9200147435426662  1.0000
  C   C1        1.0  0.254136591593678  0.8586037423063644  0.6436424541581122  1.0000
  C   C2        1.0  0.21493610627422308  0.6104973691320198  0.35646296812384315  1.0000
  C   C3        1.0  0.860495641709079  0.9649371499091614  0.8564628116670511  1.0000
  C   C4        1.0  0.10860196745527867  0.004137897922277  0.14363992825928315  1.0000
  C   C5        1.0  0.09477777369146174  0.6851966182126575  0.5505555350385908  1.0000
  C   C6        1.0  0.13489254241825682  0.5443516308380367  0.4497911064947646  1.0000
  C   C7        1.0  0.7943481373041975  0.8848937405305223  0.9497886381955502  1.0000
  C   C8        1.0  0.9351929389229952  0.844777319615055  0.05055283063322969  1.0000
  C   C9        1.0  0.670543405976062  0.9010000277859193  0.45745569374836514  1.0000
  C   C10       1.0  0.44380673263571413  0.21314783564255893  0.54228000387716  1.0000
  C   C11       1.0  0.4631496428774113  0.19380874286758848  0.04228051468404464  1.0000
  C   C12       1.0  0.15099430824875526  0.42054314706859225  0.957459080652925  1.0000
  C   C13       1.0  0.6998596408505974  0.005430363960158502  0.2956013561663939  1.0000
  C   C14       1.0  0.7098879000090791  0.40447920982219904  0.7043139265747489  1.0000
  C   C15       1.0  0.6544847350379327  0.45988318052096844  0.2043107277805732  1.0000
  C   C16       1.0  0.2554320647319841  0.4498602768196136  0.7956077331921851  1.0000
  C   C17       1.0  0.8661273892927567  0.0613065880018979  0.40666328695342485  1.0000
  C   C18       1.0  0.6546193215757156  0.4597476044706923  0.5932716663258335  1.0000
  C   C19       1.0  0.7097544996486533  0.4046190944471705  0.09327388428878453  1.0000
  C   C20       1.0  0.3113080493580042  0.6161265323376738  0.9066681621249093  1.0000
  N   N1        1.0  0.8465469800983741  0.995657823574341  0.5097217826344438  1.0000
  N   N2        1.0  0.48609027337833777  0.3370078636260488  0.4901117136635239  1.0000
  N   N3        1.0  0.5870118559447945  0.23608911671556856  0.9901120159381314  1.0000
  N   N4        1.0  0.24565238162053052  0.5965452089743408  0.009723864217015403  1.0000
  N   N5        1.0  0.5767162878405117  0.9026636775414973  0.3278126151927342  1.0000
  N   N6        1.0  0.575018243572856  0.2489459942785501  0.6719495249927409  1.0000
  N   N7        1.0  0.4989502007977079  0.32502329661231494  0.1719503355726176  1.0000
  N   N8        1.0  0.15266361405729612  0.3267173277365672  0.8278168660220122  1.0000
  O   O1        1.0  0.23625337463482043  0.007139172200275803  0.6866633575006279  1.0000
  O   O2        1.0  0.3204382896576591  0.5496269356339242  0.31335902323675696  1.0000
  O   O3        1.0  0.7996294077226339  0.0704411305008392  0.8133583897086968  1.0000
  O   O4        1.0  0.2571369038042378  0.9862543594811726  0.1866634446596154  1.0000
  O   O5        1.0  0.41101572932751645  0.8582955158669279  0.6799169066061171  1.0000
  O   O6        1.0  0.1781840456477113  0.7309300975934079  0.3200716344251832  1.0000
  O   O7        1.0  0.9809318838311186  0.9281849944718418  0.8200715217343917  1.0000
  O   O8        1.0  0.1082979974595162  0.1610185903968855  0.17991567381906048  1.0000
