data_image0
_chemical_formula_structural       Sm2H20C20O20
_chemical_formula_sum              "Sm2 H20 C20 O20"
_cell_length_a       8.827478856588238
_cell_length_b       9.313525720634635
_cell_length_c       9.622895624481052
_cell_angle_alpha    84.4080189089399
_cell_angle_beta     66.50517172705071
_cell_angle_gamma    64.18323152862699

_space_group_name_H-M_alt    "P 1"
_space_group_IT_number       1

loop_
  _space_group_symop_operation_xyz
  'x, y, z'

loop_
  _atom_site_type_symbol
  _atom_site_label
  _atom_site_symmetry_multiplicity
  _atom_site_fract_x
  _atom_site_fract_y
  _atom_site_fract_z
  _atom_site_occupancy
  Sm  Sm1       1.0  0.2331480963171444  0.5061183775034764  0.545475513501117  1.0000
  Sm  Sm2       1.0  0.7668518104560743  0.49388315246268627  0.4545212731491902  1.0000
  H   H1        1.0  0.9375801837951697  0.41593314334242854  0.7367173924192232  1.0000
  H   H2        1.0  0.06242335056178666  0.5840636049133179  0.26327745691208543  1.0000
  H   H3        1.0  0.051202486342205596  0.3832456837825831  0.8350024233469285  1.0000
  H   H4        1.0  0.9488004716228887  0.6167546645756661  0.1649922939060319  1.0000
  H   H5        1.0  0.3312723475593343  0.6012159382034311  0.7747689883538414  1.0000
  H   H6        1.0  0.6687324339532736  0.39878081354448364  0.22522643210909635  1.0000
  H   H7        1.0  0.11417772030526417  0.6581702688321726  0.8629540470748651  1.0000
  H   H8        1.0  0.885824021085341  0.3418300698671998  0.1370421666848287  1.0000
  H   H9        1.0  0.3218396481417825  0.6522141266183541  0.01895458699966928  1.0000
  H   H10       1.0  0.6781706219323949  0.34777905441251994  0.9810380809722333  1.0000
  H   H11       1.0  0.1747994061690861  0.9070520018533941  0.42490181023009654  1.0000
  H   H12       1.0  0.825201133937604  0.09294832410373739  0.5750969338555124  1.0000
  H   H13       1.0  0.41672498104603056  0.07503503782455571  0.4039590102826552  1.0000
  H   H14       1.0  0.5832707760647508  0.9249700478506924  0.5960473029054328  1.0000
  H   H15       1.0  0.11383397837727931  0.011405900516386704  0.7936226665320517  1.0000
  H   H16       1.0  0.8861610483996574  0.9885859632734078  0.20638727818595037  1.0000
  H   H17       1.0  0.2479211861305117  0.27789592816426995  0.06202435955683685  1.0000
  H   H18       1.0  0.7520739155070616  0.7221055508329497  0.9379825483971447  1.0000
  H   H19       1.0  0.5087882838689666  0.20684825090740594  0.13768817252336868  1.0000
  H   H20       1.0  0.49120618865584464  0.793152023671965  0.8623190879150968  1.0000
  C   C1        1.0  0.36083959443151775  0.5303917105512851  0.21662864419415945  1.0000
  C   C2        1.0  0.6391615331368997  0.4696074206468736  0.7833689558692003  1.0000
  C   C3        1.0  0.41926449227740636  0.5504380285793573  0.05203289098550108  1.0000
  C   C4        1.0  0.5807434168799829  0.44955752614387007  0.947965629176011  1.0000
  C   C5        1.0  0.4533843910799574  0.774688538930519  0.4202446020593771  1.0000
  C   C6        1.0  0.5466149435221155  0.2253141827112586  0.5797543624323681  1.0000
  C   C7        1.0  0.29532284856202295  0.9207480012775875  0.41440887412040445  1.0000
  C   C8        1.0  0.7046783665291729  0.0792535198473345  0.5855926189382783  1.0000
  C   C9        1.0  0.2978235667297966  0.06433902776041119  0.40583269944664135  1.0000
  C   C10       1.0  0.7021739833473433  0.935662467471218  0.5941722493130611  1.0000
  C   C11       1.0  0.13973382689234634  0.2164860401954343  0.4094329118593478  1.0000
  C   C12       1.0  0.8602642911352307  0.7835166717874669  0.5905675491391308  1.0000
  C   C13       1.0  0.19763148011844583  0.08332849722965818  0.9140935419650377  1.0000
  C   C14       1.0  0.8023653949741886  0.9166718028341804  0.08590865782158366  1.0000
  C   C15       1.0  0.353468546016245  0.0390967887417233  0.9584452988115473  1.0000
  C   C16       1.0  0.6465283443669777  0.9609035082387649  0.04155793479426246  1.0000
  C   C17       1.0  0.3585915183224131  0.15684252918171637  0.034463052355626266  1.0000
  C   C18       1.0  0.6414047998896494  0.8431589594743867  0.9655423590916217  1.0000
  C   C19       1.0  0.5048859212271068  0.1173363070724136  0.07608386526398905  1.0000
  C   C20       1.0  0.4951122316023416  0.8826639903168926  0.9239209732926386  1.0000
  O   O1        1.0  0.4625135012624568  0.412873804640533  0.2675736172733708  1.0000
  O   O2        1.0  0.5374863833710251  0.5871229146385631  0.7324257215781317  1.0000
  O   O3        1.0  0.20322901656123088  0.6326485799892652  0.30673561870171556  1.0000
  O   O4        1.0  0.7967751621990686  0.36734936960098  0.6932599119642903  1.0000
  O   O5        1.0  0.4291902149427216  0.6489402553818236  0.4676122186961038  1.0000
  O   O6        1.0  0.5708134027162971  0.3510612912275661  0.532384213710742  1.0000
  O   O7        1.0  0.610003653372658  0.7720081589895643  0.38216449990648027  1.0000
  O   O8        1.0  0.3899963103421698  0.22799576707007668  0.6178341121007876  1.0000
  O   O9        1.0  0.010733725097750783  0.2159570378518154  0.3814117363777854  1.0000
  O   O10       1.0  0.9892655678532877  0.7840432846131408  0.6185864365761873  1.0000
  O   O11       1.0  0.13726962713670326  0.34755642825739125  0.44307010314673795  1.0000
  O   O12       1.0  0.8627278575574027  0.6524474877345412  0.5569284004164389  1.0000
  O   O13       1.0  0.0022139162833383135  0.4613202674598823  0.769919088953131  1.0000
  O   O14       1.0  0.9977865932421965  0.5386800646639642  0.2300775874941152  1.0000
  O   O15       1.0  0.22594213192600407  0.5810197003574376  0.7835872872858617  1.0000
  O   O16       1.0  0.7740583623089422  0.4189806348497528  0.21640835534218902  1.0000
  O   O17       1.0  0.056996424225978594  0.21153868052824984  0.9569750603161183  1.0000
  O   O18       1.0  0.9430028576551878  0.7884592365931766  0.04302438873845182  1.0000
  O   O19       1.0  0.2196443268436782  0.9697878530823799  0.821854011265387  1.0000
  O   O20       1.0  0.780350737363577  0.030208818311130894  0.17815441507060104  1.0000
