data_image0
_chemical_formula_structural       Dy2H26C24S6N12O16
_chemical_formula_sum              "Dy2 H26 C24 S6 N12 O16"
_cell_length_a       9.775127791123728
_cell_length_b       9.742344096544524
_cell_length_c       11.041342303441047
_cell_angle_alpha    81.6323331650258
_cell_angle_beta     85.14901650313317
_cell_angle_gamma    83.8503704831395

_space_group_name_H-M_alt    "P 1"
_space_group_IT_number       1

loop_
  _space_group_symop_operation_xyz
  'x, y, z'

loop_
  _atom_site_type_symbol
  _atom_site_label
  _atom_site_symmetry_multiplicity
  _atom_site_fract_x
  _atom_site_fract_y
  _atom_site_fract_z
  _atom_site_occupancy
  Dy  Dy1       1.0  0.2511534250790461  0.48412857352474237  0.5023485935451788  1.0000
  Dy  Dy2       1.0  0.7488470713311486  0.5158671465221332  0.4976501327046848  1.0000
  H   H1        1.0  0.29159482386256036  0.35441864103988513  0.1756639517079179  1.0000
  H   H2        1.0  0.7083991615924461  0.6455825911193998  0.8243426567829529  1.0000
  H   H3        1.0  0.2908299876325487  0.41767428139355905  0.015498903177757506  1.0000
  H   H4        1.0  0.709181043665744  0.5823328195629286  0.9845073159317579  1.0000
  H   H5        1.0  0.30163496468068024  0.2357946493240419  0.0636143547192987  1.0000
  H   H6        1.0  0.6983586958439078  0.7642106467773357  0.936386262493464  1.0000
  H   H7        1.0  0.9054139666425415  0.9950078586215624  0.445398244302325  1.0000
  H   H8        1.0  0.09458926500727932  0.004993100907569197  0.5546049479623605  1.0000
  H   H9        1.0  0.7989862986688152  0.0929381078305624  0.547938101365844  1.0000
  H   H10       1.0  0.20102033179184534  0.907058662337498  0.4520681373859858  1.0000
  H   H11       1.0  0.8668876835648619  0.18022085860665274  0.4097870705508342  1.0000
  H   H12       1.0  0.13311342373711452  0.8197812264273452  0.5902179416249709  1.0000
  H   H13       1.0  0.05377352292656213  0.9194280915319765  0.28000552871956336  1.0000
  H   H14       1.0  0.9462179525714803  0.0805647754684031  0.7199970436050478  1.0000
  H   H15       1.0  0.9806587754491076  0.9440324856966239  0.13514144192966887  1.0000
  H   H16       1.0  0.0193325416759862  0.0559624305459323  0.8648590377803346  1.0000
  H   H17       1.0  0.06980538638087812  0.0774347579773291  0.17682071710571276  1.0000
  H   H18       1.0  0.9301860222074583  0.9225591854575231  0.8231835179849439  1.0000
  H   H19       1.0  0.17606244767100784  0.20561838631059706  0.6310151807798263  1.0000
  H   H20       1.0  0.8239399723578987  0.794379437534829  0.3689867138570548  1.0000
  H   H21       1.0  0.027331205974981312  0.29771814226630505  0.6221659658860332  1.0000
  H   H22       1.0  0.9726731213036147  0.7022817162931574  0.37783548504006603  1.0000
  H   H23       1.0  0.45889120861624383  0.40789995634596465  0.6943563312422755  1.0000
  H   H24       1.0  0.5411145064834955  0.5920945991327146  0.30564214542775403  1.0000
  H   H25       1.0  0.3576144471579355  0.29324233822651985  0.7185218610790687  1.0000
  H   H26       1.0  0.6423987652598839  0.7067478606657928  0.28147573569015805  1.0000
  C   C1        1.0  0.0305109468009164  0.3985896051176709  0.3163467846496602  1.0000
  C   C2        1.0  0.9694794241787149  0.6014176238490733  0.6836420423971604  1.0000
  C   C3        1.0  0.008658584716322103  0.36334790216936597  0.19376517973552856  1.0000
  C   C4        1.0  0.9913376459240482  0.6366632953416768  0.8062198936713117  1.0000
  C   C5        1.0  0.1028311751543498  0.3405236506467659  0.09492894254913152  1.0000
  C   C6        1.0  0.897169641388885  0.6594812837258389  0.9050611913869204  1.0000
  C   C7        1.0  0.25602313096471363  0.33701653688876126  0.0883551029150809  1.0000
  C   C8        1.0  0.7439744983399451  0.6629907621273929  0.911645816466276  1.0000
  C   C9        1.0  0.5315951753186924  0.2722077177919786  0.42731226626963087  1.0000
  C   C10       1.0  0.4684080154085778  0.7277930690258785  0.5726818957505557  1.0000
  C   C11       1.0  0.5767605090928926  0.13687009067419353  0.38115179650653636  1.0000
  C   C12       1.0  0.4232420652167122  0.8631256666579291  0.6188512877205028  1.0000
  C   C13       1.0  0.7031221470485676  0.05633807630184151  0.39000910393576055  1.0000
  C   C14       1.0  0.2968791855360777  0.9436608830555074  0.6099963380885994  1.0000
  C   C15       1.0  0.8258603840972399  0.08238719509196808  0.4509743988212663  1.0000
  C   C16       1.0  0.1741398528586302  0.9176128652350504  0.54903278454168  1.0000
  C   C17       1.0  0.2693218206057963  0.6852644409703713  0.2862776477107261  1.0000
  C   C18       1.0  0.7306771705328571  0.3147388041107391  0.7137309904250985  1.0000
  C   C19       1.0  0.28350016673739736  0.7836356011351525  0.17192513444098273  1.0000
  C   C20       1.0  0.7164937436233888  0.21636667291634384  0.8280813307670344  1.0000
  C   C21       1.0  0.19981844292586717  0.9017533124921185  0.1265180967927648  1.0000
  C   C22       1.0  0.8001736940046486  0.09824477397639697  0.8734854865939425  1.0000
  C   C23       1.0  0.06878647647943134  0.9640737288542167  0.1837533676582055  1.0000
  C   C24       1.0  0.9312027954842962  0.03592128827211379  0.8162499782702284  1.0000
  S   S1        1.0  0.8473980863700419  0.3522888377613214  0.15159433133342765  1.0000
  S   S2        1.0  0.15260366742901255  0.6477170448837837  0.8483919686494303  1.0000
  S   S3        1.0  0.471112448050235  0.05102082519277221  0.3104307513004656  1.0000
  S   S4        1.0  0.5288899719786714  0.948976998652654  0.6895711433364157  1.0000
  S   S5        1.0  0.4150279972132083  0.7556932417860905  0.06486383932873713  1.0000
  S   S6        1.0  0.5849737046115351  0.2443151391505083  0.9351438466752101  1.0000
  N   N1        1.0  0.9065253261672269  0.3201194720809752  0.009569532993083427  1.0000
  N   N2        1.0  0.0934831215135077  0.6798789528363116  0.9904163955100742  1.0000
  N   N3        1.0  0.0399202821692484  0.31735101204233024  0.9942380402812889  1.0000
  N   N4        1.0  0.9600859906229576  0.6826496838988092  0.005754982996833703  1.0000
  N   N5        1.0  0.5902838955488363  0.9180473089903246  0.2939688757026744  1.0000
  N   N6        1.0  0.4097220693871008  0.08194422443847318  0.7060354489626093  1.0000
  N   N7        1.0  0.7045018224628877  0.9361402714070833  0.34000434192740414  1.0000
  N   N8        1.0  0.29549965621793467  0.06385658689470118  0.6600004836382142  1.0000
  N   N9        1.0  0.3590614396321073  0.8962456203435634  0.96732803512446  1.0000
  N   N10       1.0  0.6409319450691343  0.10376394695344258  0.03267742710359297  1.0000
  N   N11       1.0  0.24777745131370219  0.961064110568955  0.012583448081578347  1.0000
  N   N12       1.0  0.7522132855188987  0.038939227166970604  0.9874204004878564  1.0000
  O   O1        1.0  0.15127089508192174  0.4128626035927424  0.340836192926993  1.0000
  O   O2        1.0  0.8487156715363536  0.5871552560707656  0.6591586612045148  1.0000
  O   O3        1.0  0.12707763722355742  0.2984022895264928  0.6008201099026138  1.0000
  O   O4        1.0  0.8729247623440699  0.7015954479632923  0.3991772696120178  1.0000
  O   O5        1.0  0.9234356875079828  0.41235322759779786  0.3897633799209713  1.0000
  O   O6        1.0  0.07654623466747526  0.5876426922868275  0.6102241182922725  1.0000
  O   O7        1.0  0.3599948740161523  0.39328526682244563  0.6904563654919968  1.0000
  O   O8        1.0  0.6400141484311915  0.6067060721028669  0.3095414022845233  1.0000
  O   O9        1.0  0.40243722244245106  0.3024369117854988  0.441859364920802  1.0000
  O   O10       1.0  0.5975638152911886  0.6975648796393301  0.5581302958393622  1.0000
  O   O11       1.0  0.6243635157817664  0.34498806151869127  0.44813291988581483  1.0000
  O   O12       1.0  0.3756466268478817  0.6550022800637194  0.5518685246988256  1.0000
  O   O13       1.0  0.3675877351157411  0.5889358366393651  0.30974006412846233  1.0000
  O   O14       1.0  0.6324184161338096  0.4110670639840989  0.6902589937551016  1.0000
  O   O15       1.0  0.16238372512884078  0.6945075397876508  0.3600747408372485  1.0000
  O   O16       1.0  0.8376258413005718  0.305491240559256  0.639930975631259  1.0000
