data_image0
_chemical_formula_structural       Cu6H32C24N8Cl6
_chemical_formula_sum              "Cu6 H32 C24 N8 Cl6"
_cell_length_a       7.113820680598592
_cell_length_b       9.222006575639869
_cell_length_c       12.77210398482177
_cell_angle_alpha    83.12370194018399
_cell_angle_beta     85.0668432384073
_cell_angle_gamma    81.78957532103391

_space_group_name_H-M_alt    "P 1"
_space_group_IT_number       1

loop_
  _space_group_symop_operation_xyz
  'x, y, z'

loop_
  _atom_site_type_symbol
  _atom_site_label
  _atom_site_symmetry_multiplicity
  _atom_site_fract_x
  _atom_site_fract_y
  _atom_site_fract_z
  _atom_site_occupancy
  Cu  Cu1       1.0  0.7547775303295055  0.560415227154266  0.23614956803483264  1.0000
  Cu  Cu2       1.0  0.245220149733349  0.43958506208871734  0.7638516775452259  1.0000
  Cu  Cu3       1.0  0.7939083522010433  0.22647978813705558  0.16610497146680814  1.0000
  Cu  Cu4       1.0  0.20609482035187904  0.7735215839991413  0.8338920160492406  1.0000
  Cu  Cu5       1.0  0.8315979393074571  0.22659728906715768  0.3644294418874097  1.0000
  Cu  Cu6       1.0  0.16840096980013894  0.7734040982967159  0.6355708686157513  1.0000
  H   H1        1.0  0.2878560778864595  0.5908581301372563  0.4663413512296941  1.0000
  H   H2        1.0  0.7121430208068915  0.4091421550769213  0.5336590476992527  1.0000
  H   H3        1.0  0.13568926305539006  0.5098250395906734  0.31704846374211115  1.0000
  H   H4        1.0  0.8643096309445112  0.4901763540556843  0.6829534128285815  1.0000
  H   H5        1.0  0.525042126285733  0.7305059782486653  0.3308464122755339  1.0000
  H   H6        1.0  0.47495497746603377  0.2694976205846658  0.6691553510609296  1.0000
  H   H7        1.0  0.4811778789019526  0.7782965258251553  0.46338497617111324  1.0000
  H   H8        1.0  0.5188206283726088  0.2217070752618611  0.53661750658177  1.0000
  H   H9        1.0  0.5625725236054179  0.907845021802949  0.36105636874355435  1.0000
  H   H10       1.0  0.43742918499392397  0.0921563732095336  0.6389461636262013  1.0000
  H   H11       1.0  0.8410154348726875  0.9212676961556027  0.6176970198213284  1.0000
  H   H12       1.0  0.158982427222071  0.0787314940789159  0.3823050972182855  1.0000
  H   H13       1.0  0.7052732552124397  0.9938576928204128  0.5073529120374403  1.0000
  H   H14       1.0  0.2947260255128085  0.0061414933853001  0.4926483583510617  1.0000
  H   H15       1.0  0.6256017697061366  0.8511316795234266  0.5996200741030577  1.0000
  H   H16       1.0  0.37439487845157515  0.148866406307711  0.4003814119459292  1.0000
  H   H17       1.0  0.38369934748085643  0.5122321959123183  0.18152842127295093  1.0000
  H   H18       1.0  0.616312396257193  0.4877526058743912  0.8184610247890659  1.0000
  H   H19       1.0  0.18187550677144765  0.5894471400744193  0.02837778119302211  1.0000
  H   H20       1.0  0.8181390515660355  0.41053766307841505  0.9716123206680578  1.0000
  H   H21       1.0  0.47689852821848416  0.9260258872959285  0.8116598292226911  1.0000
  H   H22       1.0  0.5231010034073762  0.073979920344172  0.18834319609502612  1.0000
  H   H23       1.0  0.7183773657198529  0.8426441402115046  0.8218245401816374  1.0000
  H   H24       1.0  0.28161982200831653  0.1573671727821804  0.1781765405569757  1.0000
  H   H25       1.0  0.6313494680629076  0.9943110902238672  0.8925540956263589  1.0000
  H   H26       1.0  0.36864356182928754  0.005691421687430399  0.1074510791230097  1.0000
  H   H27       1.0  0.8904417210926636  0.7639900437341183  0.12173169856285432  1.0000
  H   H28       1.0  0.10955275764541736  0.23601245158339892  0.8782694974003391  1.0000
  H   H29       1.0  0.7825666858000702  0.935000701183704  0.05989588478976766  1.0000
  H   H30       1.0  0.21742374929382885  0.0650006946468054  0.9401055904512603  1.0000
  H   H31       1.0  0.9139311713652133  0.8044933385443683  0.9808570073082805  1.0000
  H   H32       1.0  0.08606433172415957  0.19551136332622582  0.019144731219753904  1.0000
  C   C1        1.0  0.7752948986732732  0.7328345923283521  0.4111898290154342  1.0000
  C   C2        1.0  0.22470559598901468  0.2671656982807421  0.5888120723636945  1.0000
  C   C3        1.0  0.861787043142236  0.7817883375165807  0.49369978286939903  1.0000
  C   C4        1.0  0.13821043222717577  0.2182130601585897  0.5063029403524055  1.0000
  C   C5        1.0  0.14159064665874146  0.6338787842475214  0.4493904921639142  1.0000
  C   C6        1.0  0.8584086491742084  0.36612039567570787  0.5506092121570489  1.0000
  C   C7        1.0  0.05803505977459621  0.5885153383041484  0.3676895035559795  1.0000
  C   C8        1.0  0.9419659131432991  0.41149045588340266  0.632310326009332  1.0000
  C   C9        1.0  0.573966061363478  0.7900484781537714  0.39045126460752044  1.0000
  C   C10       1.0  0.4260314215597845  0.20995291638015348  0.6095506755805217  1.0000
  C   C11       1.0  0.7528481508315039  0.8930665551943447  0.5588251159492401  1.0000
  C   C12       1.0  0.2471495216775068  0.10693373718987693  0.441176912664588  1.0000
  C   C13       1.0  0.5301139078452904  0.7898083005275965  0.9561442804852193  1.0000
  C   C14       1.0  0.4698856077887966  0.21018976468094758  0.04385238012647359  1.0000
  C   C15       1.0  0.6409552925194858  0.7487364218349766  0.0441634470505861  1.0000
  C   C16       1.0  0.35904842612913507  0.2512616532758472  0.9558361548441139  1.0000
  C   C17       1.0  0.42347266060895794  0.5937830250429953  0.11759805072315287  1.0000
  C   C18       1.0  0.5765386510806534  0.4062040030318386  0.8823966997236495  1.0000
  C   C19       1.0  0.313044889465715  0.6359311042588731  0.03299000755492191  1.0000
  C   C20       1.0  0.6869698206882688  0.3640526124504718  0.9670040979007696  1.0000
  C   C21       1.0  0.5915765154876808  0.8947257147937157  0.8656825992479042  1.0000
  C   C22       1.0  0.4084218248626783  0.10527897901926052  0.1343174459778922  1.0000
  C   C23       1.0  0.8168930441849369  0.8163060775145538  0.05206436328251132  1.0000
  C   C24       1.0  0.1831052886115714  0.1836986194396673  0.9479364649770546  1.0000
  N   N1        1.0  0.8739488035798287  0.6360545559869095  0.34855711949580837  1.0000
  N   N2        1.0  0.12604868689727766  0.3639468354057769  0.6514440376584716  1.0000
  N   N3        1.0  0.04446391738937189  0.7301611868080827  0.5134590753578436  1.0000
  N   N4        1.0  0.9555349766105293  0.26984020683828186  0.486542801212849  1.0000
  N   N5        1.0  0.366169015060656  0.7323928226682243  0.9509096875090819  1.0000
  N   N6        1.0  0.6338372899483389  0.2675986229506009  0.04908646615415788  1.0000
  N   N7        1.0  0.5891670304445427  0.6477921877494951  0.12389353748343979  1.0000
  N   N8        1.0  0.41083746920861597  0.35220146933878743  0.8761040690131096  1.0000
  Cl  Cl1       1.0  0.008495591748072706  0.3985095992137531  0.16394687853870238  1.0000
  Cl  Cl2       1.0  0.9915051151615161  0.6014895798219017  0.8360527621649112  1.0000
  Cl  Cl3       1.0  0.9003290435843069  0.02680975481493421  0.27239759224651294  1.0000
  Cl  Cl4       1.0  0.09966843933895571  0.9731916397189907  0.7276043479415222  1.0000
  Cl  Cl5       1.0  0.5551490726747019  0.38356108649623627  0.3404456982861817  1.0000
  Cl  Cl6       1.0  0.4448468246938687  0.6164414047924679  0.6595546510258927  1.0000
