data_image0
_chemical_formula_structural       Al4H66C76N12O20F14
_chemical_formula_sum              "Al4 H66 C76 N12 O20 F14"
_cell_length_a       6.7445615667597805
_cell_length_b       20.53876680821636
_cell_length_c       22.48896868165404
_cell_angle_alpha    87.02326254552364
_cell_angle_beta     89.23235956712489
_cell_angle_gamma    89.51017666010279

_space_group_name_H-M_alt    "P 1"
_space_group_IT_number       1

loop_
  _space_group_symop_operation_xyz
  'x, y, z'

loop_
  _atom_site_type_symbol
  _atom_site_label
  _atom_site_symmetry_multiplicity
  _atom_site_fract_x
  _atom_site_fract_y
  _atom_site_fract_z
  _atom_site_occupancy
  Al  Al1       1.0  0.1644673671600927  0.5002761864324868  0.4993653224365887  1.0000
  Al  Al2       1.0  0.6649477482263393  0.499707909625215  0.4989443457422952  1.0000
  Al  Al3       1.0  0.602996636514007  0.0003231535860592994  0.9983216754753598  1.0000
  Al  Al4       1.0  0.10246078888384602  0.0016208619637581  0.0036556565015289  1.0000
  H   H1        1.0  0.634358487083482  0.0916564891861071  0.8200570893023099  1.0000
  H   H2        1.0  0.0819201679743031  0.8950516563070323  0.1663823356053342  1.0000
  H   H3        1.0  0.10648923281122082  0.1829636052919099  0.9100264690846913  1.0000
  H   H4        1.0  0.6555126729731738  0.8385381242761341  0.104585675811812  1.0000
  H   H5        1.0  0.280345268709624  0.36917777922914746  0.7897556511848762  1.0000
  H   H6        1.0  0.8429501584545634  0.652686262469487  0.2239360029606274  1.0000
  H   H7        1.0  0.674340529457311  0.3316641972786273  0.6011560640758873  1.0000
  H   H8        1.0  0.1278526766758716  0.6541661990291558  0.3861956199871628  1.0000
  H   H9        1.0  0.150453702451486  0.17878403983471713  0.21567413588070386  1.0000
  H   H10       1.0  0.6557780895552983  0.8107833151905409  0.7782219739776438  1.0000
  H   H11       1.0  0.995555748657921  0.14151104172444923  0.2708896194542376  1.0000
  H   H12       1.0  0.5122515580953221  0.8559539964358293  0.725951814749905  1.0000
  H   H13       1.0  0.2085162914729466  0.2669908880713053  0.27509249903953753  1.0000
  H   H14       1.0  0.6718242798368479  0.7217412910773932  0.7186038918788283  1.0000
  H   H15       1.0  0.933631998768618  0.26434868152107066  0.09643101441127301  1.0000
  H   H16       1.0  0.2449115585496742  0.2180062217527663  0.13362101624447584  1.0000
  H   H17       1.0  0.2780913919736747  0.29199175130013083  0.1707761477462242  1.0000
  H   H18       1.0  0.2802577594683697  0.29321924175632563  0.09233907934569881  1.0000
  H   H19       1.0  0.4431775501067534  0.7337555711173352  0.8972564329058272  1.0000
  H   H20       1.0  0.7617717032965956  0.7606094855712229  0.8551388363234268  1.0000
  H   H21       1.0  0.7433266086807963  0.6928297236259126  0.808950481046324  1.0000
  H   H22       1.0  0.769309207427888  0.6795071190497312  0.8863776995813099  1.0000
  H   H23       1.0  0.5339955563314619  0.28102120712325973  0.3765757841748183  1.0000
  H   H24       1.0  0.320044357368893  0.35515816866846006  0.3366317945595938  1.0000
  H   H25       1.0  0.4191698309148464  0.3472441592720301  0.26347553266818835  1.0000
  H   H26       1.0  0.5602591076843312  0.3850595486250797  0.3182725847535153  1.0000
  H   H27       1.0  0.8994120266272035  0.7701206025991496  0.6592433473953676  1.0000
  H   H28       1.0  0.023053630816804102  0.67020678207318  0.6046986408227325  1.0000
  H   H29       1.0  0.7970396558970024  0.6679178709862156  0.6453106156571168  1.0000
  H   H30       1.0  0.011383644431497005  0.6323347203107729  0.6775070025734067  1.0000
  H   H31       1.0  0.10968675946705989  0.3796166442725593  0.2675656732469918  1.0000
  H   H32       1.0  0.23427132504294693  0.4359694903032505  0.1800359839840056  1.0000
  H   H33       1.0  0.9789972226021392  0.457892257068373  0.1907290597630578  1.0000
  H   H34       1.0  0.04733624348878611  0.39933778068458986  0.1379404550891934  1.0000
  H   H35       1.0  0.5066790651407374  0.6080564324773333  0.7259013168515408  1.0000
  H   H36       1.0  0.5994333044064958  0.5427246539585582  0.8100596366248992  1.0000
  H   H37       1.0  0.3337265262530522  0.5442511963427278  0.8094564084731459  1.0000
  H   H38       1.0  0.46491101476780033  0.595004959554899  0.8572354429138472  1.0000
  H   H39       1.0  0.22544299402706267  0.4379993009986408  0.7381490036526303  1.0000
  H   H40       1.0  0.9134473466580247  0.5113391222370111  0.689643247827334  1.0000
  H   H41       1.0  0.1204628107973065  0.5260967293563753  0.6412464581104372  1.0000
  H   H42       1.0  0.1389596693382558  0.5402264422884356  0.7183700374623568  1.0000
  H   H43       1.0  0.8397622832657916  0.5951623760651756  0.28828505738117366  1.0000
  H   H44       1.0  0.5955774145044046  0.5007642523749424  0.27249592638938946  1.0000
  H   H45       1.0  0.6190881152455107  0.48904884381938984  0.3514993434752611  1.0000
  H   H46       1.0  0.8314708035881608  0.48507749792815946  0.30545817032689376  1.0000
  H   H47       1.0  0.4371027668013597  0.1272799808075291  0.6752497817268762  1.0000
  H   H48       1.0  0.24896632845081265  0.06891701762967271  0.7538486840911246  1.0000
  H   H49       1.0  0.1906462564048184  0.1541225549866354  0.7486119330879079  1.0000
  H   H50       1.0  0.3513834644595022  0.12204674427946567  0.8048054978058374  1.0000
  H   H51       1.0  0.899456478186373  0.8821681527187409  0.22488946163690574  1.0000
  H   H52       1.0  0.6461443930623433  0.8988226322702102  0.28701388339337797  1.0000
  H   H53       1.0  0.7933240582359247  0.8681161735703993  0.3475918051492854  1.0000
  H   H54       1.0  0.644600924730142  0.8142132743736  0.30778627360464134  1.0000
  H   H55       1.0  0.8727869848357699  0.17919826645926656  0.3614511438222863  1.0000
  H   H56       1.0  0.6623403780061352  0.13249294494752212  0.42831254278011954  1.0000
  H   H57       1.0  0.5020776752954319  0.13509698157729128  0.36563858616428757  1.0000
  H   H58       1.0  0.48270761314812916  0.19513468545963517  0.41931920505680853  1.0000
  H   H59       1.0  0.3207702529694032  0.8448747004178542  0.6445524707681614  1.0000
  H   H60       1.0  0.2275012136508465  0.8339025570053239  0.5458256018448964  1.0000
  H   H61       1.0  0.0929050696225104  0.7626921473118882  0.5664516970045953  1.0000
  H   H62       1.0  0.3575659622276675  0.7606091155116417  0.5672047463846254  1.0000
  H   H63       1.0  0.41468433945183847  0.4212753753054983  0.5312430779044632  1.0000
  H   H64       1.0  0.9121231413992918  0.5763236390864179  0.46341711161392857  1.0000
  H   H65       1.0  0.3498345670268677  0.08191954531604748  0.9743136950449129  1.0000
  H   H66       1.0  0.8630418723691451  0.921454010313077  0.9797027660356791  1.0000
  C   C1        1.0  0.4171492379902375  0.5842705830787622  0.5702968984749505  1.0000
  C   C2        1.0  0.9206248172277257  0.4149835268960658  0.42893946267839306  1.0000
  C   C3        1.0  0.41263712685834275  0.5711837722406728  0.41018471670387413  1.0000
  C   C4        1.0  0.9128195485158912  0.4300664102992612  0.5889571334088899  1.0000
  C   C5        1.0  0.7354397576522443  0.13241665193046967  0.8219299666061418  1.0000
  C   C6        1.0  0.20859595149548235  0.8623597412307756  0.1732189547561447  1.0000
  C   C7        1.0  0.8655324215552014  0.13354544020739206  0.8697648065344056  1.0000
  C   C8        1.0  0.36600653425738033  0.8710056302464724  0.1325399231310058  1.0000
  C   C9        1.0  0.0043426883281228  0.18308601369677294  0.8730052226888959  1.0000
  C   C10       1.0  0.5336087108460817  0.830882730804454  0.1362727629174998  1.0000
  C   C11       1.0  0.0110675088928076  0.23310216854419963  0.8283347624266852  1.0000
  C   C12       1.0  0.5407392460927198  0.7800986344339194  0.18016003236106573  1.0000
  C   C13       1.0  0.8793883730225218  0.23326323400968363  0.7789833756411115  1.0000
  C   C14       1.0  0.3834457724296386  0.7711152800805932  0.2230435790352203  1.0000
  C   C15       1.0  0.7388616547191731  0.18144172877862996  0.7760936525218582  1.0000
  C   C16       1.0  0.2151410897246606  0.8143007904607342  0.21983748383277657  1.0000
  C   C17       1.0  0.15162282130205543  0.2844513831087737  0.8284832710315585  1.0000
  C   C18       1.0  0.7017383902105294  0.7347414312046396  0.18407620947196787  1.0000
  C   C19       1.0  0.16399342385629723  0.3333058707097862  0.7854158906225593  1.0000
  C   C20       1.0  0.7137205255968482  0.6847009872376829  0.22586761817416354  1.0000
  C   C21       1.0  0.031665564214087304  0.33496748424557404  0.7361932168230324  1.0000
  C   C22       1.0  0.5608552869565457  0.6758102707927094  0.2702156793242665  1.0000
  C   C23       1.0  0.8925973995664549  0.28344218749780475  0.7329256793693801  1.0000
  C   C24       1.0  0.3957557897997504  0.719821721257823  0.2679273680418249  1.0000
  C   C25       1.0  0.7610770213409808  0.2823624162498816  0.683689174187485  1.0000
  C   C26       1.0  0.23668857118794762  0.7119641666167738  0.3101307171822398  1.0000
  C   C27       1.0  0.6253502621060465  0.22980825504923524  0.6825841295175863  1.0000
  C   C28       1.0  0.07473112754851031  0.7567157354952626  0.30670372553133524  1.0000
  C   C29       1.0  0.6083717872759494  0.17994556182621582  0.7254988369262207  1.0000
  C   C30       1.0  0.05572166523803192  0.8074356550112325  0.26418805331404377  1.0000
  C   C31       1.0  0.0317295435922631  0.38782161813641386  0.6919505032742848  1.0000
  C   C32       1.0  0.5690570990219044  0.6239028663706067  0.3150243020892702  1.0000
  C   C33       1.0  0.9047310221643272  0.38404919022755024  0.6423856044595411  1.0000
  C   C34       1.0  0.41042219267088603  0.6179601799306268  0.3570959175326395  1.0000
  C   C35       1.0  0.7705895574346401  0.33260041556719944  0.639526471806704  1.0000
  C   C36       1.0  0.24691111945350033  0.6605388321777852  0.35338139830378174  1.0000
  C   C37       1.0  0.6609097971246671  0.20449801674826765  0.25524840543018007  1.0000
  C   C38       1.0  0.1615049477616637  0.8090344800190223  0.7449444309325345  1.0000
  C   C39       1.0  0.026184863846040705  0.18771591538077104  0.24587276516175643  1.0000
  C   C40       1.0  0.5259696192551999  0.8083628160972723  0.75010476319747  1.0000
  C   C41       1.0  0.0778701247449618  0.23920439550803246  0.2894013566033635  1.0000
  C   C42       1.0  0.5502018306156558  0.7551339020854898  0.7060657340732137  1.0000
  C   C43       1.0  0.9263695739225923  0.36893837255436773  0.3827019723559317  1.0000
  C   C44       1.0  0.4098897234383472  0.6303487279224527  0.6166898358511261  1.0000
  C   C45       1.0  0.837796801302922  0.20736453960951454  0.20993360187412688  1.0000
  C   C46       1.0  0.336296795702701  0.7966173915127258  0.7883492194089213  1.0000
  C   C47       1.0  0.6982442449285031  0.2456556214884813  0.31254191417936994  1.0000
  C   C48       1.0  0.17624265867143413  0.7659565550587928  0.686622336606078  1.0000
  C   C49       1.0  0.8983028805815466  0.28659985682649136  0.2960574044091544  1.0000
  C   C50       1.0  0.35647237539978965  0.7157471602160185  0.7006832113196922  1.0000
  C   C51       1.0  0.8977638071541706  0.3265217214739237  0.23297093614066713  1.0000
  C   C52       1.0  0.3367777814178084  0.6756272075171594  0.7630460295551347  1.0000
  C   C53       1.0  0.8637479500567411  0.2787207087226307  0.18039457785196336  1.0000
  C   C54       1.0  0.3388369218164017  0.7239210171385082  0.816388145969029  1.0000
  C   C55       1.0  0.9238989406752297  0.3310266703085247  0.3430495565531473  1.0000
  C   C56       1.0  0.38279573168399855  0.6700382427046634  0.6542163748134869  1.0000
  C   C57       1.0  0.8158035122635712  0.1618929593838558  0.1634105800616084  1.0000
  C   C58       1.0  0.3303419060782247  0.8411851847700265  0.8361276374582901  1.0000
  C   C59       1.0  0.8275185893900102  0.12395480708188698  0.12386967470816761  1.0000
  C   C60       1.0  0.343744456684  0.8776819987701147  0.8765896585303282  1.0000
  C   C61       1.0  0.35555469293918673  0.9225219871703485  0.08351621048478108  1.0000
  C   C62       1.0  0.8562722988608229  0.0818883417064171  0.9187400598766474  1.0000
  C   C63       1.0  0.3515043998678636  0.9220036210257307  0.9241498713986688  1.0000
  C   C64       1.0  0.8417006861370596  0.0781348981546088  0.0774615510722754  1.0000
  C   C65       1.0  0.21055783196885614  0.2706077761499586  0.1326337775827682  1.0000
  C   C66       1.0  0.6999213704136337  0.7115774501708503  0.8518370845204829  1.0000
  C   C67       1.0  0.455655377548176  0.3457406661743647  0.3106808407591616  1.0000
  C   C68       1.0  0.9578139026378665  0.6735995027818547  0.6495461345849308  1.0000
  C   C69       1.0  0.0818164081070165  0.4175482662319963  0.1814430863771861  1.0000
  C   C70       1.0  0.46773600031711743  0.5741351872528142  0.8134355923667442  1.0000
  C   C71       1.0  0.07650721778149012  0.5081548636672651  0.6860999451984072  1.0000
  C   C72       1.0  0.6891280662671448  0.5103537994399828  0.3109810013295018  1.0000
  C   C73       1.0  0.3088940179747226  0.1179255079321493  0.7583545800344992  1.0000
  C   C74       1.0  0.7384698186511615  0.8576336782442624  0.30328035871595194  1.0000
  C   C75       1.0  0.5882747012962568  0.16493847942981432  0.3950672040330474  1.0000
  C   C76       1.0  0.22524899596443504  0.7905098247056299  0.5764795692739426  1.0000
  N   N1        1.0  0.9986766211269398  0.2861737879885026  0.13083302525713947  1.0000
  N   N2        1.0  0.4844864857154932  0.7090578645274802  0.8608500143425317  1.0000
  N   N3        1.0  0.5245493670059959  0.2812476693911846  0.3314996248891616  1.0000
  N   N4        1.0  0.9884032324840107  0.7348522032517195  0.6783566809488164  1.0000
  N   N5        1.0  0.07163449628390592  0.36386879656591015  0.22703528925506328  1.0000
  N   N6        1.0  0.48300130296987487  0.6264055932259183  0.7667389962590788  1.0000
  N   N7        1.0  0.14536058821040854  0.44171988218272407  0.7004386819275866  1.0000
  N   N8        1.0  0.7267575515082714  0.5799588691660986  0.31557339967431375  1.0000
  N   N9        1.0  0.481859501546765  0.12705038371574773  0.7183177796095704  1.0000
  N   N10       1.0  0.8996229071165658  0.8504218218017314  0.26062644286101744  1.0000
  N   N11       1.0  0.7439877365565835  0.20433469816551053  0.36522247396229807  1.0000
  N   N12       1.0  0.2114000608319131  0.8127941984957447  0.6369258422196395  1.0000
  O   O1        1.0  0.5784955542794777  0.5562060088127082  0.4341059761113044  1.0000
  O   O2        1.0  0.08186045330035802  0.4501420628706469  0.5698357636986556  1.0000
  O   O3        1.0  0.2497222156423433  0.5694190122531778  0.5492925361810137  1.0000
  O   O4        1.0  0.7484163454284031  0.43481870486107965  0.44404402693119494  1.0000
  O   O5        1.0  0.24437536166988852  0.5512074206130536  0.4300536938774115  1.0000
  O   O6        1.0  0.7478735409860634  0.4436213265453049  0.5638961686388697  1.0000
  O   O7        1.0  0.08676351345405922  0.43114605840860765  0.44965263428748165  1.0000
  O   O8        1.0  0.5878508010096652  0.5636695777997787  0.5554510700006219  1.0000
  O   O9        1.0  0.4148832606677288  0.46096029418782075  0.5059131873640014  1.0000
  O   O10       1.0  0.9138865723342634  0.5395166794659828  0.492305110305388  1.0000
  O   O11       1.0  0.1843631177913068  0.939917185094494  0.9450438676862662  1.0000
  O   O12       1.0  0.6793544757461518  0.0615523765390478  0.054822155048306315  1.0000
  O   O13       1.0  0.5206851812337873  0.9411102081438971  0.06085046348874099  1.0000
  O   O14       1.0  0.020419016395827303  0.066104628570848  0.9432864824743846  1.0000
  O   O15       1.0  0.5232885857201454  0.9384153802031676  0.9406901406376136  1.0000
  O   O16       1.0  0.015480934985063801  0.059203557595886004  0.0633788217638838  1.0000
  O   O17       1.0  0.6856888315494984  0.059026214395117904  0.9328660863727835  1.0000
  O   O18       1.0  0.1846827832720805  0.9428427599568534  0.0672580956846573  1.0000
  O   O19       1.0  0.352381892422585  0.04026421883393282  0.9966570664539987  1.0000
  O   O20       1.0  0.8547807847655947  0.9612211626028542  0.001144216512386701  1.0000
  F   F1        1.0  0.6359558238710862  0.1387973503233724  0.2723315499786736  1.0000
  F   F2        1.0  0.1622183131018886  0.8752996897097844  0.7283579502440888  1.0000
  F   F3        1.0  0.13322713650834572  0.2076940645243609  0.34438090694926876  1.0000
  F   F4        1.0  0.6073118432944754  0.783830975168442  0.6494154378160246  1.0000
  F   F5        1.0  0.6805198522465261  0.2946647362361147  0.15384294550179334  1.0000
  F   F6        1.0  0.15980801940435896  0.7169500459026494  0.8487869809392166  1.0000
  F   F7        1.0  0.7290906632289664  0.3693020835973826  0.23118001353191886  1.0000
  F   F8        1.0  0.1416993813647807  0.6473690866663944  0.7656647172964667  1.0000
  F   F9        1.0  0.48616524702136127  0.22253790593356376  0.22822153784617435  1.0000
  F   F10       1.0  0.9836999657831528  0.7993192013202446  0.7737919279813069  1.0000
  F   F11       1.0  0.2815100139001744  0.28342115236570464  0.8746445102006533  1.0000
  F   F12       1.0  0.85036672574892  0.742501451366003  0.1425584480668576  1.0000
  F   F13       1.0  0.5032290057887465  0.22906271421213384  0.6342177017165583  1.0000
  F   F14       1.0  0.9281389082106274  0.7468272642683901  0.34928309894309717  1.0000
