data_image0
_chemical_formula_structural       Na4H52C72O4
_chemical_formula_sum              "Na4 H52 C72 O4"
_cell_length_a       6.179275588
_cell_length_b       11.56783587638959
_cell_length_c       18.056
_cell_angle_alpha    90.7685690685296
_cell_angle_beta     90.0
_cell_angle_gamma    90.0

_space_group_name_H-M_alt    "P 1"
_space_group_IT_number       1

loop_
  _space_group_symop_operation_xyz
  'x, y, z'

loop_
  _atom_site_type_symbol
  _atom_site_label
  _atom_site_symmetry_multiplicity
  _atom_site_fract_x
  _atom_site_fract_y
  _atom_site_fract_z
  _atom_site_occupancy
  Na  Na1       1.0  0.17720685611214293  0.4149144112390601  0.4633690199628262  1.0000
  Na  Na2       1.0  0.6772169229879665  0.5850808207159162  0.036631326745016686  1.0000
  Na  Na3       1.0  0.8227825296986921  0.5850790916285007  0.5366213429004602  1.0000
  Na  Na4       1.0  0.3227837910115881  0.4149204630450356  0.9633773794577608  1.0000
  H   H1        1.0  0.2342264848667241  0.5771667875887658  0.3144648448676222  1.0000
  H   H2        1.0  0.7342511165566067  0.42283708980332346  0.18552449948568744  1.0000
  H   H3        1.0  0.7657661375694573  0.42284487069671434  0.6855145973666052  1.0000
  H   H4        1.0  0.2657398875669017  0.5771762975695864  0.814482095401253  1.0000
  H   H5        1.0  0.152860960244972  0.3781030045839344  0.2683899595099817  1.0000
  H   H6        1.0  0.6528548439940495  0.6218904982836264  0.2316037263484246  1.0000
  H   H7        1.0  0.8471462270052755  0.6219069246141231  0.7315927908601907  1.0000
  H   H8        1.0  0.3471458700054982  0.3781194309144382  0.7684056079827569  1.0000
  H   H9        1.0  0.4231790543665284  0.2228491095718184  0.2878388805817949  1.0000
  H   H10       1.0  0.9231777930536254  0.7771469869268728  0.212158150560505  1.0000
  H   H11       1.0  0.5768103314443067  0.7771556323639786  0.7121443790433659  1.0000
  H   H12       1.0  0.0768342491346417  0.2228577550089241  0.7878516930256652  1.0000
  H   H13       1.0  0.8879956755215659  0.245149150043936  0.4707609137220246  1.0000
  H   H14       1.0  0.3880228298372472  0.7548521337170159  0.0292372696628505  1.0000
  H   H15       1.0  0.1119856187258961  0.7548538628044384  0.5292389460195963  1.0000
  H   H16       1.0  0.6119730292242807  0.2451284009948864  0.9707640584070204  1.0000
  H   H17       1.0  0.1755642687480687  0.0971098722970751  0.46378700972279324  1.0000
  H   H18       1.0  0.6755727173112122  0.9029009214447044  0.0362184552103315  1.0000
  H   H19       1.0  0.8244170254994003  0.9028983278135669  0.5362228635817345  1.0000
  H   H20       1.0  0.3244312333136889  0.09708307144204302  0.9637757027551217  1.0000
  H   H21       1.0  0.2573602645410915  0.9967488703215467  0.343781708681945  1.0000
  H   H22       1.0  0.7573573849155224  0.0032601943328032  0.156225402889568  1.0000
  H   H23       1.0  0.7426275029570634  0.0032524134394052  0.6562281051858745  1.0000
  H   H24       1.0  0.24266436714879092  0.9967367667095957  0.8437672050221536  1.0000
  H   H25       1.0  0.047152776381395305  0.0467942928818275  0.23129712727313026  1.0000
  H   H26       1.0  0.5471466601304797  0.9532035327042865  0.2687054570535636  1.0000
  H   H27       1.0  0.9528786855589574  0.9532069908791315  0.7687010561117518  1.0000
  H   H28       1.0  0.452909076499985  0.0467986156003803  0.731294395258466  1.0000
  H   H29       1.0  0.765421436969902  0.1984819450875719  0.23770867567420587  1.0000
  H   H30       1.0  0.2654146067194318  0.8015202032170947  0.2622867459776543  1.0000
  H   H31       1.0  0.2346116432831309  0.8015271195667779  0.7622845900842845  1.0000
  H   H32       1.0  0.7346378932856865  0.19848540326241704  0.7377159052153317  1.0000
  H   H33       1.0  0.2533468491096542  0.6867831492038832  0.43379076655475046  1.0000
  H   H34       1.0  0.753381190675583  0.3131939273331739  0.0661989013138324  1.0000
  H   H35       1.0  0.7466328268251345  0.3131965209643042  0.5661956006074718  1.0000
  H   H36       1.0  0.2466017218845522  0.6868056273403624  0.9338142206899391  1.0000
  H   H37       1.0  0.3200116214010791  0.896010508070944  0.4549740397931927  1.0000
  H   H38       1.0  0.8200572911557273  0.10396916209725052  0.0450256193495306  1.0000
  H   H39       1.0  0.6799567263449902  0.10397089118467312  0.5450239727111494  1.0000
  H   H40       1.0  0.17993209465510773  0.8960355798385464  0.9549797935764701  1.0000
  H   H41       1.0  0.6780681554544685  0.9822115678272212  0.4206721766916813  1.0000
  H   H42       1.0  0.17811472952224253  0.0177784768654945  0.0793314484337486  1.0000
  H   H43       1.0  0.3219018106042739  0.0177879868463151  0.579338176149477  1.0000
  H   H44       1.0  0.8218795112266193  0.9822176196331968  0.9206628135459453  1.0000
  H   H45       1.0  0.9714455868673895  0.8537585278447892  0.3740742772203163  1.0000
  H   H46       1.0  0.4714840693717903  0.1462418913724548  0.1259277755626158  1.0000
  H   H47       1.0  0.028547035568792  0.1462557240718283  0.6259434017466248  1.0000
  H   H48       1.0  0.5285214995657839  0.8537498824076835  0.8740636801065305  1.0000
  H   H49       1.0  0.9053407507611553  0.6432187916249887  0.3560941698183483  1.0000
  H   H50       1.0  0.4053727600148562  0.3567859503108082  0.14390127412227824  1.0000
  H   H51       1.0  0.09466158155107252  0.3568032411850197  0.6439136070295175  1.0000
  H   H52       1.0  0.594632808922718  0.6432023652944849  0.8560929209911166  1.0000
  C   C1        1.0  0.6751098798864562  0.4372205035171532  0.3906259522523925  1.0000
  C   C2        1.0  0.17512732432609823  0.562779051156383  0.1093733239383496  1.0000
  C   C3        1.0  0.3248843608623986  0.5627773220689605  0.6093627862612719  1.0000
  C   C4        1.0  0.8248766262988028  0.43722569077942103  0.8906365196478278  1.0000
  C   C5        1.0  0.5265423031655203  0.5287514752495  0.3716673006291558  1.0000
  C   C6        1.0  0.026577549044574805  0.4712428921617686  0.1283241773287571  1.0000
  C   C7        1.0  0.4734470826453148  0.4712480794240363  0.6283114837583099  1.0000
  C   C8        1.0  0.9734264015803262  0.528762714317736  0.8716873351845678  1.0000
  C   C9        1.0  0.3418216213081422  0.5058367441991223  0.32845753046561293  1.0000
  C   C10       1.0  0.8418494896233781  0.4941584877558611  0.17153617025197573  1.0000
  C   C11       1.0  0.6581790926914054  0.4941697268240972  0.6715251901862018  1.0000
  C   C12       1.0  0.1581544610015229  0.5058497123547809  0.8284737030525591  1.0000
  C   C13       1.0  0.2988279084988434  0.3951250057026244  0.3003710878245371  1.0000
  C   C14       1.0  0.7988217922479208  0.6048771426020423  0.199627102989929  1.0000
  C   C15       1.0  0.7011744238133845  0.6048875171265635  0.6996111310018802  1.0000
  C   C16       1.0  0.2011724485009339  0.3951293284211772  0.8003827554554234  1.0000
  C   C17       1.0  0.45138462596111145  0.3083559407284611  0.3121115787691053  1.0000
  C   C18       1.0  0.9513946928369279  0.6916496657510507  0.18788498026614764  1.0000
  C   C19       1.0  0.548622561289136  0.6916565821007339  0.6878706400573121  1.0000
  C   C20       1.0  0.0486157310386659  0.3083568052721688  0.8121259858442471  1.0000
  C   C21       1.0  0.6395296574366043  0.3265796576049382  0.3544015499408245  1.0000
  C   C22       1.0  0.1395503385015857  0.6734207616123129  0.1455916415217686  1.0000
  C   C23       1.0  0.36045487343621124  0.6734190325248903  0.645581657677212  1.0000
  C   C24       1.0  0.8604600853740082  0.3265839803234911  0.8544187558969227  1.0000
  C   C25       1.0  0.8049034112766976  0.2341374568015837  0.35480064282008766  1.0000
  C   C26       1.0  0.3049305655923789  0.7658560460659772  0.1452019043586574  1.0000
  C   C27       1.0  0.1950875928468108  0.7658560460659772  0.6451996890285727  1.0000
  C   C28       1.0  0.6950879498465881  0.2341409149764218  0.8548017802034877  1.0000
  C   C29       1.0  0.924236169542404  0.2030614331228051  0.4179529482384438  1.0000
  C   C30       1.0  0.4242584689200655  0.7969355279195938  0.0820474133285742  1.0000
  C   C31       1.0  0.075743506392385  0.7969389860944389  0.5820502122095303  1.0000
  C   C32       1.0  0.5757487183301819  0.20305278768569932  0.9179501047799549  1.0000
  C   C33       1.0  0.0846830656033859  0.1181960933994617  0.4140241544763228  1.0000
  C   C34       1.0  0.5847044606679219  0.8818000030992367  0.08598173798631589  1.0000
  C   C35       1.0  0.9153095568327956  0.8818051903614972  0.5859806748988062  1.0000
  C   C36       1.0  0.41531405477104505  0.11818053161266562  0.9140162670884352  1.0000
  C   C37       1.0  0.1297563101987365  0.0615390858667055  0.3470419160022544  1.0000
  C   C38       1.0  0.6297760869505993  0.9384561460882708  0.1529667381934061  1.0000
  C   C39       1.0  0.8702427854881449  0.9384630624379612  0.6529656899650716  1.0000
  C   C40       1.0  0.3702472834263872  0.061534763148152614  0.8470308022038893  1.0000
  C   C41       1.0  0.0111242813208534  0.089533011217064  0.2840337045165881  1.0000
  C   C42       1.0  0.5111553862614358  0.9104570334756518  0.21597102827388429  1.0000
  C   C43       1.0  0.9888812876167208  0.9104622207379123  0.7159638730286487  1.0000
  C   C44       1.0  0.48889387711833626  0.0895399275667543  0.78403099479069  1.0000
  C   C45       1.0  0.8515917319206636  0.1745833632944951  0.28794691940254313  1.0000
  C   C46       1.0  0.3516237411743646  0.825405816854513  0.2120528214656545  1.0000
  C   C47       1.0  0.148408982078891  0.8254110041167806  0.7120512045456238  1.0000
  C   C48       1.0  0.6484125757040147  0.1745997896249918  0.787944845234648  1.0000
  C   C49       1.0  0.5733762719501456  0.6503581935874152  0.3925533966451268  1.0000
  C   C50       1.0  0.0734050445785073  0.34963444473643784  0.1074380664536108  1.0000
  C   C51       1.0  0.4266050222973163  0.3496396319986986  0.6074331265384529  1.0000
  C   C52       1.0  0.9265875778576813  0.6503694326556513  0.8925712158704541  1.0000
  C   C53       1.0  0.4109170992358742  0.7237683291448462  0.42071250334118554  1.0000
  C   C54       1.0  0.9109660056158688  0.2762191219167391  0.07928279200766748  1.0000
  C   C55       1.0  0.5890544851355486  0.2762208510041617  0.5792850221969273  1.0000
  C   C56       1.0  0.0890282351329859  0.7237873491064805  0.9207248511076002  1.0000
  C   C57       1.0  0.44841340389170636  0.8417750874716745  0.4319498069892376  1.0000
  C   C58       1.0  0.9484542187083278  0.1582054472402206  0.06804542892290037  1.0000
  C   C59       1.0  0.5515808368571484  0.1582132281336186  0.5680515879469326  1.0000
  C   C60       1.0  0.0515481136038929  0.841793242889601  0.9319610396610255  1.0000
  C   C61       1.0  0.6491213966552111  0.8895393983968347  0.41425327646383886  1.0000
  C   C62       1.0  0.1491582608469315  0.11044978175216612  0.0857520027295706  1.0000
  C   C63       1.0  0.3508760807189972  0.1104636144515396  0.5857609829233253  1.0000
  C   C64       1.0  0.85083436158925  0.8895445856591024  0.9142477827161598  1.0000
  C   C65       1.0  0.8144530743657796  0.8170413564541192  0.3880526061230043  1.0000
  C   C66       1.0  0.3144834653068074  0.18295906276312482  0.11194612366480779  1.0000
  C   C67       1.0  0.1855411663830751  0.1829668436565157  0.6119544980189245  1.0000
  C   C68       1.0  0.685507538816701  0.8170404919104116  0.8880542601909766  1.0000
  C   C69       1.0  0.7783226256067763  0.6989273947071767  0.3782831450517605  1.0000
  C   C70       1.0  0.2783627264238504  0.3010764826849126  0.12171062996171861  1.0000
  C   C71       1.0  0.22166190526603913  0.3010877217531558  0.6217179263691435  1.0000
  C   C72       1.0  0.7216396058883774  0.6989196138137787  0.8782891703431872  1.0000
  O   O1        1.0  0.8330895631191879  0.45646524651589  0.4373337584684406  1.0000
  O   O2        1.0  0.3331053892461568  0.5435317145265159  0.06265774177823859  1.0000
  O   O3        1.0  0.1668852578775741  0.5435256627205405  0.5626565821060794  1.0000
  O   O4        1.0  0.6668710500632856  0.4564669756033126  0.9373448499780395  1.0000
