data_image0
_chemical_formula_structural       Co2H16C20N20
_chemical_formula_sum              "Co2 H16 C20 N20"
_cell_length_a       6.350395229959309
_cell_length_b       7.268244930309496
_cell_length_c       13.55123523633719
_cell_angle_alpha    90.00083042497921
_cell_angle_beta     89.99986938720274
_cell_angle_gamma    96.07910511868059

_space_group_name_H-M_alt    "P 1"
_space_group_IT_number       1

loop_
  _space_group_symop_operation_xyz
  'x, y, z'

loop_
  _atom_site_type_symbol
  _atom_site_label
  _atom_site_symmetry_multiplicity
  _atom_site_fract_x
  _atom_site_fract_y
  _atom_site_fract_z
  _atom_site_occupancy
  Co  Co1       1.0  8.434203650182703e-06  0.49999882821132496  1.3274466679999985e-07  1.0000
  Co  Co2       1.0  0.9999958568841691  7.414501126799971e-06  0.5000001927825295  1.0000
  H   H1        1.0  0.5196206811409283  0.5466765344975144  0.7082125219559714  1.0000
  H   H2        1.0  0.4803674613923262  0.9533234403274449  0.2082095693765851  1.0000
  H   H3        1.0  0.4803812000382806  0.4533252765949812  0.2917888848589243  1.0000
  H   H4        1.0  0.5196328432002417  0.046678354373099806  0.7917955271399251  1.0000
  H   H5        1.0  0.5577239036889026  0.5675531333165935  0.8985612770035303  1.0000
  H   H6        1.0  0.44227896670336964  0.9324423288215584  0.3985589506809716  1.0000
  H   H7        1.0  0.4422978149454621  0.43242815495919024  0.1014386538349612  1.0000
  H   H8        1.0  0.557711878369048  0.06755936720693262  0.601443932021631  1.0000
  H   H9        1.0  0.8500233093681687  0.45351651493496087  0.6274583880236762  1.0000
  H   H10       1.0  0.14996850846026888  0.04648117908217841  0.1274563549348358  1.0000
  H   H11       1.0  0.14997961469821058  0.5464949807576502  0.3725341635478046  1.0000
  H   H12       1.0  0.8500376555272665  0.9535165306904219  0.8725413621600636  1.0000
  H   H13       1.0  0.1336910712113095  0.4200260650281891  0.7813775807328581  1.0000
  H   H14       1.0  0.8662964055182697  0.0799645772289992  0.2813851131326359  1.0000
  H   H15       1.0  0.8663132804578522  0.5799840635642609  0.2186142328920297  1.0000
  H   H16       1.0  0.1336978284591268  0.9200247163327688  0.718617031577935  1.0000
  C   C1        1.0  0.6778164576335399  0.5311541811583568  0.8472985596720407  1.0000
  C   C2        1.0  0.3221871563641584  0.9688468500518467  0.3472974349436413  1.0000
  C   C3        1.0  0.3221935422107123  0.4688352767888802  0.1527021091476044  1.0000
  C   C4        1.0  0.6778003865509845  0.0311534295647249  0.6527054477557  1.0000
  C   C5        1.0  0.8347728132462109  0.4726757989014986  0.7061568362733794  1.0000
  C   C6        1.0  0.16521841066415277  0.027318431520960505  0.2061671732700603  1.0000
  C   C7        1.0  0.16523912338852403  0.5273316447635636  0.2938298117545699  1.0000
  C   C8        1.0  0.8347858787689404  0.9726764947880966  0.7938334955755195  1.0000
  C   C9        1.0  0.9730158206457132  0.4561595943968726  0.7827091016771064  1.0000
  C   C10       1.0  0.026978111448542598  0.04383253207796398  0.282708700699942  1.0000
  C   C11       1.0  0.02700956034983899  0.5438410796943529  0.21728640159543738  1.0000
  C   C12       1.0  0.9730078548798531  0.9561677310398835  0.7172897543598111  1.0000
  C   C13       1.0  0.2880706959146053  0.868270826671541  0.9286713656568182  1.0000
  C   C14       1.0  0.7119227157293861  0.6317253289496352  0.4286692025293418  1.0000
  C   C15       1.0  0.7119102671974389  0.1316975987553093  0.0713241375190776  1.0000
  C   C16       1.0  0.2880702151175925  0.36829573651204583  0.5713336802490474  1.0000
  C   C17       1.0  0.23349676441586814  0.1748212455264593  0.9373327929233639  1.0000
  C   C18       1.0  0.7664994064005556  0.32519570177235824  0.4373387363897407  1.0000
  C   C19       1.0  0.7664799781240887  0.8251664836784086  0.0626708276737915  1.0000
  C   C20       1.0  0.23349337546251553  0.6748239801486734  0.5626634084431217  1.0000
  N   N1        1.0  0.8734996659720763  0.4933180885700636  0.8700305126647192  1.0000
  N   N2        1.0  0.12649757051784152  0.006677751526623899  0.3700296716762566  1.0000
  N   N3        1.0  0.12651393399710287  0.5066755527053813  0.12995908706739098  1.0000
  N   N4        1.0  0.8734948511412526  0.9933239609326492  0.629972473085175  1.0000
  N   N5        1.0  0.6505203377595661  0.5192209325681247  0.7482957488446116  1.0000
  N   N6        1.0  0.34946637819838605  0.9807814638359817  0.2482924661826189  1.0000
  N   N7        1.0  0.34948424964139246  0.4807767608804667  0.25171082353266166  1.0000
  N   N8        1.0  0.6505271730956891  0.0192161144612513  0.7517089406213913  1.0000
  N   N9        1.0  0.2628307863461714  0.7088469214258382  0.947205589450391  1.0000
  N   N10       1.0  0.737172147529371  0.7911650229713204  0.4472142554223524  1.0000
  N   N11       1.0  0.7371735898345688  0.29113418594633345  0.052789913759227085  1.0000
  N   N12       1.0  0.2628275366161006  0.2088602589033854  0.5527930550086424  1.0000
  N   N13       1.0  0.3300979440136942  0.0405864321217706  0.9012144470053726  1.0000
  N   N14       1.0  0.6699141407275205  0.45943111280632815  0.40121126979889976  1.0000
  N   N15       1.0  0.6698945643931535  0.9594014615073903  0.09879064946128577  1.0000
  N   N16       1.0  0.3300877159401736  0.5405997195743949  0.5987916130120254  1.0000
  N   N17       1.0  0.1554253884379477  0.30530223963364017  0.9644106062351624  1.0000
  N   N18       1.0  0.8445842274333657  0.19470865040871388  0.4644227752455805  1.0000
  N   N19       1.0  0.8445780938395159  0.694670566659646  0.0355930142831724  1.0000
  N   N20       1.0  0.15540816971423507  0.8053220833679049  0.535583059332204  1.0000
