data_image0
_chemical_formula_structural       Al4H16C32O20F4
_chemical_formula_sum              "Al4 H16 C32 O20 F4"
_cell_length_a       6.712595460764129
_cell_length_b       12.885793574610627
_cell_length_c       16.90655218643203
_cell_angle_alpha    90.02957178539194
_cell_angle_beta     90.6142667390848
_cell_angle_gamma    90.54973519621689

_space_group_name_H-M_alt    "P 1"
_space_group_IT_number       1

loop_
  _space_group_symop_operation_xyz
  'x, y, z'

loop_
  _atom_site_type_symbol
  _atom_site_label
  _atom_site_symmetry_multiplicity
  _atom_site_fract_x
  _atom_site_fract_y
  _atom_site_fract_z
  _atom_site_occupancy
  Al  Al1       1.0  0.9910152608927517  0.0003976625957519998  0.4998142721149178  1.0000
  Al  Al2       1.0  0.49053240200298376  0.00014632313273210017  0.4981154045544827  1.0000
  Al  Al3       1.0  0.009326921825746097  0.5023844013833452  0.9985008711862874  1.0000
  Al  Al4       1.0  0.5093248361396547  0.49881373226574516  0.9986242910443365  1.0000
  H   H1        1.0  0.23997831563607264  0.8697226501054232  0.5275375244353881  1.0000
  H   H2        1.0  0.7429900623539039  0.1376300379319844  0.5054981011178938  1.0000
  H   H3        1.0  0.26642320123042407  0.634028068672599  0.0200816298120898  1.0000
  H   H4        1.0  0.7625818120686816  0.3675912380954428  0.0218165151546472  1.0000
  H   H5        1.0  0.066001228128151  0.7186916910000462  0.8189847222181399  1.0000
  H   H6        1.0  0.43456407641108535  0.6623433608883003  0.7971902650222731  1.0000
  H   H7        1.0  0.0512740888749903  0.831227603109447  0.6979543750734007  1.0000
  H   H8        1.0  0.5737681398555097  0.2923541421713551  0.18719910544446344  1.0000
  H   H9        1.0  0.9355731526584847  0.3216245539469753  0.19151698894371794  1.0000
  H   H10       1.0  0.557370403987754  0.17863683783967588  0.3071281504442068  1.0000
  H   H11       1.0  0.9300730476729697  0.31339668633908957  0.8038868423742969  1.0000
  H   H12       1.0  0.5697914906429347  0.2994013762680794  0.8170850370295  1.0000
  H   H13       1.0  0.9347530275436071  0.20155331741886323  0.6824181598092733  1.0000
  H   H14       1.0  0.078063074612146  0.704918569172861  0.19239424579745898  1.0000
  H   H15       1.0  0.4374693316909486  0.685394192442473  0.1848010640033806  1.0000
  H   H16       1.0  0.057852696914714806  0.8158233828908124  0.31376949686957534  1.0000
  C   C1        1.0  0.7400832466895152  0.8792474785316599  0.3906467170752136  1.0000
  C   C2        1.0  0.7359834071427898  0.8789968665266343  0.6082813073105412  1.0000
  C   C3        1.0  0.24462055419380135  0.12295041360252405  0.6074476717174804  1.0000
  C   C4        1.0  0.2425436032533952  0.11906677005418942  0.3893505704075507  1.0000
  C   C5        1.0  0.7652492373032586  0.6233668106368953  0.10756109569224039  1.0000
  C   C6        1.0  0.7542454816219077  0.6186685564885508  0.888534177881368  1.0000
  C   C7        1.0  0.24982518739142986  0.38013615876614887  0.8899458598691081  1.0000
  C   C8        1.0  0.2613244895552995  0.3794913786019832  0.10872428976170308  1.0000
  C   C9        1.0  0.7374435266610248  0.8101096277498956  0.6793494820450832  1.0000
  C   C10       1.0  0.7512344587687564  0.6850230804774995  0.8161426202830383  1.0000
  C   C11       1.0  0.5660885805100192  0.7605001888748929  0.7085779002505175  1.0000
  C   C12       1.0  0.9257907279877741  0.7317103699290683  0.7877363423939696  1.0000
  C   C13       1.0  0.5702509296547973  0.6994888812838055  0.7760292170440407  1.0000
  C   C14       1.0  0.917499004155509  0.7936842864114269  0.7205520714632029  1.0000
  C   C15       1.0  0.2410145697339132  0.1871543564261771  0.3177248536758981  1.0000
  C   C16       1.0  0.2559608323582836  0.3129880266131693  0.18107246321278575  1.0000
  C   C17       1.0  0.0681201791394628  0.22930723245531223  0.283684998030985  1.0000
  C   C18       1.0  0.4316887015079729  0.2734210268879309  0.21432778177058504  1.0000
  C   C19       1.0  0.0729677350433917  0.29054547149426907  0.2162531879298655  1.0000
  C   C20       1.0  0.4227982691175569  0.2109164303563276  0.281068102540587  1.0000
  C   C21       1.0  0.2518262793059733  0.18876618817576943  0.680398726635971  1.0000
  C   C22       1.0  0.2491297276591524  0.31339858141829774  0.8177325661353831  1.0000
  C   C23       1.0  0.42865239822779694  0.21733615442118998  0.720231850407714  1.0000
  C   C24       1.0  0.06966818462466759  0.2858622336156955  0.7797375792803222  1.0000
  C   C25       1.0  0.42988687178136326  0.2786432663875189  0.7876954791947026  1.0000
  C   C26       1.0  0.07246293620998051  0.2242986268627902  0.7123351073480391  1.0000
  C   C27       1.0  0.7401770134126693  0.8124958876408144  0.3181602870479239  1.0000
  C   C28       1.0  0.7593040808692207  0.6890807281283101  0.18029809950036924  1.0000
  C   C29       1.0  0.5675417154544745  0.7741131448530678  0.28030585100599836  1.0000
  C   C30       1.0  0.9346572443246685  0.725308868781582  0.217160168705  1.0000
  C   C31       1.0  0.5746073359988627  0.7138361764635447  0.21242900113817595  1.0000
  C   C32       1.0  0.9237294967777884  0.7863702835885956  0.2846262271186433  1.0000
  O   O1        1.0  0.9103914816320396  0.9103714801832722  0.4151349355086466  1.0000
  O   O2        1.0  0.5678964913391837  0.9113149885090693  0.5840364329407561  1.0000
  O   O3        1.0  0.40812138258038994  0.1036585790807081  0.5734094417271932  1.0000
  O   O4        1.0  0.07790994189576142  0.09904469380209951  0.4225818126610434  1.0000
  O   O5        1.0  0.0719544588565171  0.09225762007437051  0.5848945335643518  1.0000
  O   O6        1.0  0.4124788435241484  0.08652286302384479  0.41171951132728407  1.0000
  O   O7        1.0  0.5740536506375377  0.8992559961861558  0.4222917266199672  1.0000
  O   O8        1.0  0.9044948823717149  0.9003135703940897  0.5779160810576939  1.0000
  O   O9        1.0  0.2394614309948437  0.9367140855259065  0.50139803662843  1.0000
  O   O10       1.0  0.7420569301714365  0.0630062975362193  0.4988819008758298  1.0000
  O   O11       1.0  0.9356961544773127  0.5956374938866275  0.0830897160313029  1.0000
  O   O12       1.0  0.5864309384076377  0.5859045276339501  0.9129213537238812  1.0000
  O   O13       1.0  0.41821735638261975  0.3997256756962884  0.9223633690979438  1.0000
  O   O14       1.0  0.09412137982216959  0.40269966497088194  0.07724603804907557  1.0000
  O   O15       1.0  0.08233136198212068  0.4122350648233777  0.9139049083339612  1.0000
  O   O16       1.0  0.4323033992800234  0.40748657486429346  0.08398461534816448  1.0000
  O   O17       1.0  0.5978696644889538  0.6002227220786693  0.07539007789271318  1.0000
  O   O18       1.0  0.922794342806611  0.60033216241618  0.920572250223415  1.0000
  O   O19       1.0  0.2615993880080012  0.5638700128210347  0.9995474476333682  1.0000
  O   O20       1.0  0.7596038184490368  0.437267442221774  0.00043558546158810004  1.0000
  F   F1        1.0  0.3871633241708636  0.7688003063469822  0.6705240560694675  1.0000
  F   F2        1.0  0.886563930701115  0.21186133925440487  0.31600411454550675  1.0000
  F   F3        1.0  0.6081678781772908  0.18430014883444557  0.6943988604478334  1.0000
  F   F4        1.0  0.3842055756830618  0.7948557120190429  0.3089699941930418  1.0000
