data_image0
_chemical_formula_structural       Cd2H34C38N6O16
_chemical_formula_sum              "Cd2 H34 C38 N6 O16"
_cell_length_a       10.036787805976717
_cell_length_b       10.390479401815389
_cell_length_c       11.273658812484989
_cell_angle_alpha    95.00956928291997
_cell_angle_beta     88.19082455823182
_cell_angle_gamma    122.08459242855395

_space_group_name_H-M_alt    "P 1"
_space_group_IT_number       1

loop_
  _space_group_symop_operation_xyz
  'x, y, z'

loop_
  _atom_site_type_symbol
  _atom_site_label
  _atom_site_symmetry_multiplicity
  _atom_site_fract_x
  _atom_site_fract_y
  _atom_site_fract_z
  _atom_site_occupancy
  Cd  Cd1       1.0  0.7132408524049653  0.39511406868728477  0.02905807389539922  1.0000
  Cd  Cd2       1.0  0.2867537040785848  0.6048824961572878  0.9709408690640732  1.0000
  H   H1        1.0  0.9771681319815289  0.4189577616285903  0.1364449514083148  1.0000
  H   H2        1.0  0.022826349410266282  0.5810409727648465  0.8635612517956234  1.0000
  H   H3        1.0  0.02896492989678732  0.5880055736911702  0.13101260433167997  1.0000
  H   H4        1.0  0.9710303912609534  0.4119943742988355  0.8689865858745879  1.0000
  H   H5        1.0  0.1366786773191961  0.015614323990860199  0.6377934527674469  1.0000
  H   H6        1.0  0.8633172101468745  0.9843755231801482  0.3622103087244072  1.0000
  H   H7        1.0  0.424292448006213  0.32335529373493443  0.9150044742656082  1.0000
  H   H8        1.0  0.5756959737630182  0.6766432412768636  0.08500085787610351  1.0000
  H   H9        1.0  0.5501110219242734  0.35453619633261724  0.81400232994757  1.0000
  H   H10       1.0  0.44987213570338  0.6454577235446024  0.18599824982412372  1.0000
  H   H11       1.0  0.3729945265224615  0.9292094871737366  0.2962380619244912  1.0000
  H   H12       1.0  0.6270163154118721  0.07079326346764252  0.703757707331697  1.0000
  H   H13       1.0  0.7248907855707785  0.8947669624962558  0.037532218110889914  1.0000
  H   H14       1.0  0.27510730347400886  0.1052330062527531  0.9624749455731065  1.0000
  H   H15       1.0  0.9922306541292301  0.8112191223411926  0.7671644461363843  1.0000
  H   H16       1.0  0.007763875421453289  0.18877401056104054  0.2328422283056853  1.0000
  H   H17       1.0  0.9730504895495076  0.215438708058187  0.7751957519888749  1.0000
  H   H18       1.0  0.026947160319345027  0.7845601678135026  0.22480689606855014  1.0000
  H   H19       1.0  0.215354801928818  0.7645610498214167  0.6555040657985247  1.0000
  H   H20       1.0  0.7846620033024861  0.23544529499955763  0.3444883903062888  1.0000
  H   H21       1.0  0.19231201006919452  0.45380894373600006  0.2936767008931795  1.0000
  H   H22       1.0  0.8076963048038125  0.5461970114281699  0.7063264180253058  1.0000
  H   H23       1.0  0.2594498614945948  0.7147652563793516  0.2733787627729286  1.0000
  H   H24       1.0  0.740556265270037  0.2852361972702083  0.7266187090807891  1.0000
  H   H25       1.0  0.3081358580906439  0.2115801486244422  0.4793205282482519  1.0000
  H   H26       1.0  0.6918669904009891  0.7884189382814243  0.5206785594109961  1.0000
  H   H27       1.0  0.42791720843777636  0.47248522261627107  0.41262165923178884  1.0000
  H   H28       1.0  0.5720897176974091  0.52751620080857  0.5873820177168341  1.0000
  H   H29       1.0  0.5977868367346915  0.544091664140204  0.2309964238521119  1.0000
  H   H30       1.0  0.40221868331839533  0.455910838322616  0.7690064530712493  1.0000
  H   H31       1.0  0.5245299570037432  0.11269963611211857  0.17519142818279226  1.0000
  H   H32       1.0  0.4754635805252079  0.887300316610748  0.8248006727371548  1.0000
  H   H33       1.0  0.14634611480151705  0.49660812086115436  0.6595337393550695  1.0000
  H   H34       1.0  0.8536672850165842  0.5033992427279869  0.34045703515890585  1.0000
  C   C1        1.0  0.7802061769467984  0.15783212184022943  0.9668224324878738  1.0000
  C   C2        1.0  0.21978761487039117  0.8421688680433661  0.03317950496213482  1.0000
  C   C3        1.0  0.8407686713336134  0.06277383519871191  0.9115598050934539  1.0000
  C   C4        1.0  0.15922688676027968  0.9372249525448739  0.08844462185014387  1.0000
  C   C5        1.0  0.7981201266104635  0.9262114194452596  0.959174552967298  1.0000
  C   C6        1.0  0.2018773383706929  0.073787400709854  0.04083341599362461  1.0000
  C   C7        1.0  0.8042230760165907  0.6877704265359696  0.9549837283273634  1.0000
  C   C8        1.0  0.1957677534372522  0.3122214441524065  0.04502464608639662  1.0000
  C   C9        1.0  0.9497648294428203  0.882056071588238  0.8068983393621354  1.0000
  C   C10       1.0  0.05023017009841619  0.11793816347740459  0.19311196388925117  1.0000
  C   C11       1.0  0.9948901453824348  0.020317390854245304  0.7607937003422195  1.0000
  C   C12       1.0  0.005103821733847186  0.9796746120262867  0.23921200574228155  1.0000
  C   C13       1.0  0.9383455229333252  0.1092718746210508  0.8130252198165241  1.0000
  C   C14       1.0  0.06164677035009439  0.8907223582577828  0.18697533632263946  1.0000
  C   C15       1.0  0.21364960902816674  0.6993016311223103  0.5738341163243419  1.0000
  C   C16       1.0  0.7863621824680537  0.3007045583810779  0.4261565792751514  1.0000
  C   C17       1.0  0.2022535112762753  0.5264785401835114  0.37343385032981063  1.0000
  C   C18       1.0  0.7977566141505789  0.4735230340056873  0.6265653846550522  1.0000
  C   C19       1.0  0.2424042342936231  0.675471244706486  0.3624711798389273  1.0000
  C   C20       1.0  0.7576079212789538  0.3245303990386219  0.6375280498942645  1.0000
  C   C21       1.0  0.38040884646883205  0.24420713421845622  0.40056028968442103  1.0000
  C   C22       1.0  0.6195915808678479  0.7557929969474345  0.5994380005754111  1.0000
  C   C23       1.0  0.44759819186604227  0.38997806803738655  0.3625673073447048  1.0000
  C   C24       1.0  0.5524104658494836  0.6100245666175966  0.6374329012494045  1.0000
  C   C25       1.0  0.5384471634878238  0.4297377961575535  0.2610123001250244  1.0000
  C   C26       1.0  0.461557636176039  0.5702669525093357  0.7389871978616613  1.0000
  C   C27       1.0  0.851147813911986  0.8350500835891382  0.9060145954979649  1.0000
  C   C28       1.0  0.14884298472723861  0.16494177781314082  0.09399466573304242  1.0000
  C   C29       1.0  0.49850335534819823  0.18838936903661357  0.23022850655149807  1.0000
  C   C30       1.0  0.501498786224559  0.8116175841367123  0.7697649572984417  1.0000
  C   C31       1.0  0.40977971921768835  0.141643622655991  0.3340606405319449  1.0000
  C   C32       1.0  0.5902191440820772  0.8583609637736416  0.6659344391235252  1.0000
  C   C33       1.0  0.2939105740584226  0.9271851989770642  0.46510482701646805  1.0000
  C   C34       1.0  0.7060952541330039  0.072809588162265  0.5348859399970749  1.0000
  C   C35       1.0  0.25033278421820165  0.7654396248991518  0.4653561566353306  1.0000
  C   C36       1.0  0.7496802901016509  0.2345654484218684  0.5346388862584137  1.0000
  C   C37       1.0  0.1756682294309185  0.5492300931066083  0.5753608950044368  1.0000
  C   C38       1.0  0.8243383942571327  0.4507758946487074  0.4246324741759936  1.0000
  N   N1        1.0  0.3566419080619951  0.9935024093306951  0.361379851544605  1.0000
  N   N2        1.0  0.6433614373530645  0.006501211680919993  0.6386151334413557  1.0000
  N   N3        1.0  0.5605289045684501  0.3283787958975354  0.19492697339938306  1.0000
  N   N4        1.0  0.4394681481696381  0.6716223633226049  0.8050687484523708  1.0000
  N   N5        1.0  0.17117480816148858  0.46321922024272066  0.47763518499601804  1.0000
  N   N6        1.0  0.8288377210760559  0.5367869204637615  0.5223634893328823  1.0000
  O   O1        1.0  0.9365521258066565  0.4869989562441502  0.15039994280920874  1.0000
  O   O2        1.0  0.06344254047284179  0.5129998338658696  0.8496009394912322  1.0000
  O   O3        1.0  0.7970565024747388  0.2659763758635947  0.9046393959670314  1.0000
  O   O4        1.0  0.20293970660783606  0.7340191842317695  0.09535325247969693  1.0000
  O   O5        1.0  0.0906712942619947  0.0760182541268009  0.666664939568321  1.0000
  O   O6        1.0  0.909330152029291  0.9239784891607955  0.3333401927310292  1.0000
  O   O7        1.0  0.716303946355943  0.1336458521869446  0.06632059270750552  1.0000
  O   O8        1.0  0.2836959050838103  0.8663553370782966  0.933682215804723  1.0000
  O   O9        1.0  0.7041752267776501  0.6369903065058438  0.038624052678450524  1.0000
  O   O10       1.0  0.2958139596657716  0.36301161165138046  0.9613815267100564  1.0000
  O   O11       1.0  0.8632280966326391  0.6112719651896867  0.9111162934623709  1.0000
  O   O12       1.0  0.1367710999288647  0.38872806619556854  0.08888820714403785  1.0000
  O   O13       1.0  0.27785398633396585  0.9967229926315113  0.554145672908412  1.0000
  O   O14       1.0  0.7221332450476654  0.0032688782364829025  0.4458494097499682  1.0000
  O   O15       1.0  0.5079855516796387  0.3021653748060445  0.8860185339043057  1.0000
  O   O16       1.0  0.4920029625334407  0.6978331880640383  0.11398413778565704  1.0000
