data_image0
_chemical_formula_structural       Zn4H40C48N16O16
_chemical_formula_sum              "Zn4 H40 C48 N16 O16"
_cell_length_a       12.659205655958445
_cell_length_b       12.90400435604355
_cell_length_c       13.782944341065424
_cell_angle_alpha    76.97883738354325
_cell_angle_beta     62.676217461758526
_cell_angle_gamma    60.62248511266755

_space_group_name_H-M_alt    "P 1"
_space_group_IT_number       1

loop_
  _space_group_symop_operation_xyz
  'x, y, z'

loop_
  _atom_site_type_symbol
  _atom_site_label
  _atom_site_symmetry_multiplicity
  _atom_site_fract_x
  _atom_site_fract_y
  _atom_site_fract_z
  _atom_site_occupancy
  Zn  Zn1       1.0  0.16871387253556225  0.6626534705921044  0.2499083456422681  1.0000
  Zn  Zn2       1.0  0.5811681997894521  0.8374800130054469  0.2500644788038285  1.0000
  Zn  Zn3       1.0  0.831286620283691  0.33734606933366257  0.7500910587378158  1.0000
  Zn  Zn4       1.0  0.418831117636614  0.1625204161784026  0.7499356468931424  1.0000
  H   H1        1.0  0.06261268467417107  0.45578449041655505  0.046368585892821584  1.0000
  H   H2        1.0  0.8908029253132522  0.04436563497252171  0.046204071353692276  1.0000
  H   H3        1.0  0.48149513092766205  0.45574365205388306  0.4537286734121579  1.0000
  H   H4        1.0  0.06471324429728043  0.0442409856144295  0.4535601803591972  1.0000
  H   H5        1.0  0.9373864085239697  0.5442159386542685  0.9536326439680141  1.0000
  H   H6        1.0  0.10919689863697331  0.9556347941534613  0.9537964371185055  1.0000
  H   H7        1.0  0.5185057446496654  0.5442541093032461  0.5462703483361864  1.0000
  H   H8        1.0  0.9352884819834979  0.9557576647693439  0.5464410938069619  1.0000
  H   H9        1.0  0.47677451249045727  0.350907352987079  0.9570767426322605  1.0000
  H   H10       1.0  0.5657255698498387  0.1494329263676519  0.9570735364837757  1.0000
  H   H11       1.0  0.17230289831456946  0.3508412376652217  0.5428088275037695  1.0000
  H   H12       1.0  0.2842839391782445  0.14960350097170055  0.5429586356830073  1.0000
  H   H13       1.0  0.5232273799499152  0.649091297793632  0.04292083626707205  1.0000
  H   H14       1.0  0.4342718066668777  0.850571949211542  0.0429280757935614  1.0000
  H   H15       1.0  0.8276968018695638  0.6491574129499966  0.457190915561462  1.0000
  H   H16       1.0  0.7157160123527853  0.8503995962043622  0.45704042979669174  1.0000
  H   H17       1.0  0.4019689826564913  0.487542233367421  0.102058087452221  1.0000
  H   H18       1.0  0.4957208184376538  0.012623328597001701  0.10198867040746523  1.0000
  H   H19       1.0  0.11040997419394204  0.48763674323618744  0.3978488903896888  1.0000
  H   H20       1.0  0.4912835224794561  0.012780645206959198  0.398214381163875  1.0000
  H   H21       1.0  0.5980312897495705  0.5124581959846211  0.897940212692255  1.0000
  H   H22       1.0  0.5042780543472885  0.9873779899000896  0.8980114552177554  1.0000
  H   H23       1.0  0.8895894051151668  0.5123645752030512  0.6021516180107656  1.0000
  H   H24       1.0  0.508715033245174  0.9872242306534532  0.601784301397096  1.0000
  H   H25       1.0  0.9533663945949225  0.6556906871632509  0.2606205828386691  1.0000
  H   H26       1.0  0.7860083564989392  0.8443555027476181  0.2605009139858653  1.0000
  H   H27       1.0  0.39093919628420065  0.6557438840345071  0.23937883506253843  1.0000
  H   H28       1.0  0.3697390932631634  0.8442955064999468  0.23949839906799042  1.0000
  H   H29       1.0  0.046632698603218385  0.34430974190757274  0.7393806470221661  1.0000
  H   H30       1.0  0.21399140556823654  0.15564403712298264  0.7394992117828565  1.0000
  H   H31       1.0  0.6090618030592192  0.34425565583340056  0.760620952092779  1.0000
  H   H32       1.0  0.6302611753281793  0.15570403331279442  0.7605021094759579  1.0000
  H   H33       1.0  0.9032904470997772  0.6130035539060756  0.18445946544708378  1.0000
  H   H34       1.0  0.9121480208929281  0.887129711268578  0.1843096975566425  1.0000
  H   H35       1.0  0.4837397495849344  0.6129386671284607  0.3155507805331084  1.0000
  H   H36       1.0  0.20081332342314762  0.8870225541693629  0.315577086057317  1.0000
  H   H37       1.0  0.09670864609837071  0.3869968751647477  0.8155417644137515  1.0000
  H   H38       1.0  0.08785224769840715  0.11286982854416287  0.8156908109873059  1.0000
  H   H39       1.0  0.5162616943996026  0.3870599834262053  0.6844490066939528  1.0000
  H   H40       1.0  0.7991881824444317  0.11297698564067823  0.6844230838732274  1.0000
  C   C1        1.0  0.10457016674128991  0.5363169595189489  0.13825298251185097  1.0000
  C   C2        1.0  0.7569834261845397  0.9637963836077647  0.13814584367036528  1.0000
  C   C3        1.0  0.35907517077727374  0.5363120644362668  0.3617313306882295  1.0000
  C   C4        1.0  0.2791106223611093  0.963816664220687  0.36177718702697337  1.0000
  C   C5        1.0  0.8954295953258861  0.46368258035165166  0.8617471432568637  1.0000
  C   C6        1.0  0.24301589124151932  0.0362040455760777  0.8618542820266056  1.0000
  C   C7        1.0  0.6409257666830965  0.4636865861762518  0.6382680737635982  1.0000
  C   C8        1.0  0.7208902803351972  0.03618554358426001  0.6382222612996955  1.0000
  C   C9        1.0  0.14000148125795409  0.46189222128902685  0.05608730979059114  1.0000
  C   C10       1.0  0.8036355626986448  0.0382952198893207  0.056015589525294576  1.0000
  C   C11       1.0  0.3980772036811186  0.4618168554903478  0.44389213144305734  1.0000
  C   C12       1.0  0.1578719692102338  0.03831189230557901  0.4437956665316563  1.0000
  C   C13       1.0  0.8599983426922714  0.538108207836963  0.9439131986816066  1.0000
  C   C14       1.0  0.19636381661045732  0.9617060985499106  0.9439849188751593  1.0000
  C   C15       1.0  0.6019250715173281  0.5381800167217323  0.5561050648245358  1.0000
  C   C16       1.0  0.8421290920162288  0.9616885368177109  0.5562045033271447  1.0000
  C   C17       1.0  0.27252073083178624  0.39576562847931746  0.9902203891490232  1.0000
  C   C18       1.0  0.7368796441042986  0.10447244965448733  0.9902111114935792  1.0000
  C   C19       1.0  0.33165664673985834  0.3956844268672628  0.5097213969264872  1.0000
  C   C20       1.0  0.1582921691420011  0.1045468174578588  0.5096361833747024  1.0000
  C   C21       1.0  0.727479031235397  0.6042339113912831  0.00977973661969141  1.0000
  C   C22       1.0  0.2631203036120125  0.8955297579822742  0.009790162385591829  1.0000
  C   C23       1.0  0.6683444530653869  0.6043133346028924  0.4902765206579928  1.0000
  C   C24       1.0  0.841708764503657  0.8954509436153659  0.4903654294766042  1.0000
  C   C25       1.0  0.371454885498835  0.402350794922029  0.006185995826612614  1.0000
  C   C26       1.0  0.621970005543538  0.09792506105135601  0.006162399122416761  1.0000
  C   C27       1.0  0.22615895362124389  0.40230237053341267  0.49370561900324356  1.0000
  C   C28       1.0  0.27967257918653116  0.09805455358935691  0.49382739103472056  1.0000
  C   C29       1.0  0.6285473858848929  0.5976451877507502  0.9938134088404598  1.0000
  C   C30       1.0  0.3780282602554124  0.9020780359013473  0.993839213298415  1.0000
  C   C31       1.0  0.7738419838391335  0.5976962800791057  0.5062937854485839  1.0000
  C   C32       1.0  0.7203252457860214  0.901950322215889  0.506172012914881  1.0000
  C   C33       1.0  0.33016578555344706  0.47759850928095204  0.08663140412384968  1.0000
  C   C34       1.0  0.5829317756771458  0.022583257861150195  0.08656476877624897  1.0000
  C   C35       1.0  0.19217319423704973  0.4776411744067561  0.4132854562340924  1.0000
  C   C36       1.0  0.3941687463411084  0.022709329174382707  0.4135167218521971  1.0000
  C   C37       1.0  0.6698355965480399  0.5223992520183247  0.9133680003997283  1.0000
  C   C38       1.0  0.41706709710779627  0.9774180606359479  0.9134353568489787  1.0000
  C   C39       1.0  0.8078266297131759  0.522359254719234  0.5867150522381053  1.0000
  C   C40       1.0  0.6058291443292062  0.9772973254255535  0.5864808564014155  1.0000
  C   C41       1.0  0.30726263464882186  0.3181657363596102  0.9033614899245989  1.0000
  C   C42       1.0  0.7889023179076843  0.18206091309455996  0.9033229178488397  1.0000
  C   C43       1.0  0.3743750340093396  0.3181107130454778  0.5966788369905702  1.0000
  C   C44       1.0  0.02864419946062911  0.18202879192131158  0.5965601996719486  1.0000
  C   C45       1.0  0.6927356659141918  0.6818338034006646  0.09664007862138392  1.0000
  C   C46       1.0  0.2110953794840637  0.8179412946606139  0.09667792909326782  1.0000
  C   C47       1.0  0.6256266342031149  0.6818879376222072  0.40331984607262694  1.0000
  C   C48       1.0  0.971353814991431  0.8179698584705406  0.4034420903344226  1.0000
  N   N1        1.0  0.2007463207610908  0.5442957585675929  0.1507795218582899  1.0000
  N   N2        1.0  0.6482766545488158  0.9558268165725538  0.15069345674897527  1.0000
  N   N3        1.0  0.25494416623169497  0.5443142281625912  0.34915889376664927  1.0000
  N   N4        1.0  0.3957236798271632  0.9559066434323358  0.34933692842680125  1.0000
  N   N5        1.0  0.7992549028102467  0.455703781413341  0.8492191611331635  1.0000
  N   N6        1.0  0.35172339362932764  0.04417361266645511  0.8493059475593584  1.0000
  N   N7        1.0  0.7450556577185307  0.45568620096339185  0.6508416147055487  1.0000
  N   N8        1.0  0.6042764959317848  0.0440964538567528  0.6506610328890261  1.0000
  N   N9        1.0  0.9763893682574857  0.5977917812795254  0.20671249701035077  1.0000
  N   N10       1.0  0.8168531575271696  0.9022368614747694  0.20653032493101617  1.0000
  N   N11       1.0  0.425765180002365  0.5978319711929743  0.2933226316406703  1.0000
  N   N12       1.0  0.28094550678493124  0.9022285363377166  0.2933464459517268  1.0000
  N   N13       1.0  0.023611186444817425  0.402208647901624  0.7932872900732165  1.0000
  N   N14       1.0  0.18314777993320047  0.0977617891377491  0.7934690795208111  1.0000
  N   N15       1.0  0.5742357574580124  0.40216667941954404  0.7066767728111573  1.0000
  N   N16       1.0  0.7190554887437696  0.09777011399089021  0.7066555496030632  1.0000
  O   O1        1.0  0.21874136419661022  0.3303787927194151  0.8774678927909106  1.0000
  O   O2        1.0  0.903364590393664  0.1698188826758411  0.8773257065115418  1.0000
  O   O3        1.0  0.45048788112602256  0.3304249004631501  0.6227561907306906  1.0000
  O   O4        1.0  0.9265133081508095  0.16968313476616004  0.6225499521518002  1.0000
  O   O5        1.0  0.781257953229449  0.6696216364644344  0.12253223290606034  1.0000
  O   O6        1.0  0.09663570531665035  0.8301851035847179  0.12267522861073125  1.0000
  O   O7        1.0  0.5495107055479589  0.6695755286655327  0.37724465635491816  1.0000
  O   O8        1.0  0.07348397936388529  0.8303164051098336  0.3774508508437221  1.0000
  O   O9        1.0  0.4298911243650138  0.23917299087270294  0.857986734873286  1.0000
  O   O10       1.0  0.7116079870039652  0.26107097712485233  0.8579827353605226  1.0000
  O   O11       1.0  0.33087029097941906  0.23901469642952838  0.6419755688899543  1.0000
  O   O12       1.0  0.02695071011002155  0.26095096704754894  0.6419965260615043  1.0000
  O   O13       1.0  0.5701073347281561  0.7608247702059078  0.14201555520482867  1.0000
  O   O14       1.0  0.28839228158737723  0.7389285626878818  0.14201777318342582  1.0000
  O   O15       1.0  0.669131094936787  0.7609839544090421  0.35802162723414444  1.0000
  O   O16       1.0  0.9730462912937125  0.7390476834600292  0.35800499839440647  1.0000
