data_image0
_chemical_formula_structural       Nd4H36C36N4O30
_chemical_formula_sum              "Nd4 H36 C36 N4 O30"
_cell_length_a       6.974914203478257
_cell_length_b       7.588730277973948
_cell_length_c       22.290166074833714
_cell_angle_alpha    84.77560685739064
_cell_angle_beta     88.2493257986086
_cell_angle_gamma    75.35343356810976

_space_group_name_H-M_alt    "P 1"
_space_group_IT_number       1

loop_
  _space_group_symop_operation_xyz
  'x, y, z'

loop_
  _atom_site_type_symbol
  _atom_site_label
  _atom_site_symmetry_multiplicity
  _atom_site_fract_x
  _atom_site_fract_y
  _atom_site_fract_z
  _atom_site_occupancy
  Nd  Nd1       1.0  0.4015800624231076  0.5675847782568865  0.20834666344538996  1.0000
  Nd  Nd2       1.0  0.5984220965916552  0.4324175833327856  0.7916518698045396  1.0000
  Nd  Nd3       1.0  0.8492462006213872  0.7350207036497379  0.294401966327719  1.0000
  Nd  Nd4       1.0  0.1507567002184587  0.2649789208806226  0.7055975409894588  1.0000
  H   H1        1.0  0.026095084694723963  0.7541407686915136  0.14459893468757204  1.0000
  H   H2        1.0  0.9739042115927036  0.2458615892323479  0.8554023183364311  1.0000
  H   H3        1.0  0.19389257975385044  0.7607230844528841  0.09256907759401403  1.0000
  H   H4        1.0  0.8061045808570174  0.2392765500795092  0.9074304853391414  1.0000
  H   H5        1.0  0.8370045164088822  0.023561398956580593  0.38460276109980646  1.0000
  H   H6        1.0  0.16300343019658928  0.9764354824574112  0.615397229911615  1.0000
  H   H7        1.0  0.8049372385502027  0.8407599028063331  0.4261415869645831  1.0000
  H   H8        1.0  0.19505737672817255  0.15924383692659214  0.5738574260937315  1.0000
  H   H9        1.0  0.7352707154304813  0.1605271392833814  0.3003554670895596  1.0000
  H   H10       1.0  0.26472144923887003  0.8394697653027874  0.6996460228488459  1.0000
  H   H11       1.0  0.6412477060118392  0.12710090207715297  0.2386104428780059  1.0000
  H   H12       1.0  0.35874658940930026  0.8728987316783758  0.7613909425071982  1.0000
  H   H13       1.0  0.6696923199872915  0.3856183314520364  0.008702523552720708  1.0000
  H   H14       1.0  0.3303116935901898  0.6143771874893531  0.9912984448653221  1.0000
  H   H15       1.0  0.8212332760557858  0.8750529805241314  0.9432821926602702  1.0000
  H   H16       1.0  0.1787560148054937  0.124943933396473  0.056717979103083814  1.0000
  H   H17       1.0  0.7596585957269117  0.7223859532277996  0.04434764139877252  1.0000
  H   H18       1.0  0.24033032668420884  0.2776123263335108  0.9556529406529893  1.0000
  H   H19       1.0  0.799193809221194  0.2340989889790066  0.49958908870383584  1.0000
  H   H20       1.0  0.200804752628301  0.7659060973373427  0.5004138822190073  1.0000
  H   H21       1.0  0.5529201854565218  0.15331595518946264  0.5734664171832691  1.0000
  H   H22       1.0  0.4470664776607337  0.8466959898342522  0.4265346645604425  1.0000
  H   H23       1.0  0.09506524087861834  0.33432075720969573  0.4509975217255971  1.0000
  H   H24       1.0  0.904937559081809  0.6656898148903139  0.5489967155315868  1.0000
  H   H25       1.0  0.9614822731232098  0.306136317092303  0.13032179521015766  1.0000
  H   H26       1.0  0.03851312641720745  0.6938592211855551  0.869677910648811  1.0000
  H   H27       1.0  0.9404543130702978  0.14736894304540724  0.19245929212297605  1.0000
  H   H28       1.0  0.059537111005155914  0.8526306971556038  0.8075416724092012  1.0000
  H   H29       1.0  0.17161318943409049  0.2064565499284967  0.1770668895481577  1.0000
  H   H30       1.0  0.8283829519314171  0.7935362512900426  0.822933790378052  1.0000
  H   H31       1.0  0.18320131850134672  0.9862730811328857  0.36830428289682265  1.0000
  H   H32       1.0  0.8167947779648091  0.013725187370354795  0.6316957809739492  1.0000
  H   H33       1.0  0.15746524015088437  0.14590591744722295  0.30559281673454564  1.0000
  H   H34       1.0  0.8425365953130638  0.854092342498461  0.6944067428592292  1.0000
  H   H35       1.0  0.3967764680406348  0.0615636483110151  0.3393783327022889  1.0000
  H   H36       1.0  0.6032218053078539  0.9384318806324073  0.6606226913317246  1.0000
  C   C1        1.0  0.571353418546316  0.2988934947818507  0.12243653060669861  1.0000
  C   C2        1.0  0.42864124532498254  0.7011047733329576  0.8775644444900976  1.0000
  C   C3        1.0  0.6485002682591559  0.16759354506696406  0.07582789255973672  1.0000
  C   C4        1.0  0.351499440146583  0.8324019813759519  0.9241731175702841  1.0000
  C   C5        1.0  0.6898693398789748  0.238389296548533  0.017965785631297106  1.0000
  C   C6        1.0  0.3101328689599044  0.7616075919785457  0.9820351583181337  1.0000
  C   C7        1.0  0.7742009642544334  0.9542070350379106  0.9820316722994777  1.0000
  C   C8        1.0  0.22579156763388405  0.045788505352014404  0.017968958689508003  1.0000
  C   C9        1.0  0.7399046055797104  0.8700328459935349  0.037898275209762716  1.0000
  C   C10       1.0  0.2600879250774143  0.1299626958408666  0.9621019071182105  1.0000
  C   C11       1.0  0.6779497728669457  0.9772888636803144  0.08622499075626425  1.0000
  C   C12       1.0  0.32204669451175505  0.022708036293273896  0.9137755601481249  1.0000
  C   C13       1.0  0.6491892508982746  0.8789840764664871  0.14642753431857616  1.0000
  C   C14       1.0  0.35080541420421707  0.12101419020385151  0.8535738894392255  1.0000
  C   C15       1.0  0.7217925085504577  0.38138954130491937  0.3820539918215859  1.0000
  C   C16       1.0  0.27821092192967734  0.618634668144942  0.6179478958957676  1.0000
  C   C17       1.0  0.5792635330130126  0.33423970181298296  0.4292322209996657  1.0000
  C   C18       1.0  0.4207418657975881  0.6657612876904933  0.5707663228148903  1.0000
  C   C19       1.0  0.6445643932080288  0.2574189948317168  0.48675423168889875  1.0000
  C   C20       1.0  0.3554305517771256  0.7425888393228419  0.5132459983306321  1.0000
  C   C21       1.0  0.5082074819428399  0.2111680172825245  0.5280291593146063  1.0000
  C   C22       1.0  0.49178384987153845  0.7888425603768354  0.4719696757846636  1.0000
  C   C23       1.0  0.2522168054550563  0.3123672479138192  0.4606815290872748  1.0000
  C   C24       1.0  0.7477853025043971  0.6876405881829156  0.5393141448021553  1.0000
  C   C25       1.0  0.37746991872887053  0.3645645005349182  0.41614784102736024  1.0000
  C   C26       1.0  0.6225358024013519  0.6354405920570159  0.5838492277823308  1.0000
  C   C27       1.0  0.2939716401903283  0.4524539137061937  0.35625915572310873  1.0000
  C   C28       1.0  0.7060431009392973  0.5475443352906807  0.6437366894466126  1.0000
  C   C29       1.0  0.9449150006332163  0.4161035426723175  0.21466882699343875  1.0000
  C   C30       1.0  0.05508359749727997  0.5838960864706237  0.7853316193577486  1.0000
  C   C31       1.0  0.010082766318760232  0.2577702224426872  0.1767205178035099  1.0000
  C   C32       1.0  0.9899122660026975  0.7422266800314077  0.823280047004879  1.0000
  C   C33       1.0  0.3057929413091075  0.8716248056003407  0.2883914810756708  1.0000
  C   C34       1.0  0.6942121339506856  0.12837208225914049  0.7116080890827237  1.0000
  C   C35       1.0  0.2610010948967201  0.0260584421507914  0.3276998023792431  1.0000
  C   C36       1.0  0.7390036143752997  0.9739398084604644  0.6723010753895837  1.0000
  N   N1        1.0  0.7523715129958222  0.1355210992586535  0.9722060496889998  1.0000
  N   N2        1.0  0.24762963046716646  0.8644744246837492  0.02779494653702841  1.0000
  N   N3        1.0  0.3157470701616207  0.2346630009970596  0.5152120470110192  1.0000
  N   N4        1.0  0.6842435185964818  0.7653503151660883  0.48478536535999706  1.0000
  O   O1        1.0  0.5653792831706642  0.4665725997464349  0.10941151952322065  1.0000
  O   O2        1.0  0.4346175514270031  0.5334229360309096  0.8905881724317556  1.0000
  O   O3        1.0  0.509422977717641  0.24106300302453576  0.17367337243866396  1.0000
  O   O4        1.0  0.49057492471830955  0.7589338944485463  0.8263271645617326  1.0000
  O   O5        1.0  0.7975285250475681  0.8391349459555428  0.18171976429438536  1.0000
  O   O6        1.0  0.20247544609294726  0.16086603738160923  0.8182814853902374  1.0000
  O   O7        1.0  0.48819531928946014  0.8340234445958785  0.15437056498041815  1.0000
  O   O8        1.0  0.511810089370684  0.1659775333518212  0.8456315681222436  1.0000
  O   O9        1.0  0.7144507951175713  0.5486184031549968  0.3695850612839565  1.0000
  O   O10       1.0  0.28556335612169903  0.4513661608244846  0.630417939239024  1.0000
  O   O11       1.0  0.8398920775941365  0.24698244375939277  0.3596557468987955  1.0000
  O   O12       1.0  0.1601262791686438  0.7530130588437415  0.6403423905132117  1.0000
  O   O13       1.0  0.40605587499955237  0.4222546659945224  0.3100781260349663  1.0000
  O   O14       1.0  0.5939628926503462  0.5777340065721291  0.6899193198220532  1.0000
  O   O15       1.0  0.11835687948254768  0.5503533321306122  0.3572549020801149  1.0000
  O   O16       1.0  0.881664944672231  0.4496558418220785  0.6427387441367288  1.0000
  O   O17       1.0  0.7634959294903325  0.4750364726979369  0.23016732301082507  1.0000
  O   O18       1.0  0.236504796929566  0.5249658885032956  0.7698321214651287  1.0000
  O   O19       1.0  0.07340223696693479  0.494034969496809  0.23220664364715304  1.0000
  O   O20       1.0  0.9265992251220895  0.5059646618674732  0.7677915315909732  1.0000
  O   O21       1.0  0.16492176528958435  0.8258073669969832  0.26274732508068155  1.0000
  O   O22       1.0  0.8350818263200425  0.17419499498112154  0.7372502969432306  1.0000
  O   O23       1.0  0.48429371342086125  0.7823317411449936  0.2798557780520313  1.0000
  O   O24       1.0  0.5157049357649443  0.21766241349089202  0.7201475276596628  1.0000
  O   O25       1.0  0.15644045916126723  0.6864517646370202  0.12947116505416295  1.0000
  O   O26       1.0  0.8435563329994411  0.31354923553608666  0.8705288081674002  1.0000
  O   O27       1.0  0.855231832675351  0.8887938406529371  0.38604291203365915  1.0000
  O   O28       1.0  0.14477426675457397  0.1112098747425136  0.6139573357757372  1.0000
  O   O29       1.0  0.7146131201122473  0.06649007259383669  0.2751005156434801  1.0000
  O   O30       1.0  0.28538585385555865  0.9335081822415673  0.7249022123853879  1.0000
