data_image0
_chemical_formula_structural       Cu8H104C96O60
_chemical_formula_sum              "Cu8 H104 C96 O60"
_cell_length_a       11.941471821791485
_cell_length_b       18.233875806809216
_cell_length_c       18.27532328302651
_cell_angle_alpha    90.03047099160752
_cell_angle_beta     90.0291287396809
_cell_angle_gamma    89.9778404707985

_space_group_name_H-M_alt    "P 1"
_space_group_IT_number       1

loop_
  _space_group_symop_operation_xyz
  'x, y, z'

loop_
  _atom_site_type_symbol
  _atom_site_label
  _atom_site_symmetry_multiplicity
  _atom_site_fract_x
  _atom_site_fract_y
  _atom_site_fract_z
  _atom_site_occupancy
  Cu  Cu1       1.0  0.9189150738918028  0.7227433097122643  0.7269887614704373  1.0000
  Cu  Cu2       1.0  0.9188800892448794  0.2772732349373044  0.2729852605065446  1.0000
  Cu  Cu3       1.0  0.0818107640303012  0.7775090368683453  0.22668046279397913  1.0000
  Cu  Cu4       1.0  0.0811160590149171  0.22271339856479944  0.7730044981052728  1.0000
  Cu  Cu5       1.0  0.065396979430659  0.7942528491569051  0.8002813735450616  1.0000
  Cu  Cu6       1.0  0.0653865802862512  0.2057834352102219  0.1997243222643093  1.0000
  Cu  Cu7       1.0  0.9337466461285826  0.7054433440888845  0.3006669243161895  1.0000
  Cu  Cu8       1.0  0.9345885641469137  0.29423654736210375  0.6997175454181459  1.0000
  H   H1        1.0  0.03728180866586679  0.5059132928583664  0.7586479898065761  1.0000
  H   H2        1.0  0.0370547209079533  0.49433800122592697  0.24139489880486306  1.0000
  H   H3        1.0  0.9630267915184233  0.9938602982597902  0.2587211467817028  1.0000
  H   H4        1.0  0.9626889582658433  0.0059460613205431  0.7413418390882924  1.0000
  H   H5        1.0  0.33696278389923146  0.6296081126645419  0.8034219974902472  1.0000
  H   H6        1.0  0.33672622350443493  0.37052069628985157  0.1966054935519281  1.0000
  H   H7        1.0  0.6632834257180207  0.8703176529570911  0.3034005859000928  1.0000
  H   H8        1.0  0.6628972395010138  0.12965177286042012  0.6965809260597525  1.0000
  H   H9        1.0  0.3505992998570234  0.39289920686915997  0.7830269308546534  1.0000
  H   H10       1.0  0.35035274367075425  0.6072042525364696  0.21714516107776663  1.0000
  H   H11       1.0  0.649749660410137  0.1069923401805113  0.2829329606428104  1.0000
  H   H12       1.0  0.6494669703518311  0.8929689661682686  0.7169904465911972  1.0000
  H   H13       1.0  0.520732153897967  0.4316863960437729  0.7363883261247679  1.0000
  H   H14       1.0  0.5206402092703114  0.5683794188117447  0.26363619445834274  1.0000
  H   H15       1.0  0.4794332032080673  0.0682302777997776  0.2364793379924848  1.0000
  H   H16       1.0  0.47939324246074466  0.9317670151032829  0.7635582668110672  1.0000
  H   H17       1.0  0.5264954092255749  0.41770252857577367  0.8337923379775773  1.0000
  H   H18       1.0  0.5261946642316744  0.5823240105150517  0.1662263912926676  1.0000
  H   H19       1.0  0.47390820559305513  0.08215414445982822  0.3338992763319908  1.0000
  H   H20       1.0  0.47368263892446544  0.917743113372794  0.6661468323880868  1.0000
  H   H21       1.0  0.6809104308644223  0.513204681371981  0.8401091504194086  1.0000
  H   H22       1.0  0.6806067209401333  0.48681839525072235  0.15983501697480312  1.0000
  H   H23       1.0  0.31939530773266966  0.9867472158085778  0.34011790179225443  1.0000
  H   H24       1.0  0.319080325133207  0.013182571428750098  0.6598664793523669  1.0000
  H   H25       1.0  0.7143319598569491  0.43044460530070694  0.7928224400718733  1.0000
  H   H26       1.0  0.7140840346591657  0.5695168279502525  0.2072050504691632  1.0000
  H   H27       1.0  0.28599704212313526  0.06951034896737697  0.2929209740334501  1.0000
  H   H28       1.0  0.2858117723650223  0.930428433199154  0.7070933760288867  1.0000
  H   H29       1.0  0.8465807939220722  0.4714154863846219  0.7131942990662168  1.0000
  H   H30       1.0  0.8464114822288306  0.5285771814268614  0.2868678399860087  1.0000
  H   H31       1.0  0.1535078803599035  0.028579330554528302  0.21329334221709226  1.0000
  H   H32       1.0  0.1534324009118322  0.9714017634548284  0.7867607476025356  1.0000
  H   H33       1.0  0.8456997167687134  0.556082085218847  0.7642685220882586  1.0000
  H   H34       1.0  0.845766781775495  0.4439019974237653  0.23578077599841407  1.0000
  H   H35       1.0  0.1544347556379577  0.9437668417694667  0.2640640238595396  1.0000
  H   H36       1.0  0.15416524359888228  0.056058774920828114  0.7357588406934994  1.0000
  H   H37       1.0  0.9206281528488204  0.5710897891253595  0.636965167684899  1.0000
  H   H38       1.0  0.9207026493295343  0.4288352921250438  0.3630969670005513  1.0000
  H   H39       1.0  0.07955885364336979  0.9287763011174944  0.13676394389639776  1.0000
  H   H40       1.0  0.07927982738985409  0.0711823453130194  0.8630587060817945  1.0000
  H   H41       1.0  0.7888718016364606  0.5396807245956696  0.6013465220941258  1.0000
  H   H42       1.0  0.7889956026851407  0.46035228011937335  0.398672430861609  1.0000
  H   H43       1.0  0.2109423232196264  0.9607653279503551  0.1011839361220481  1.0000
  H   H44       1.0  0.21101288224335948  0.03968322332939069  0.8986666753897268  1.0000
  H   H45       1.0  0.955844357173788  0.7545327124109991  0.010520743612481504  1.0000
  H   H46       1.0  0.9556804565560028  0.24545039074029518  0.9895355547509865  1.0000
  H   H47       1.0  0.044260128605415595  0.7454151532404721  0.5102142022817091  1.0000
  H   H48       1.0  0.044323367314269994  0.2545688284074643  0.48956942672524667  1.0000
  H   H49       1.0  0.6862593543642816  0.6502856343311195  0.8955369529160678  1.0000
  H   H50       1.0  0.6861718718680975  0.34975745968430527  0.1044451467377243  1.0000
  H   H51       1.0  0.3137855025500045  0.8496875973737232  0.3955138268553711  1.0000
  H   H52       1.0  0.3138715453827102  0.1502155942470722  0.6044889962996365  1.0000
  H   H53       1.0  0.6907042957079879  0.6517494579770257  0.1321824481674767  1.0000
  H   H54       1.0  0.6903916801151906  0.34833586561590124  0.867801101783698  1.0000
  H   H55       1.0  0.30944803035085033  0.848243560062599  0.6321411115253428  1.0000
  H   H56       1.0  0.3095676835951409  0.15170953187457306  0.3678477043886232  1.0000
  H   H57       1.0  0.5385820628436945  0.539514087659903  0.939718643711885  1.0000
  H   H58       1.0  0.5383454140388793  0.460529693556161  0.0603681363834028  1.0000
  H   H59       1.0  0.4613523068925288  0.9604262171562326  0.4397097581241666  1.0000
  H   H60       1.0  0.46178929001037256  0.0394993696705725  0.5603607511085329  1.0000
  H   H61       1.0  0.5196068127040618  0.6340178440125399  0.9162263438090009  1.0000
  H   H62       1.0  0.5195530985979387  0.36598517276036807  0.0837655086820348  1.0000
  H   H63       1.0  0.48033104649255864  0.86590170580957  0.4161818146715746  1.0000
  H   H64       1.0  0.48062997849735467  0.13405143459407753  0.5838260377115817  1.0000
  H   H65       1.0  0.33928076742240876  0.5578538584849397  0.9448848451864721  1.0000
  H   H66       1.0  0.3390324972750349  0.4421553566594271  0.05514557089159669  1.0000
  H   H67       1.0  0.660691120898626  0.9420985222665267  0.4448924945204881  1.0000
  H   H68       1.0  0.6611090224610052  0.057882984626722624  0.5551249545626362  1.0000
  H   H69       1.0  0.38327453512135884  0.5658238281304193  0.038172078215453105  1.0000
  H   H70       1.0  0.3829165027734973  0.43420661952443146  0.9618526928725615  1.0000
  H   H71       1.0  0.6167719950256227  0.9342304492463427  0.538172303040021  1.0000
  H   H72       1.0  0.617015546118182  0.06574519808597051  0.46185022553289207  1.0000
  H   H73       1.0  0.2907362794564036  0.6865418636708113  0.090448283276487  1.0000
  H   H74       1.0  0.29067183808300706  0.3134280556846463  0.9095468762889851  1.0000
  H   H75       1.0  0.7093869143998005  0.8136060825301358  0.5904858109252018  1.0000
  H   H76       1.0  0.7092078240518588  0.18643611838397336  0.40954991922161105  1.0000
  H   H77       1.0  0.20710109741651184  0.6239256695356447  0.0392208696567664  1.0000
  H   H78       1.0  0.2069959351677753  0.37607363107198205  0.9606879607953189  1.0000
  H   H79       1.0  0.7929772450528885  0.8761346564136191  0.5392564494363157  1.0000
  H   H80       1.0  0.792966206339173  0.12386824651159864  0.46071459011172067  1.0000
  H   H81       1.0  0.1520844143440314  0.721782924509512  0.9531225495408933  1.0000
  H   H82       1.0  0.15219701628492996  0.2782505837304683  0.0468446572034722  1.0000
  H   H83       1.0  0.8477088747920473  0.7780049611647398  0.4531638650535115  1.0000
  H   H84       1.0  0.8478593296312695  0.22181461160815993  0.5468472204145485  1.0000
  H   H85       1.0  0.10863952786819198  0.7364069366999716  0.0458274051591445  1.0000
  H   H86       1.0  0.10857474310186177  0.2636337558312504  0.9541494190484414  1.0000
  H   H87       1.0  0.8914372606731575  0.7636338759934843  0.5458633555380105  1.0000
  H   H88       1.0  0.8913789591088556  0.23629366496910365  0.45415732456716285  1.0000
  H   H89       1.0  0.7176628453370739  0.6410079511603045  0.6761914519717749  1.0000
  H   H90       1.0  0.7177128866647919  0.3590507613517389  0.3238032947638203  1.0000
  H   H91       1.0  0.2830476799070354  0.8594953780260256  0.17586704145638526  1.0000
  H   H92       1.0  0.2822734095436345  0.14091360531356398  0.823862366321606  1.0000
  H   H93       1.0  0.23038341168258816  0.8271623066109015  0.05468632421380451  1.0000
  H   H94       1.0  0.23017441048166626  0.17285196687001303  0.945272907198735  1.0000
  H   H95       1.0  0.7698435514923289  0.6729551254856005  0.5549975983276596  1.0000
  H   H96       1.0  0.7698812246401017  0.3271167695653149  0.4452453952922681  1.0000
  H   H97       1.0  0.2043737703450077  0.8422334004669807  0.9201033107214798  1.0000
  H   H98       1.0  0.20435882133131858  0.1577424827069578  0.0799348528225323  1.0000
  H   H99       1.0  0.7945876089027877  0.6571487689924781  0.4203777249417869  1.0000
  H   H100      1.0  0.7955834305934458  0.34227619308388313  0.5799342130830569  1.0000
  H   H101      1.0  0.2668073312223811  0.8408301668789875  0.8455313115045442  1.0000
  H   H102      1.0  0.26685459775988807  0.1591359386916267  0.1545177490968328  1.0000
  H   H103      1.0  0.7321788206753154  0.6589466161507361  0.3457995201668496  1.0000
  H   H104      1.0  0.7331105051944036  0.34083472048457963  0.6544841107216257  1.0000
  C   C1        1.0  0.18834776288542796  0.44286149201590047  0.7710014130540089  1.0000
  C   C2        1.0  0.18809146126996268  0.5573159359863241  0.2291211789942125  1.0000
  C   C3        1.0  0.8119768277541437  0.056992970827899114  0.27103111603280894  1.0000
  C   C4        1.0  0.8116638873888531  0.9429152441449132  0.7290380866195677  1.0000
  C   C5        1.0  0.12659443403452286  0.507632970264666  0.7694576174786932  1.0000
  C   C6        1.0  0.12632646781718648  0.4925562276305087  0.2305684041916223  1.0000
  C   C7        1.0  0.8737208819752806  0.9921886063045025  0.2695193601123478  1.0000
  C   C8        1.0  0.8733728069635517  0.0076743655618116986  0.7305440694047932  1.0000
  C   C9        1.0  0.1800018361146627  0.5746373084447854  0.7822150949929992  1.0000
  C   C10       1.0  0.17975262496908329  0.4255257402245363  0.217763548153556  1.0000
  C   C11       1.0  0.820256395045021  0.9251992920858498  0.2822470641114094  1.0000
  C   C12       1.0  0.819932514662419  0.07467938869287849  0.7177542921347637  1.0000
  C   C13       1.0  0.2952711848235126  0.5772917883615777  0.7940497835943106  1.0000
  C   C14       1.0  0.29501855199278276  0.4228437400454085  0.2059851980424483  1.0000
  C   C15       1.0  0.7049769497364622  0.9226075916489691  0.2940196352159532  1.0000
  C   C16       1.0  0.7046523958041815  0.0773408478306976  0.7059489187103196  1.0000
  C   C17       1.0  0.3582006168255489  0.512235122186226  0.7920189328288387  1.0000
  C   C18       1.0  0.3579522074052831  0.4878751713440084  0.20809057042037443  1.0000
  C   C19       1.0  0.6420693642452376  0.9876757744807423  0.2919427675153727  1.0000
  C   C20       1.0  0.6417739513288723  0.012296803325405399  0.7079890331382614  1.0000
  C   C21       1.0  0.3045979547405436  0.44441508196204177  0.7825837197231778  1.0000
  C   C22       1.0  0.30433107563153067  0.5557186688973205  0.2175763796389631  1.0000
  C   C23       1.0  0.6957155076259055  0.055470212039054397  0.2825324034386441  1.0000
  C   C24       1.0  0.695425330719864  0.9444739870046204  0.7174380033562856  1.0000
  C   C25       1.0  0.1268798469035275  0.3722392492394135  0.7588566739030256  1.0000
  C   C26       1.0  0.12675785075578716  0.6281582802423742  0.24124065627103872  1.0000
  C   C27       1.0  0.8733674313831087  0.12761640692664858  0.2588008960048498  1.0000
  C   C28       1.0  0.8731500800070792  0.8723036627374441  0.7412181309027659  1.0000
  C   C29       1.0  0.1119193184088232  0.6434336424971434  0.7794587520145059  1.0000
  C   C30       1.0  0.11173635129867417  0.3567126386788572  0.2205503596352116  1.0000
  C   C31       1.0  0.8880387216321635  0.8561026228448227  0.2794526229654721  1.0000
  C   C32       1.0  0.8880053719131809  0.14345775338436081  0.7204721717906395  1.0000
  C   C33       1.0  0.5410332338572488  0.4575399453083195  0.7893366123815966  1.0000
  C   C34       1.0  0.5408157264326688  0.5424922278141935  0.2106880556349537  1.0000
  C   C35       1.0  0.45926039654836603  0.04235610694375681  0.28938912002988815  1.0000
  C   C36       1.0  0.4590467566882167  0.9575947550511689  0.7106209497044347  1.0000
  C   C37       1.0  0.6623904514467114  0.48059841113703783  0.7904216910869479  1.0000
  C   C38       1.0  0.6621773463063221  0.5193750580620672  0.2095606484431656  1.0000
  C   C39       1.0  0.33790484803702003  0.0193492249860299  0.29048130830204855  1.0000
  C   C40       1.0  0.3376432740996548  0.9806038479784506  0.7095344067931748  1.0000
  C   C41       1.0  0.8087968944050772  0.526547880204177  0.7173032637309477  1.0000
  C   C42       1.0  0.8087758555613715  0.47341867501486967  0.282717341417289  1.0000
  C   C43       1.0  0.19132031056620485  0.9734411334088623  0.2172263183772785  1.0000
  C   C44       1.0  0.1911323882445686  0.0265396889877039  0.7826898367723913  1.0000
  C   C45       1.0  0.8304181677422945  0.5677245477260301  0.6473403539346734  1.0000
  C   C46       1.0  0.8304809081167335  0.43225517684582837  0.3527060549221943  1.0000
  C   C47       1.0  0.16978183295508834  0.932415786090644  0.1470861422549561  1.0000
  C   C48       1.0  0.16948847376740866  0.0677476078619961  0.8526904703436886  1.0000
  C   C49       1.0  0.8316755802252587  0.7023451910053639  0.078999430519012  1.0000
  C   C50       1.0  0.8313630917826557  0.2976452292461076  0.9210391287427625  1.0000
  C   C51       1.0  0.1685358432347215  0.7975580237363149  0.5788400819392479  1.0000
  C   C52       1.0  0.1686234519809915  0.20238685100781598  0.4210756544952261  1.0000
  C   C53       1.0  0.8781944779546504  0.7238824908807759  0.0122665781543816  1.0000
  C   C54       1.0  0.8779817918719101  0.276107653964516  0.9877595433895365  1.0000
  C   C55       1.0  0.12191140585714777  0.7760635897190014  0.5120611906415817  1.0000
  C   C56       1.0  0.12201563299128537  0.22389636222722942  0.4878002150271428  1.0000
  C   C57       1.0  0.8248786341996135  0.7046943172548198  0.9472112584430548  1.0000
  C   C58       1.0  0.8247378852853302  0.2953180840628278  0.0527906047041853  1.0000
  C   C59       1.0  0.17511925998670108  0.795317384455373  0.44703496921959385  1.0000
  C   C60       1.0  0.17526534533428156  0.2046598059383342  0.552832084030392  1.0000
  C   C61       1.0  0.7237445158467395  0.6655427520130033  0.9475906325730179  1.0000
  C   C62       1.0  0.7236029394003081  0.334502376286288  0.0523913248710386  1.0000
  C   C63       1.0  0.27630229981838983  0.8344132329970151  0.4475163119776512  1.0000
  C   C64       1.0  0.2764158929461543  0.16547968821738826  0.5524395894496479  1.0000
  C   C65       1.0  0.674364411737713  0.6480945863669946  0.014818315652327402  1.0000
  C   C66       1.0  0.6741459638204146  0.3519871826598476  0.9851609157194687  1.0000
  C   C67       1.0  0.3257368206311639  0.8518660628694406  0.5147854234535885  1.0000
  C   C68       1.0  0.3258477683671543  0.1480143544423456  0.48520932959393553  1.0000
  C   C69       1.0  0.729023520901812  0.6661528253213831  0.08023732532254262  1.0000
  C   C70       1.0  0.7287363904358058  0.3338992154030009  0.9197594957810793  1.0000
  C   C71       1.0  0.27113780372261687  0.8337889189975982  0.5801602834935338  1.0000
  C   C72       1.0  0.271239117205468  0.166119024975437  0.4198070368440128  1.0000
  C   C73       1.0  0.894165102207438  0.7156969645855041  0.1487352421359773  1.0000
  C   C74       1.0  0.8938724986968225  0.28426014086374357  0.8515172254947105  1.0000
  C   C75       1.0  0.1060762237105664  0.7841764497359877  0.6483915529055082  1.0000
  C   C76       1.0  0.10611605128922717  0.215806183569569  0.3515368166343222  1.0000
  C   C77       1.0  0.8800101045043431  0.7249758045447052  0.8766803910422069  1.0000
  C   C78       1.0  0.8799219699485548  0.27503085997624055  0.123322282487905  1.0000
  C   C79       1.0  0.11986993612521955  0.7753295163919277  0.3762687953252454  1.0000
  C   C80       1.0  0.12005323514114245  0.22490728826125664  0.6233572760297292  1.0000
  C   C81       1.0  0.5100340671696343  0.5931957366086565  0.9600095940109556  1.0000
  C   C82       1.0  0.5098543492316095  0.4068547002445158  0.0400179205433844  1.0000
  C   C83       1.0  0.4899604604229636  0.9067586595099257  0.4599844541659692  1.0000
  C   C84       1.0  0.490240253933507  0.0931695662061927  0.5400468329286099  1.0000
  C   C85       1.0  0.3890452442126814  0.5913833578892065  0.9834895620555386  1.0000
  C   C86       1.0  0.3888001391144512  0.4086373879279038  0.0165344061506332  1.0000
  C   C87       1.0  0.6109851355388258  0.9086032959408925  0.48348971916026073  1.0000
  C   C88       1.0  0.6112477195154041  0.09136394330959521  0.5165369071572741  1.0000
  C   C89       1.0  0.25793592554921935  0.6745151828210679  0.035141029439614606  1.0000
  C   C90       1.0  0.25786467945991376  0.32547674341318367  0.9648229936020486  1.0000
  C   C91       1.0  0.7421434359802106  0.8255347443877669  0.5351837631509468  1.0000
  C   C92       1.0  0.7420981582910713  0.17446678376771982  0.46482948087539466  1.0000
  C   C93       1.0  0.1810086429783766  0.7346729466508678  0.008709112723472901  1.0000
  C   C94       1.0  0.18101524976471958  0.2653631220312391  0.9912490805847513  1.0000
  C   C95       1.0  0.8189572455843361  0.7652938202722693  0.5087990594440229  1.0000
  C   C96       1.0  0.8189848768993925  0.23462354596732385  0.49124352004140803  1.0000
  O   O1        1.0  0.15117522871827296  0.7003793098800983  0.8104932410641226  1.0000
  O   O2        1.0  0.15113827180653766  0.29976580238624007  0.18956285976148732  1.0000
  O   O3        1.0  0.848001254919339  0.7995717650740489  0.3105357609680794  1.0000
  O   O4        1.0  0.8487200260862122  0.20038860403244743  0.6894596849738763  1.0000
  O   O5        1.0  0.019110538602717497  0.6385079793805633  0.7448522163322622  1.0000
  O   O6        1.0  0.018949056692242998  0.3616414924967657  0.2551205994163368  1.0000
  O   O7        1.0  0.9805717872529908  0.8610997823756533  0.24469674265736074  1.0000
  O   O8        1.0  0.9808639360731273  0.13852866074923753  0.755023571120205  1.0000
  O   O9        1.0  0.0339300741253936  0.3775918747834197  0.7248065941586574  1.0000
  O   O10       1.0  0.033665976364652295  0.6225993136748115  0.27492435736999  1.0000
  O   O11       1.0  0.9662345994403975  0.12224947733042767  0.22471754877671662  1.0000
  O   O12       1.0  0.966095851182004  0.8776580309111992  0.7752628430846258  1.0000
  O   O13       1.0  0.17103966694677547  0.31349635734733994  0.7838416887581658  1.0000
  O   O14       1.0  0.17174719621150555  0.6865883140134983  0.21649033358684736  1.0000
  O   O15       1.0  0.8291089629062397  0.18636110222465166  0.2837630014780004  1.0000
  O   O16       1.0  0.8289906388974798  0.8135427388509415  0.716260487666368  1.0000
  O   O17       1.0  0.4713814861831124  0.5209281300766194  0.7999310061077836  1.0000
  O   O18       1.0  0.471137073568407  0.47913704372544424  0.20012579563620395  1.0000
  O   O19       1.0  0.5288946534181064  0.9789661406339578  0.2998509318951719  1.0000
  O   O20       1.0  0.5285795747527898  0.020995604652974006  0.7000854024949348  1.0000
  O   O21       1.0  0.6895972635763952  0.5208479359953273  0.7261168188155125  1.0000
  O   O22       1.0  0.6895408678691621  0.4790451239245003  0.2738192969576687  1.0000
  O   O23       1.0  0.31053353764941244  0.9791178255749812  0.22612626391867252  1.0000
  O   O24       1.0  0.3103462595939419  0.0208684854418451  0.7738656063371465  1.0000
  O   O25       1.0  0.7903304552090231  0.6431848273841254  0.6516157494403529  1.0000
  O   O26       1.0  0.7903632600265522  0.35681986174290614  0.34844853466307774  1.0000
  O   O27       1.0  0.21052171035810827  0.8571210581961993  0.1510761432150929  1.0000
  O   O28       1.0  0.2096354901970656  0.14316859663151862  0.8484764583403717  1.0000
  O   O29       1.0  0.850850596922271  0.6903871647477614  0.2072560057472401  1.0000
  O   O30       1.0  0.8513908553846646  0.30985165344540627  0.7927283928067084  1.0000
  O   O31       1.0  0.14865328635872288  0.8097753597755784  0.7071759266834691  1.0000
  O   O32       1.0  0.1486013617956985  0.19022666725058462  0.29274140510639773  1.0000
  O   O33       1.0  0.9869301413256293  0.750055917120541  0.1427538522628211  1.0000
  O   O34       1.0  0.9864841245224837  0.2495283048166996  0.8572387491223383  1.0000
  O   O35       1.0  0.013473372180385499  0.7494721325720874  0.6426483240913186  1.0000
  O   O36       1.0  0.013519755349328496  0.2505553240636615  0.3572520343074643  1.0000
  O   O37       1.0  0.966666124101337  0.7655719268277326  0.881746779204086  1.0000
  O   O38       1.0  0.9666566534067724  0.23446325676608382  0.1182967377325781  1.0000
  O   O39       1.0  0.03308385759982709  0.7349461927986951  0.3814621791451813  1.0000
  O   O40       1.0  0.03333138679190029  0.26547769418571227  0.6183244509801897  1.0000
  O   O41       1.0  0.8372378603775985  0.6994465406308094  0.8177865661306427  1.0000
  O   O42       1.0  0.8371528526876091  0.3004821070370554  0.182220483809985  1.0000
  O   O43       1.0  0.16305704449767688  0.8010358523588366  0.3177678144635507  1.0000
  O   O44       1.0  0.16280035200521328  0.19941174500767997  0.6822501436088828  1.0000
  O   O45       1.0  0.5742622663584385  0.613289217166326  0.023508580645589902  1.0000
  O   O46       1.0  0.574019009755382  0.3868277736566768  0.9764915762568337  1.0000
  O   O47       1.0  0.42583734837198506  0.8867062310995519  0.5234918512799069  1.0000
  O   O48       1.0  0.4259688140655199  0.11317462788599639  0.4765367030476142  1.0000
  O   O49       1.0  0.34846811328403493  0.6645340918992987  0.9850693725324788  1.0000
  O   O50       1.0  0.3483822242400762  0.3354733204340832  0.0149427815601513  1.0000
  O   O51       1.0  0.651550104019769  0.8354545075302795  0.485089604908012  1.0000
  O   O52       1.0  0.651656858009879  0.16453319656631757  0.5149455508217073  1.0000
  O   O53       1.0  0.23275366074342677  0.8059042481387735  0.0050168363854581005  1.0000
  O   O54       1.0  0.23278763109583875  0.19409732420903947  0.9949240678317466  1.0000
  O   O55       1.0  0.7671198306127207  0.6940754271770402  0.5053193572242378  1.0000
  O   O56       1.0  0.7672228752231687  0.30589513000320073  0.4948816766732804  1.0000
  O   O57       1.0  0.19574655636910165  0.8552132398859273  0.8671738332424682  1.0000
  O   O58       1.0  0.19576787350183616  0.14480156485959841  0.1328543675172753  1.0000
  O   O59       1.0  0.8030271295322107  0.6440842639485639  0.3674633231572955  1.0000
  O   O60       1.0  0.8041669827372998  0.3552233800050076  0.6328743928426945  1.0000
