data_image0
_chemical_formula_structural       Cu4H108C144I4N28O12
_chemical_formula_sum              "Cu4 H108 C144 I4 N28 O12"
_cell_length_a       8.687210381702785
_cell_length_b       19.69493636900798
_cell_length_c       24.726490717960573
_cell_angle_alpha    90.00005801310814
_cell_angle_beta     90.1755274358731
_cell_angle_gamma    89.99991120322399

_space_group_name_H-M_alt    "P 1"
_space_group_IT_number       1

loop_
  _space_group_symop_operation_xyz
  'x, y, z'

loop_
  _atom_site_type_symbol
  _atom_site_label
  _atom_site_symmetry_multiplicity
  _atom_site_fract_x
  _atom_site_fract_y
  _atom_site_fract_z
  _atom_site_occupancy
  Cu  Cu1       1.0  0.45727761563221486  0.500662406975394  0.5494498550424467  1.0000
  Cu  Cu2       1.0  0.04271211885411931  0.0006628982483647001  0.4505487788179181  1.0000
  Cu  Cu3       1.0  0.5427140855524897  0.499334050133598  0.45054497007065214  1.0000
  Cu  Cu4       1.0  0.9572769731776986  0.9993371130847497  0.5494610009787096  1.0000
  H   H1        1.0  0.0748681235643005  0.9875984838959796  0.7328848240083587  1.0000
  H   H2        1.0  0.4251324719512013  0.48759490806057226  0.2671194766185465  1.0000
  H   H3        1.0  0.9251361815531852  0.012407620360356503  0.2671128776344531  1.0000
  H   H4        1.0  0.574861340596442  0.5124071342459688  0.7328846581217691  1.0000
  H   H5        1.0  0.17384577077483945  0.8891858093556808  0.681243322390259  1.0000
  H   H6        1.0  0.3261643424953106  0.38918237192665833  0.31876255555803823  1.0000
  H   H7        1.0  0.8261516112017873  0.11081470971161883  0.31875516313875357  1.0000
  H   H8        1.0  0.6738456019593997  0.6108125619476966  0.6812408285206005  1.0000
  H   H9        1.0  0.9008988469460207  0.7541001414869727  0.7786146141550249  1.0000
  H   H10       1.0  0.5991150348257293  0.25410079023441773  0.22138639972652646  1.0000
  H   H11       1.0  0.09911572676504932  0.24589733110857995  0.2213875733238311  1.0000
  H   H12       1.0  0.4008903965075419  0.7458987133409638  0.7786125192828454  1.0000
  H   H13       1.0  0.8009748688390346  0.8523381521710361  0.830259171882105  1.0000
  H   H14       1.0  0.6990283198036878  0.3523386618567557  0.16974147360925682  1.0000
  H   H15       1.0  0.19903158085192266  0.1476588126847744  0.16974622176192614  1.0000
  H   H16       1.0  0.30096911195387577  0.6476598262299904  0.8302545854882695  1.0000
  H   H17       1.0  0.31960775694737015  0.7325363173678598  0.6224018107288175  1.0000
  H   H18       1.0  0.18039037172494693  0.23253763008697353  0.3775974340093741  1.0000
  H   H19       1.0  0.6804068416497557  0.26746267846103683  0.377599163535244  1.0000
  H   H20       1.0  0.8195931888348156  0.7674654277089489  0.6224014060817993  1.0000
  H   H21       1.0  0.4684776577560329  0.6488974722858032  0.5685052448264472  1.0000
  H   H22       1.0  0.0315276019228889  0.1489025150870306  0.4314971975858342  1.0000
  H   H23       1.0  0.5315346469548246  0.35109949256470685  0.4314953167244156  1.0000
  H   H24       1.0  0.9684511800385849  0.851103589184632  0.5685101183994021  1.0000
  H   H25       1.0  0.149534610644821  0.497118994653775  0.5965710909085261  1.0000
  H   H26       1.0  0.35045328973632905  0.9971193941008428  0.4034331711427939  1.0000
  H   H27       1.0  0.8504593180501062  0.5028830476488793  0.40342738216007495  1.0000
  H   H28       1.0  0.6495277944155974  0.0028841714464178003  0.5965741531488078  1.0000
  H   H29       1.0  0.9904553533380136  0.5733251348613706  0.6557091741837556  1.0000
  H   H30       1.0  0.5095326984815713  0.07331839619500613  0.34429080028572673  1.0000
  H   H31       1.0  0.0095386085480271  0.42667335322711625  0.34428768126303316  1.0000
  H   H32       1.0  0.49045192193028686  0.9266745067091265  0.6557124924116596  1.0000
  H   H33       1.0  0.9925207922582332  0.10805439605849189  0.8364835530998463  1.0000
  H   H34       1.0  0.5074729025444854  0.608058767918884  0.16351606368471042  1.0000
  H   H35       1.0  0.0074858897264036  0.891943076534268  0.16351051720096174  1.0000
  H   H36       1.0  0.4925255641473357  0.3919463208527533  0.8364856612406443  1.0000
  H   H37       1.0  0.9225407924684886  0.21568662211348064  0.7892757600820701  1.0000
  H   H38       1.0  0.5774640473142156  0.7156869479139303  0.21072357424917953  1.0000
  H   H39       1.0  0.07746476331006853  0.7843118659682916  0.21071709285008922  1.0000
  H   H40       1.0  0.42253331806464445  0.2843166176222596  0.7892757200912187  1.0000
  H   H41       1.0  0.6326289380735588  0.10201529844300687  0.6805483463588121  1.0000
  H   H42       1.0  0.8673705995674511  0.6020170953493391  0.319448051440027  1.0000
  H   H43       1.0  0.3673673591843354  0.8979826818988602  0.3194468997746185  1.0000
  H   H44       1.0  0.132631444845174  0.39798900890639294  0.6805476198698559  1.0000
  H   H45       1.0  0.7059553319427395  0.9949509134172274  0.7266094838482644  1.0000
  H   H46       1.0  0.7940393529392011  0.4949520061829703  0.27338881268919124  1.0000
  H   H47       1.0  0.29404324260895  0.005049097903572902  0.27338698380860654  1.0000
  H   H48       1.0  0.20596609497418683  0.5050546058179677  0.7266092975125887  1.0000
  H   H49       1.0  0.8372017633037031  0.4187321750712059  0.689592944248645  1.0000
  H   H50       1.0  0.6627988425181641  0.9187300387696453  0.31041016897101065  1.0000
  H   H51       1.0  0.16277253873451514  0.5812708827295268  0.31040828904398415  1.0000
  H   H52       1.0  0.3372122861995024  0.08127352676348211  0.6895916016440256  1.0000
  H   H53       1.0  0.7050700189488025  0.5010665404535147  0.6290701163239448  1.0000
  H   H54       1.0  0.7949228304102574  0.0010672574069233002  0.3709326516112625  1.0000
  H   H55       1.0  0.2949054092910828  0.49893804058183383  0.37093233433828493  1.0000
  H   H56       1.0  0.2050905756020853  0.9989378313604222  0.6290703405270293  1.0000
  H   H57       1.0  0.40030784000971653  0.35530833035476667  0.5736045642494149  1.0000
  H   H58       1.0  0.0997105482590825  0.8553074106495094  0.4263964646026325  1.0000
  H   H59       1.0  0.5996964817134796  0.6446901577301747  0.4263923285803061  1.0000
  H   H60       1.0  0.9002912638678068  0.14469361616677653  0.5736105300487679  1.0000
  H   H61       1.0  0.5197892222268479  0.26572083342136216  0.6303714540213081  1.0000
  H   H62       1.0  0.980221182451217  0.7657216052252949  0.36962874727139194  1.0000
  H   H63       1.0  0.4802058575610886  0.7342812088808941  0.3696270232009553  1.0000
  H   H64       1.0  0.019785350187966306  0.2342834835433082  0.6303726023244565  1.0000
  H   H65       1.0  0.011439352281719594  0.9049438660510776  0.8920898753568027  1.0000
  H   H66       1.0  0.4885639821559239  0.40493952240419884  0.10790709253005562  1.0000
  H   H67       1.0  0.9885660790427335  0.09506071497152391  0.10790904365445898  1.0000
  H   H68       1.0  0.511434592398423  0.5950589656824335  0.892089375126247  1.0000
  H   H69       1.0  0.9513290106067557  0.9085399638946118  0.9891764850320045  1.0000
  H   H70       1.0  0.5486763179911449  0.40853680708094253  0.0108225931356358  1.0000
  H   H71       1.0  0.04867531940472251  0.09146309389255693  0.010820003394300703  1.0000
  H   H72       1.0  0.4513221901897921  0.5914637119867978  0.9891771097624016  1.0000
  H   H73       1.0  0.613012729575466  0.06461095716775131  0.9604590415174244  1.0000
  H   H74       1.0  0.8869914097670205  0.5646077905006025  0.039543815429731004  1.0000
  H   H75       1.0  0.3870053222954154  0.9353910851282949  0.03954194520875381  1.0000
  H   H76       1.0  0.11300015867352896  0.4353912053364439  0.9604574801662695  1.0000
  H   H77       1.0  0.6697628190230065  0.0593943019364787  0.8627411940347331  1.0000
  H   H78       1.0  0.830233280808038  0.5593907994333663  0.1372616299390899  1.0000
  H   H79       1.0  0.33025174638035537  0.9406097713407464  0.13726139785171654  1.0000
  H   H80       1.0  0.16975602693029399  0.4406066731689151  0.8627376353234127  1.0000
  H   H81       1.0  0.6915293404820986  0.9104465551379451  0.12447573358981152  1.0000
  H   H82       1.0  0.8084863164312566  0.4104454096792552  0.8755245966013805  1.0000
  H   H83       1.0  0.30849898826712513  0.08955345617843591  0.8755293345697626  1.0000
  H   H84       1.0  0.191511048961722  0.5895500319413788  0.12447469773597675  1.0000
  H   H85       1.0  0.6425803969261994  0.8967009733282372  0.22227025610429513  1.0000
  H   H86       1.0  0.857426099044943  0.3966961070276583  0.7777300305863122  1.0000
  H   H87       1.0  0.3574295723951479  0.10330665416334742  0.7777319147637203  1.0000
  H   H88       1.0  0.14256898905512116  0.6032967958693194  0.22226804222741245  1.0000
  H   H89       1.0  0.5676355490898287  0.1025801435042553  0.24308474166719662  1.0000
  H   H90       1.0  0.9323604254666693  0.6025763971083437  0.756916901357201  1.0000
  H   H91       1.0  0.4323721097510145  0.8974264684989495  0.7569178252982385  1.0000
  H   H92       1.0  0.0676358303188778  0.39741650578768173  0.24308036679994421  1.0000
  H   H93       1.0  0.6045793804100015  0.12494215630649562  0.14369265867533443  1.0000
  H   H94       1.0  0.895423398053353  0.624942124648399  0.856310239195409  1.0000
  H   H95       1.0  0.39544446011267104  0.8750588704970285  0.8563067311982735  1.0000
  H   H96       1.0  0.10457166515271149  0.3750538247177461  0.1436890468348224  1.0000
  H   H97       1.0  0.22894313078182907  0.7714083141086336  0.6886766279253322  1.0000
  H   H98       1.0  0.27106519768425125  0.27140439681627987  0.3113238964521798  1.0000
  H   H99       1.0  0.7710542180116207  0.22859118947033621  0.31132347522379433  1.0000
  H   H100      1.0  0.7289333270988649  0.7285905370589634  0.688674997633534  1.0000
  H   H101      1.0  0.5956648913417979  0.21874481888018948  0.6974712475882543  1.0000
  H   H102      1.0  0.9043433827909766  0.7187445363280178  0.30252850589378266  1.0000
  H   H103      1.0  0.4043371033031278  0.7812557001852556  0.30252685015027236  1.0000
  H   H104      1.0  0.0956516472160303  0.2812595369547992  0.6974723977599738  1.0000
  H   H105      1.0  0.8028270638201391  0.9504902675357841  0.05895404185070422  1.0000
  H   H106      1.0  0.6971780940142266  0.450491318822607  0.9410462808767904  1.0000
  H   H107      1.0  0.19718295529803948  0.04950618957023781  0.9410457025824074  1.0000
  H   H108      1.0  0.3028157849077004  0.5495081847580962  0.05895461862159831  1.0000
  C   C1        1.0  0.932667082570326  0.9268221962728662  0.7856548597234793  1.0000
  C   C2        1.0  0.5673300584333987  0.42682082638310714  0.21434743826964822  1.0000
  C   C3        1.0  0.0673406343547498  0.07317832279172622  0.21434487640382832  1.0000
  C   C4        1.0  0.4326661143783284  0.5731786771970847  0.7856538739411791  1.0000
  C   C5        1.0  0.03597148127062869  0.9365605122455635  0.7427400605905988  1.0000
  C   C6        1.0  0.464033871190601  0.4365594349254211  0.2572654317345382  1.0000
  C   C7        1.0  0.9640236317048902  0.06344000682142342  0.2572567990106053  1.0000
  C   C8        1.0  0.5359691501064745  0.563439560909629  0.7427387362339104  1.0000
  C   C9        1.0  0.09113800485766889  0.8816758077582494  0.7137449605638437  1.0000
  C   C10       1.0  0.4088721843008257  0.38167379237759047  0.2862584853432111  1.0000
  C   C11       1.0  0.9088594186063048  0.1183211570946057  0.28625150293823515  1.0000
  C   C12       1.0  0.591135474560325  0.618321141496999  0.7137440816178683  1.0000
  C   C13       1.0  0.044640070102055104  0.8153958519670754  0.7266347403175858  1.0000
  C   C14       1.0  0.455364652132225  0.3153927715254952  0.27336580446426956  1.0000
  C   C15       1.0  0.9553654193075118  0.1846021283721982  0.2733613478553565  1.0000
  C   C16       1.0  0.5446349822592039  0.6846041933296264  0.7266351158014644  1.0000
  C   C17       1.0  0.9390804239559147  0.8051934574884498  0.7686560929885076  1.0000
  C   C18       1.0  0.5609367085496116  0.3051926228563461  0.2313461847428755  1.0000
  C   C19       1.0  0.06093071306415958  0.19480655383134154  0.23134527322007165  1.0000
  C   C20       1.0  0.43906296732033917  0.6948058652315581  0.7686527134978149  1.0000
  C   C21       1.0  0.8830421321841939  0.8605655972205855  0.7976670559182111  1.0000
  C   C22       1.0  0.6169644396481644  0.360566207772017  0.20233563020685352  1.0000
  C   C23       1.0  0.11696208998330351  0.13943339861241102  0.20233468977316701  1.0000
  C   C24       1.0  0.38303752181536044  0.6394322803156529  0.7976640851514034  1.0000
  C   C25       1.0  0.048395574764065  0.7039240196929414  0.680443970694334  1.0000
  C   C26       1.0  0.4515980075526827  0.20392049686529393  0.3195572580755268  1.0000
  C   C27       1.0  0.9516099229417352  0.2960739606460479  0.3195517130734872  1.0000
  C   C28       1.0  0.548386571373591  0.796074944763838  0.680448056648409  1.0000
  C   C29       1.0  0.1448720689866718  0.6587164039338874  0.6460078378361374  1.0000
  C   C30       1.0  0.35512288798822317  0.15871197891924282  0.3539901260694905  1.0000
  C   C31       1.0  0.8551276151795193  0.3412820841537397  0.35399065599943924  1.0000
  C   C32       1.0  0.6448675708484188  0.8412824472143119  0.6460091433455377  1.0000
  C   C33       1.0  0.2789267316625584  0.680372667782926  0.6197462848918607  1.0000
  C   C34       1.0  0.22107150372808346  0.18037192508781896  0.38025656051792117  1.0000
  C   C35       1.0  0.721076405781794  0.3196263280482442  0.3802522214048737  1.0000
  C   C36       1.0  0.7789269546710358  0.8196311327052047  0.6197455688117942  1.0000
  C   C37       1.0  0.3617016127407524  0.6345258084766531  0.5887473448748182  1.0000
  C   C38       1.0  0.1382933370780393  0.1345282114391964  0.4112550494158498  1.0000
  C   C39       1.0  0.6383038185960572  0.3654716641198377  0.4112515741337931  1.0000
  C   C40       1.0  0.8616970138934333  0.8654743386135239  0.5887494772687917  1.0000
  C   C41       1.0  0.1845105857223004  0.549243046075695  0.6050533524305878  1.0000
  C   C42       1.0  0.3154788719921413  0.04924276600223721  0.3949505749927981  1.0000
  C   C43       1.0  0.8154775958037703  0.4507589962286502  0.3949446954646021  1.0000
  C   C44       1.0  0.6845195034499341  0.9507572453252281  0.6050555983870042  1.0000
  C   C45       1.0  0.09634183987193268  0.5916849719912918  0.637316100115612  1.0000
  C   C46       1.0  0.4036509484405357  0.09168052533370742  0.3626866582620423  1.0000
  C   C47       1.0  0.9036486604352875  0.40831554707754253  0.3626811472760849  1.0000
  C   C48       1.0  0.5963416964348552  0.908313900802945  0.6373182811320106  1.0000
  C   C49       1.0  0.8518801853027682  0.044913814737917314  0.7852004265418843  1.0000
  C   C50       1.0  0.6481103836292449  0.5449135896182826  0.21479387333830152  1.0000
  C   C51       1.0  0.1481218425306281  0.9550846733475356  0.21479605357539813  1.0000
  C   C52       1.0  0.351884745936097  0.4550884526823111  0.7852021774532291  1.0000
  C   C53       1.0  0.9146158591973261  0.10712928850870183  0.8018654959645773  1.0000
  C   C54       1.0  0.5853790148109184  0.6071295917411205  0.1981329110655636  1.0000
  C   C55       1.0  0.08538735291225658  0.8928702150646902  0.19812937068626008  1.0000
  C   C56       1.0  0.41461719117780405  0.39287448154046706  0.8018667835264851  1.0000
  C   C57       1.0  0.8751019335952323  0.16744123357459278  0.77586618834183  1.0000
  C   C58       1.0  0.6248937988317281  0.6674405294070739  0.2241363119545028  1.0000
  C   C59       1.0  0.12489780034659498  0.8325582700008171  0.22412987906339055  1.0000
  C   C60       1.0  0.3751070032345964  0.33256252838376815  0.7758638036569252  1.0000
  C   C61       1.0  0.7707482791574449  0.16561742101087162  0.7324577427127821  1.0000
  C   C62       1.0  0.7292451408282901  0.6656192426097933  0.2675455567247695  1.0000
  C   C63       1.0  0.22924566613171043  0.8343836058017828  0.2675399215452003  1.0000
  C   C64       1.0  0.2707544769556662  0.3343863539061688  0.7324561723544394  1.0000
  C   C65       1.0  0.713343554490436  0.10295665229486425  0.7143413837000806  1.0000
  C   C66       1.0  0.7866548038964892  0.6029579511847631  0.28565622386360456  1.0000
  C   C67       1.0  0.2866573305426456  0.897043866769586  0.28565468785917864  1.0000
  C   C68       1.0  0.21335068550071407  0.3970471375806214  0.7143398643120024  1.0000
  C   C69       1.0  0.7538361468551499  0.043132141705278605  0.7401642493748429  1.0000
  C   C70       1.0  0.7461578649533037  0.5431349566565942  0.25983087044653536  1.0000
  C   C71       1.0  0.24616818316339106  0.956866854124101  0.25983223904994907  1.0000
  C   C72       1.0  0.25383728119832943  0.45687063985650417  0.740164371536075  1.0000
  C   C73       1.0  0.7772331693852338  0.2849612701526425  0.6994934428858814  1.0000
  C   C74       1.0  0.7227632723166479  0.7849595868016338  0.3005107669885874  1.0000
  C   C75       1.0  0.2227595916233227  0.7150412798956794  0.3005058348394983  1.0000
  C   C76       1.0  0.277235202671406  0.21504550196971908  0.6994905535316462  1.0000
  C   C77       1.0  0.6893980918594024  0.33460703335955355  0.6659412536514465  1.0000
  C   C78       1.0  0.8106016387911126  0.834605842788605  0.3340626013715778  1.0000
  C   C79       1.0  0.3105866114989126  0.6653950089468027  0.3340579949981334  1.0000
  C   C80       1.0  0.18940254188991898  0.16539619951411316  0.6659411663465421  1.0000
  C   C81       1.0  0.740332162839998  0.4021035520375735  0.66491621583463  1.0000
  C   C82       1.0  0.7596661654276461  0.9021034134647293  0.3350884942749701  1.0000
  C   C83       1.0  0.2596455261109297  0.5978974747853202  0.3350882651592003  1.0000
  C   C84       1.0  0.24034843316065502  0.09790065981138701  0.6649124799909887  1.0000
  C   C85       1.0  0.666157155231879  0.44853376350750557  0.631804001294114  1.0000
  C   C86       1.0  0.8338387508834303  0.9485351420246388  0.3681987131731646  1.0000
  C   C87       1.0  0.3338252210552284  0.5514662478215869  0.36819645226275105  1.0000
  C   C88       1.0  0.16616888307489563  0.051467915766338  0.6318050670063116  1.0000
  C   C89       1.0  0.496104041011911  0.36694379385241416  0.6007752083822241  1.0000
  C   C90       1.0  0.0039027792688771  0.8669469652326715  0.3992265964383678  1.0000
  C   C91       1.0  0.5038830060224341  0.6330531710045478  0.39922202654716443  1.0000
  C   C92       1.0  0.9961036953001922  0.1330560925589808  0.6007775839925743  1.0000
  C   C93       1.0  0.5639205118040921  0.3173873996132884  0.6328497497255015  1.0000
  C   C94       1.0  0.9360804712924136  0.8173881984788026  0.36715207456077803  1.0000
  C   C95       1.0  0.4360619142586586  0.6826136272035798  0.3671482774010144  1.0000
  C   C96       1.0  0.06393181681096387  0.18261739803254784  0.6328492958035526  1.0000
  C   C97       1.0  0.846157249191698  0.9828331270324214  0.8701001699941602  1.0000
  C   C98       1.0  0.6538443180228413  0.48282904402925203  0.1299013776505689  1.0000
  C   C99       1.0  0.1538527284364761  0.0171684075222132  0.12990159646646052  1.0000
  C   C100      1.0  0.3461542233465664  0.5171694440584889  0.8700967076262245  1.0000
  C   C101      1.0  0.9232012616536805  0.939722044140602  0.9066220151163125  1.0000
  C   C102      1.0  0.5768108567873186  0.43971542589732593  0.0933775156746108  1.0000
  C   C103      1.0  0.07681333693726342  0.06028050590134631  0.09337895914907793  1.0000
  C   C104      1.0  0.4231830719137832  0.5602830621922691  0.9066209573926616  1.0000
  C   C105      1.0  0.8884783559122625  0.9416956970914189  0.9614420538172583  1.0000
  C   C106      1.0  0.6115360495569105  0.44168847267347644  0.038557891160479606  1.0000
  C   C107      1.0  0.1115420313242979  0.058309391671066635  0.038557323596890604  1.0000
  C   C108      1.0  0.3884613158325436  0.5583089999260481  0.9614414031776379  1.0000
  C   C109      1.0  0.7776760902971346  0.9869936866823399  0.9816498308062622  1.0000
  C   C110      1.0  0.7223335449898017  0.48698991263169233  0.0183505358073646  1.0000
  C   C111      1.0  0.2223373903892636  0.013006832380000303  0.018349521684221805  1.0000
  C   C112      1.0  0.27766840818277677  0.5130055289879181  0.9816495839548767  1.0000
  C   C113      1.0  0.6994823445641885  0.029671987228724106  0.9453103059188808  1.0000
  C   C114      1.0  0.8005150511892795  0.5296689007605195  0.05469047797630821  1.0000
  C   C115      1.0  0.3005253557684214  0.9703285318364152  0.05469023901867592  1.0000
  C   C116      1.0  0.1994846329813242  0.4703270486034938  0.9453080158583165  1.0000
  C   C117      1.0  0.7329356356329982  0.0268194286347381  0.8905398798436935  1.0000
  C   C118      1.0  0.7670606106498284  0.5268164396539278  0.10946130217172373  1.0000
  C   C119      1.0  0.2670685948272081  0.9731815981768652  0.10946146144331691  1.0000
  C   C120      1.0  0.2329413922983931  0.47318001745346566  0.8905363911601613  1.0000
  C   C121      1.0  0.672853075804376  0.03581206435215731  0.06700977666545072  1.0000
  C   C122      1.0  0.8271534990458632  0.5358096452356946  0.9329914494518976  1.0000
  C   C123      1.0  0.3271638415677245  0.9641889624542802  0.9329903970964398  1.0000
  C   C124      1.0  0.17284621001432043  0.46418579638276486  0.0670058311671653  1.0000
  C   C125      1.0  0.655679699528598  0.020341128729469905  0.126104921999854  1.0000
  C   C126      1.0  0.8443246186351914  0.5203381097296788  0.8738966886560677  1.0000
  C   C127      1.0  0.34434639340270223  0.9796598980749283  0.8738969026118044  1.0000
  C   C128      1.0  0.15566584849327111  0.4796588551272124  0.1261021763547845  1.0000
  C   C129      1.0  0.6675137225153662  0.9553875731167312  0.14886914121348846  1.0000
  C   C130      1.0  0.8324844785529565  0.4553853624725335  0.851132777870305  1.0000
  C   C131      1.0  0.3325030704158678  0.04461193045970901  0.851137098624662  1.0000
  C   C132      1.0  0.1675025104095198  0.5446105868969227  0.1488672878945607  1.0000
  C   C133      1.0  0.6392916269873509  0.9472235928862464  0.20396540580938452  1.0000
  C   C134      1.0  0.8607020146880445  0.4472217956647668  0.7960356817500199  1.0000
  C   C135      1.0  0.3607171746599889  0.05277743392488791  0.7960375697127519  1.0000
  C   C136      1.0  0.13928041138353112  0.5527741537048811  0.2039623453745989  1.0000
  C   C137      1.0  0.5941399014731773  0.061093817436919585  0.21527353757322493  1.0000
  C   C138      1.0  0.9058481762717036  0.5610941890640362  0.7847272365706035  1.0000
  C   C139      1.0  0.4058666145832391  0.9389056861402878  0.7847286208307767  1.0000
  C   C140      1.0  0.09413775285720759  0.43890125255804  0.21526837658406353  1.0000
  C   C141      1.0  0.6171082963551767  0.07406309575080168  0.16050006472266182  1.0000
  C   C142      1.0  0.8828866760382256  0.5740625421474378  0.8394991264122069  1.0000
  C   C143      1.0  0.3829097970004085  0.9259369155649679  0.8394988999771442  1.0000
  C   C144      1.0  0.1171027063679801  0.4259339149628971  0.16049649920382342  1.0000
  I   I1        1.0  0.715340429406048  0.5690499271947334  0.5203893965704226  1.0000
  I   I2        1.0  0.7846431075572297  0.06905232213995302  0.47960691844753717  1.0000
  I   I3        1.0  0.284651280076659  0.4309455144245434  0.4796050241371789  1.0000
  I   I4        1.0  0.21534719364919402  0.9309431194883191  0.5204000346651867  1.0000
  N   N1        1.0  0.8815227412874832  0.9841582908564703  0.8145953161211494  1.0000
  N   N2        1.0  0.618465066270339  0.4841578618721414  0.18540335183526221  1.0000
  N   N3        1.0  0.11847695947293599  0.015839181741149802  0.18540236890380168  1.0000
  N   N4        1.0  0.3815276947426299  0.5158421494525741  0.8145959258891651  1.0000
  N   N5        1.0  0.11449850520811111  0.7622973880628408  0.6972186580761034  1.0000
  N   N6        1.0  0.3855075444541497  0.2622943957539122  0.3027822555923835  1.0000
  N   N7        1.0  0.8855034977401103  0.23769906904455243  0.3027790352557815  1.0000
  N   N8        1.0  0.614489804348132  0.7377000303778304  0.6972178475548461  1.0000
  N   N9        1.0  0.31781627686451236  0.5693390128093442  0.581968764698928  1.0000
  N   N10       1.0  0.18218119350576964  0.0693429179611016  0.4180339936008367  1.0000
  N   N11       1.0  0.6821695609952342  0.4306625217524527  0.41803129691435714  1.0000
  N   N12       1.0  0.8178229291033859  0.9306581088541109  0.5819726049527603  1.0000
  N   N13       1.0  0.7111344007051273  0.22357089874429908  0.7064210904142527  1.0000
  N   N14       1.0  0.7888704033674685  0.7235706836385348  0.2935786542126095  1.0000
  N   N15       1.0  0.2888664926233062  0.7764301280645967  0.29357457674007753  1.0000
  N   N16       1.0  0.2111280716197044  0.2764349128775408  0.7064226663078159  1.0000
  N   N17       1.0  0.5461244950746363  0.4318279661203591  0.5995616415774025  1.0000
  N   N18       1.0  0.9538772411806848  0.9318328599073596  0.4004402723676108  1.0000
  N   N19       1.0  0.45386138427775075  0.5681669677586642  0.4004363980078125  1.0000
  N   N20       1.0  0.0461246124264889  0.06816867465225582  0.5995647002583695  1.0000
  N   N21       1.0  0.7477375815510142  0.987024027891536  0.0373954350287065  1.0000
  N   N22       1.0  0.7522708859418543  0.4870220240243057  0.9626057362648341  1.0000
  N   N23       1.0  0.2522724292682739  0.012973952448931004  0.9626047138100945  1.0000
  N   N24       1.0  0.24772763054060937  0.5129754485748208  0.0373935622269457  1.0000
  N   N25       1.0  0.6038833842097588  0.9987859353403581  0.23716798323143  1.0000
  N   N26       1.0  0.8961129678419439  0.49878526844172927  0.7628327734346813  1.0000
  N   N27       1.0  0.39612605469933737  0.0012138916171054001  0.7628321881340131  1.0000
  N   N28       1.0  0.1038809359757522  0.5012101731803682  0.23716691284682415  1.0000
  O   O1        1.0  0.9126032749944318  0.6873153994798218  0.691566586976535  1.0000
  O   O2        1.0  0.5873935311345164  0.18730855841598532  0.3084363367251441  1.0000
  O   O3        1.0  0.0874056179088356  0.31268715056243224  0.3084319400898324  1.0000
  O   O4        1.0  0.4125956189727162  0.8126904374257363  0.6915706122352462  1.0000
  O   O5        1.0  0.9069286417664912  0.30045049867177914  0.7182208821286836  1.0000
  O   O6        1.0  0.5930630338484804  0.8004519257610812  0.28178857997157547  1.0000
  O   O7        1.0  0.0930641109502375  0.6995495126532065  0.2817788000008719  1.0000
  O   O8        1.0  0.4069330725836621  0.19955316301327747  0.7182159674823155  1.0000
  O   O9        1.0  0.6205735751389696  0.0890084837827487  0.04764041193975291  1.0000
  O   O10       1.0  0.8794305125524177  0.5890065626891783  0.9523608456158359  1.0000
  O   O11       1.0  0.3794421579551752  0.9109925430251951  0.9523613752889661  1.0000
  O   O12       1.0  0.12055999606074862  0.41098837118743586  0.04763599736865131  1.0000
