data_image0
_chemical_formula_structural       Tb4H60C84O32
_chemical_formula_sum              "Tb4 H60 C84 O32"
_cell_length_a       12.805331253244272
_cell_length_b       14.025365778491857
_cell_length_c       17.863719439103875
_cell_angle_alpha    100.51904032819368
_cell_angle_beta     111.03803488190889
_cell_angle_gamma    89.98842187561347

_space_group_name_H-M_alt    "P 1"
_space_group_IT_number       1

loop_
  _space_group_symop_operation_xyz
  'x, y, z'

loop_
  _atom_site_type_symbol
  _atom_site_label
  _atom_site_symmetry_multiplicity
  _atom_site_fract_x
  _atom_site_fract_y
  _atom_site_fract_z
  _atom_site_occupancy
  Tb  Tb1       1.0  0.4858995709456622  0.954419919676816  0.3861172945963177  1.0000
  Tb  Tb2       1.0  0.10004340178381463  0.5454845624385668  0.6140093189872148  1.0000
  Tb  Tb3       1.0  0.514093792291213  0.04557488460945079  0.6138822930796124  1.0000
  Tb  Tb4       1.0  0.8999436468925027  0.4545196963691183  0.38598986611533115  1.0000
  H   H1        1.0  0.7942996486699768  0.18714499430004852  0.4571726808627902  1.0000
  H   H2        1.0  0.33720026950361176  0.3128346540844192  0.5427724306919687  1.0000
  H   H3        1.0  0.2056818170148702  0.812849812958092  0.5428251929096319  1.0000
  H   H4        1.0  0.6627879316298504  0.6871557878311382  0.45722668794642385  1.0000
  H   H5        1.0  0.0529110296178743  0.2943183730653162  0.6908160152989566  1.0000
  H   H6        1.0  0.3613227442175529  0.20521948594636544  0.30902301901053875  1.0000
  H   H7        1.0  0.9470768957357337  0.7056844449012303  0.3091740991988703  1.0000
  H   H8        1.0  0.6386837295174672  0.7947891311970565  0.6909790046433955  1.0000
  H   H9        1.0  0.8120250946878897  0.06248838078862921  0.6643344682197707  1.0000
  H   H10       1.0  0.1474901933134518  0.4375631995295563  0.335640433585894  1.0000
  H   H11       1.0  0.1879778047391198  0.9375085968064882  0.33567044910241617  1.0000
  H   H12       1.0  0.8525287087065508  0.5624526825538823  0.6643660713948806  1.0000
  H   H13       1.0  0.16569302556435883  0.2092988513294146  0.7766394832908716  1.0000
  H   H14       1.0  0.3892787351450907  0.29063572153742007  0.22365652958797716  1.0000
  H   H15       1.0  0.8343236349808194  0.7907090407152211  0.22336090497191213  1.0000
  H   H16       1.0  0.6107412219733988  0.709397596269362  0.7763614660683019  1.0000
  H   H17       1.0  0.2687600403400341  0.17973740197057003  0.9142546301910884  1.0000
  H   H18       1.0  0.35470474442836053  0.3200669746721942  0.08597302961181444  1.0000
  H   H19       1.0  0.7312537452532268  0.8202733942320181  0.08574893920230413  1.0000
  H   H20       1.0  0.6453127804258827  0.6799568967010856  0.914040172819668  1.0000
  H   H21       1.0  0.9577406776017128  0.09054096793926192  0.9322184052016455  1.0000
  H   H22       1.0  0.025578985942182435  0.4094451688013904  0.06770261731901432  1.0000
  H   H23       1.0  0.04227011609393833  0.9094502128465579  0.06777242978889575  1.0000
  H   H24       1.0  0.9744362269015455  0.590570710189482  0.932306032542691  1.0000
  H   H25       1.0  0.8543449088743317  0.12159029080448391  0.7955764689782258  1.0000
  H   H26       1.0  0.05911699086831852  0.37906546582055267  0.20455341590777462  1.0000
  H   H27       1.0  0.14567349462115686  0.8784001589148218  0.20441676745548426  1.0000
  H   H28       1.0  0.9408871893477697  0.6209387846937913  0.7954509134068319  1.0000
  H   H29       1.0  0.32981845566983764  0.0644030625143444  0.9816441959041742  1.0000
  H   H30       1.0  0.348425379169626  0.435061943134599  0.018649387777173818  1.0000
  H   H31       1.0  0.6701875068057745  0.9355859220641065  0.018356470860347075  1.0000
  H   H32       1.0  0.6515788074139052  0.5649394074801677  0.9813489857086067  1.0000
  H   H33       1.0  0.43373619336254177  0.0109014563216547  0.11202452138127236  1.0000
  H   H34       1.0  0.3223672794859526  0.4886922469227599  0.8884697618001952  1.0000
  H   H35       1.0  0.5662566431827474  0.98908825527036  0.8879765702244102  1.0000
  H   H36       1.0  0.6776337388607486  0.5112894824162169  0.11151978765329329  1.0000
  H   H37       1.0  0.15713776628057732  0.07299702408064229  0.19097299445316912  1.0000
  H   H38       1.0  0.9665581315118814  0.426979301656381  0.8089386607060902  1.0000
  H   H39       1.0  0.8428548347760484  0.9269912495453881  0.8090171345944059  1.0000
  H   H40       1.0  0.033438480544212744  0.5730074958717069  0.19106583416704134  1.0000
  H   H41       1.0  0.05526445818462379  0.1328617590673318  0.0636469766407757  1.0000
  H   H42       1.0  0.9915953605828208  0.3673419249070165  0.9362250547828669  1.0000
  H   H43       1.0  0.9447358574933915  0.8671417774140054  0.9363486553241529  1.0000
  H   H44       1.0  0.008417014907450908  0.632656498971407  0.0637850718580637  1.0000
  H   H45       1.0  0.5688946519624523  0.8792806927046899  0.2686742212754964  1.0000
  H   H46       1.0  0.301230092797539  0.6205397019443383  0.7316706732274412  1.0000
  H   H47       1.0  0.4311025717711134  0.1207126503969462  0.7313297923970199  1.0000
  H   H48       1.0  0.6987630850353808  0.37946673645406304  0.2683297298093877  1.0000
  H   H49       1.0  0.673982542327778  0.883922744620577  0.3475779634887744  1.0000
  H   H50       1.0  0.32685988241235725  0.6158251389205915  0.6525967251699428  1.0000
  H   H51       1.0  0.3260192906099493  0.11607351233955401  0.6524225953301726  1.0000
  H   H52       1.0  0.6731289357840423  0.3841849390753467  0.34740140413553183  1.0000
  H   H53       1.0  0.30011775828442216  0.797215931490811  0.3213043778935756  1.0000
  H   H54       1.0  0.9788771849780462  0.7025798780946741  0.6789649128151185  1.0000
  H   H55       1.0  0.6998770227715242  0.2027839751842535  0.678687222125241  1.0000
  H   H56       1.0  0.02110800515092141  0.29741493342783076  0.3210300340022627  1.0000
  H   H57       1.0  0.4189860527195393  0.7583290844510556  0.35847191384769433  1.0000
  H   H58       1.0  0.060438686657541034  0.7414893662372392  0.6417730278976279  1.0000
  H   H59       1.0  0.5810049098462288  0.24166571972650533  0.6415278002920034  1.0000
  H   H60       1.0  0.9395444884205305  0.25851053318360323  0.35822366975020986  1.0000
  C   C1        1.0  0.6931373055755898  0.0534772752000237  0.5033075952634364  1.0000
  C   C2        1.0  0.18975386025721264  0.4466271716771785  0.49659741137853086  1.0000
  C   C3        1.0  0.3068555585214554  0.9465197074991564  0.49669414467771844  1.0000
  C   C4        1.0  0.8102403316542208  0.5533719903952916  0.5034057994244492  1.0000
  C   C5        1.0  0.7932594089175141  0.11937403268247242  0.556280949233738  1.0000
  C   C6        1.0  0.2368444700669912  0.380661407797156  0.4436553353284154  1.0000
  C   C7        1.0  0.2067326291977025  0.8806251374839106  0.4437169135142227  1.0000
  C   C8        1.0  0.7631555987361197  0.6193421204815621  0.5563457711552929  1.0000
  C   C9        1.0  0.8351197022563142  0.18469573903770004  0.5217224605038027  1.0000
  C   C10       1.0  0.3132599583220924  0.31526372466924363  0.4782098109183225  1.0000
  C   C11       1.0  0.1648682140371136  0.8153034335750037  0.47827386388899384  1.0000
  C   C12       1.0  0.6867362382314185  0.6847310741868429  0.521793333529928  1.0000
  C   C13       1.0  0.9280125855764041  0.24829833030150184  0.571347602737582  1.0000
  C   C14       1.0  0.35626062108325135  0.251495177539482  0.42853951321826145  1.0000
  C   C15       1.0  0.07196384597029491  0.7517015840266554  0.42863930733810923  1.0000
  C   C16       1.0  0.6437409663236622  0.748511986507239  0.5714617406340637  1.0000
  C   C17       1.0  0.9808004523626224  0.2435803471173443  0.6539452521744309  1.0000
  C   C18       1.0  0.3263904700482598  0.2561942111382294  0.3459394752176621  1.0000
  C   C19       1.0  0.019192692528520208  0.7564210149920426  0.3460457057545909  1.0000
  C   C20       1.0  0.6736140564788118  0.7438129509937143  0.6540629891846592  1.0000
  C   C21       1.0  0.9414693896766622  0.17659458694085825  0.6890662680957008  1.0000
  C   C22       1.0  0.2522635318025692  0.3234578113864543  0.3109145118761347  1.0000
  C   C23       1.0  0.0585383866470508  0.8234038633514869  0.3109263509026619  1.0000
  C   C24       1.0  0.7477522023472787  0.6765500697918299  0.6890931421881206  1.0000
  C   C25       1.0  0.8448380811085485  0.1158457774158208  0.639380278756292  1.0000
  C   C26       1.0  0.20531079749253683  0.384185332442236  0.360568343984518  1.0000
  C   C27       1.0  0.15515864850398503  0.8841512142349333  0.3606154059333805  1.0000
  C   C28       1.0  0.7946997067109507  0.615824729275154  0.639440151124262  1.0000
  C   C29       1.0  0.9693104195096967  0.32417396741952603  0.5373130637843746  1.0000
  C   C30       1.0  0.4315807575108509  0.1755712936112559  0.4625432749306669  1.0000
  C   C31       1.0  0.030672960807990497  0.6758288389317076  0.46268489724762674  1.0000
  C   C32       1.0  0.568416900212327  0.8244329592406957  0.537459642492543  1.0000
  C   C33       1.0  0.002018013108887805  0.16656649325383202  0.774607652543736  1.0000
  C   C34       1.0  0.22752509284438105  0.3336338582733235  0.2255017983316777  1.0000
  C   C35       1.0  0.997995914537725  0.8334283172295469  0.22538734085668483  1.0000
  C   C36       1.0  0.7724851238263355  0.6663783888878  0.7745041565976649  1.0000
  C   C37       1.0  0.11931402093453877  0.18361685391577956  0.810597813152242  1.0000
  C   C38       1.0  0.3089060322620654  0.3164122621651089  0.18963529618596203  1.0000
  C   C39       1.0  0.8807016201466668  0.8163852239479396  0.18940027547669303  1.0000
  C   C40       1.0  0.6911081429927891  0.6836057972621532  0.8103741689272186  1.0000
  C   C41       1.0  0.17784676695921325  0.16574506107242123  0.8882647018454862  1.0000
  C   C42       1.0  0.28976146255045887  0.334167891037268  0.11192614885251125  1.0000
  C   C43       1.0  0.8221659494520281  0.8342584692417606  0.11173476311081747  1.0000
  C   C44       1.0  0.7102550179807919  0.6658494403013435  0.888083851543499  1.0000
  C   C45       1.0  0.12186374984613463  0.13037155079084783  0.9335981135268624  1.0000
  C   C46       1.0  0.1883770593944689  0.3695250760553037  0.06647052220796475  1.0000
  C   C47       1.0  0.8781454184602138  0.8696319811179762  0.06640036801392317  1.0000
  C   C48       1.0  0.8116355905224708  0.6304806271329043  0.9335347782496514  1.0000
  C   C49       1.0  0.0041390794553919355  0.11816572320806532  0.8991567976612629  1.0000
  C   C50       1.0  0.10510971964240673  0.38192244735560615  0.10087594608665282  1.0000
  C   C51       1.0  0.9958724683377513  0.8818276378027219  0.10083495325146427  1.0000
  C   C52       1.0  0.8949040804010552  0.6180897993826733  0.8991302101840973  1.0000
  C   C53       1.0  0.9453776308086504  0.13539554061840423  0.8212112804139127  1.0000
  C   C54       1.0  0.12436719548171747  0.3649822986342173  0.17888077217440926  1.0000
  C   C55       1.0  0.05463482391081702  0.8645949105868453  0.17878109906804704  1.0000
  C   C56       1.0  0.8756401996298352  0.6350248592393511  0.821124466926115  1.0000
  C   C57       1.0  0.18417146623055908  0.10194793477684529  0.012402797493393807  1.0000
  C   C58       1.0  0.17191437476195415  0.39783444628224635  0.9876540252062185  1.0000
  C   C59       1.0  0.8158364841063063  0.898055596491723  0.9875961383163344  1.0000
  C   C60       1.0  0.8280958640750454  0.602171981479202  0.012353086190898995  1.0000
  C   C61       1.0  0.292298911126089  0.0684307195624001  0.028041699280258642  1.0000
  C   C62       1.0  0.2645534500968054  0.43115560383670737  0.9721565590750814  1.0000
  C   C63       1.0  0.7077097069782925  0.9315626237626377  0.9719619092078989  1.0000
  C   C64       1.0  0.735451371679126  0.5688421029161431  0.02784701509709464  1.0000
  C   C65       1.0  0.3503264248285589  0.0371812994886227  0.10032517269392124  1.0000
  C   C66       1.0  0.25048119432577226  0.462427441006824  0.8999385925313989  1.0000
  C   C67       1.0  0.6496761739641244  0.9628120429787472  0.8996791429907063  1.0000
  C   C68       1.0  0.749518446855177  0.5375622776219942  0.10005765437279023  1.0000
  C   C69       1.0  0.3011702805258807  0.036903071994437694  0.15893277793415456  1.0000
  C   C70       1.0  0.14273258928530905  0.46278461968355333  0.8411902394824082  1.0000
  C   C71       1.0  0.6988234159204296  0.9630888233379551  0.8410668833713688  1.0000
  C   C72       1.0  0.8572616311598578  0.5372058230896714  0.15880817195951394  1.0000
  C   C73       1.0  0.19434576620810864  0.07157584389938879  0.1447037389061947  1.0000
  C   C74       1.0  0.049996444997404466  0.4282939895083899  0.8553167174957894  1.0000
  C   C75       1.0  0.805653581072619  0.9284189600727402  0.8552959236473826  1.0000
  C   C76       1.0  0.9500007904936322  0.5716942588755175  0.1446901371202359  1.0000
  C   C77       1.0  0.137068969145659  0.1040442531207262  0.07276258825850591  1.0000
  C   C78       1.0  0.06445819807640166  0.3959128697639045  0.9272346224310866  1.0000
  C   C79       1.0  0.8629345523676409  0.8959585453659925  0.9272401633873246  1.0000
  C   C80       1.0  0.9355456828540056  0.6040833755869031  0.07277363066520351  1.0000
  C   C81       1.0  0.3617716959402415  0.9991851126910234  0.23442681705450505  1.0000
  C   C82       1.0  0.12786781387954005  0.5004303798726042  0.7656331431995228  1.0000
  C   C83       1.0  0.638214599620568  0.0008009754852764999  0.7655660044293385  1.0000
  C   C84       1.0  0.8721285798308216  0.4995629754786037  0.23436272192670074  1.0000
  O   O1        1.0  0.6000265046253973  0.8499786693648019  0.31736407536728006  1.0000
  O   O2        1.0  0.2833533647916867  0.6498260384795248  0.6829597290019224  1.0000
  O   O3        1.0  0.3999752120999745  0.15001830876185807  0.6826405141497318  1.0000
  O   O4        1.0  0.716628198980608  0.3501760422293856  0.3170372289577515  1.0000
  O   O5        1.0  0.3749436864968062  0.7963325403991561  0.3185408797785315  1.0000
  O   O6        1.0  0.05644307188009628  0.7034105080186493  0.681663016383709  1.0000
  O   O7        1.0  0.6250567403747594  0.20366880477943994  0.6814612027364007  1.0000
  O   O8        1.0  0.9435432122899102  0.29659229524601477  0.31833693727239193  1.0000
  O   O9        1.0  0.6751334505689428  0.0245826616989788  0.4278943697750536  1.0000
  O   O10       1.0  0.24738289020488946  0.47566375137176214  0.5719821793187735  1.0000
  O   O11       1.0  0.3248575224056367  0.9754114177966356  0.5721036598889101  1.0000
  O   O12       1.0  0.7526034396417811  0.5243383283827612  0.42801530778748303  1.0000
  O   O13       1.0  0.623824647554791  0.027658572773098904  0.5343809313766954  1.0000
  O   O14       1.0  0.0892879006352842  0.47237672600262925  0.46550537347216203  1.0000
  O   O15       1.0  0.3761625277426931  0.9723442401861105  0.4656125385520441  1.0000
  O   O16       1.0  0.9107033716249832  0.5276253586565147  0.5344887324101182  1.0000
  O   O17       1.0  0.3115209847725141  0.9848191777055603  0.2820628306394682  1.0000
  O   O18       1.0  0.029876522582142667  0.5147097801132148  0.7179347388799115  1.0000
  O   O19       1.0  0.688473203097537  0.015177809149278697  0.717936108810413  1.0000
  O   O20       1.0  0.97011838815893  0.4852915610124242  0.28207016991935074  1.0000
  O   O21       1.0  0.46586570849154907  0.9823426281092439  0.2521958176714706  1.0000
  O   O22       1.0  0.2142314458404257  0.5173150240278943  0.7479572371227192  1.0000
  O   O23       1.0  0.5341113578854433  0.0176267366613772  0.7477956248794798  1.0000
  O   O24       1.0  0.7857629233921983  0.48266815349717973  0.2520366156131787  1.0000
  O   O25       1.0  0.05381113833309589  0.37983223642148534  0.5855727883695608  1.0000
  O   O26       1.0  0.4677056669022194  0.11991073871782729  0.4142490110981215  1.0000
  O   O27       1.0  0.946160077717437  0.6201713089814689  0.41441754962801997  1.0000
  O   O28       1.0  0.5322969802598649  0.8800884254928221  0.5857525839705036  1.0000
  O   O29       1.0  0.9157959549426523  0.3287597609701294  0.4623812601092183  1.0000
  O   O30       1.0  0.4530926094756751  0.17104839101340735  0.5374758204903359  1.0000
  O   O31       1.0  0.08418634847693343  0.671243049428064  0.5376140268952767  1.0000
  O   O32       1.0  0.5469136838787493  0.8289580450533692  0.46252584218105863  1.0000
