data_image0
_chemical_formula_structural       U4H12C28N4O24
_chemical_formula_sum              "U4 H12 C28 N4 O24"
_cell_length_a       8.17752562002723
_cell_length_b       9.076211838283076
_cell_length_c       11.793489639691721
_cell_angle_alpha    97.47607314526363
_cell_angle_beta     90.00005056428981
_cell_angle_gamma    89.99970400799955

_space_group_name_H-M_alt    "P 1"
_space_group_IT_number       1

loop_
  _space_group_symop_operation_xyz
  'x, y, z'

loop_
  _atom_site_type_symbol
  _atom_site_label
  _atom_site_symmetry_multiplicity
  _atom_site_fract_x
  _atom_site_fract_y
  _atom_site_fract_z
  _atom_site_occupancy
  U   U1        1.0  0.263358632877015  0.3627455036369299  0.096349473852662  1.0000
  U   U2        1.0  0.7633627961140235  0.13724710186208006  0.40365121884364186  1.0000
  U   U3        1.0  0.7366420959502237  0.6372543243030365  0.903650395000099  1.0000
  U   U4        1.0  0.23663670984991111  0.8627527387050267  0.5963494991438623  1.0000
  H   H1        1.0  0.8676949613038687  0.09655311454118731  0.008765276039710604  1.0000
  H   H2        1.0  0.3676959453676716  0.4034468251619999  0.4912386927273431  1.0000
  H   H3        1.0  0.1323033217883562  0.9034500973689675  0.9912382942455124  1.0000
  H   H4        1.0  0.632307229197025  0.5965496819293394  0.5087617203671968  1.0000
  H   H5        1.0  0.8627613175002793  0.0526495599259107  0.7918228158797544  1.0000
  H   H6        1.0  0.36276047548217605  0.44735173375417514  0.7081797008248358  1.0000
  H   H7        1.0  0.137239411328423  0.9473503058869924  0.20817960037754804  1.0000
  H   H8        1.0  0.6372378076169838  0.5526480815671279  0.2918193188928768  1.0000
  H   H9        1.0  0.3610149945344716  0.20161214813073516  0.8092463792712221  1.0000
  H   H10       1.0  0.8610179680450045  0.29838914097976504  0.6907552880101379  1.0000
  H   H11       1.0  0.6389832885683049  0.7983865686591117  0.19075338795024524  1.0000
  H   H12       1.0  0.13898153791168263  0.7016128966502465  0.3092439349698566  1.0000
  C   C1        1.0  0.6168352639861752  0.16678487851520177  0.018213647108524404  1.0000
  C   C2        1.0  0.11683174836797153  0.3332128986843089  0.48179082442771193  1.0000
  C   C3        1.0  0.38316424196984405  0.8332183333921324  0.981789923176791  1.0000
  C   C4        1.0  0.8831689804727532  0.6667825098812303  0.5182103361703838  1.0000
  C   C5        1.0  0.7589792303258491  0.11782281877017202  0.9602949725480556  1.0000
  C   C6        1.0  0.25898222241528396  0.382178928859723  0.5397058287299501  1.0000
  C   C7        1.0  0.24101905275864513  0.8821825775785828  0.039706253594801025  1.0000
  C   C8        1.0  0.7410209521457958  0.6178186767630721  0.4602938368608278  1.0000
  C   C9        1.0  0.7556689315364835  0.0943498614080909  0.8410563875622399  1.0000
  C   C10       1.0  0.2556670451752865  0.4056507903624011  0.658944311537013  1.0000
  C   C11       1.0  0.24433057442382733  0.9056510776904716  0.1589435829215091  1.0000
  C   C12       1.0  0.744334906515249  0.5943490249504394  0.3410547081809979  1.0000
  C   C13       1.0  0.6086402489929839  0.11722594597864601  0.7856293464060045  1.0000
  C   C14       1.0  0.10864467710085529  0.38277538467298217  0.7143713283870595  1.0000
  C   C15       1.0  0.39135925697045343  0.8827738819641484  0.21437052244665722  1.0000
  C   C16       1.0  0.8913584974566077  0.6172233194812623  0.2856275896999705  1.0000
  C   C17       1.0  0.47432198550213656  0.1755487681071131  0.8505352185043975  1.0000
  C   C18       1.0  0.9743223123541327  0.324451985197264  0.6494656183737603  1.0000
  C   C19       1.0  0.5256762975938898  0.8244521583699511  0.1494639028444027  1.0000
  C   C20       1.0  0.0256796393332763  0.6755489412713302  0.3505335029753454  1.0000
  C   C21       1.0  0.5881866613953407  0.07880339020969271  0.6595649533749891  1.0000
  C   C22       1.0  0.0881885793565118  0.42119807276382204  0.8404382654410227  1.0000
  C   C23       1.0  0.411809175971932  0.9211986979260373  0.34043766614409066  1.0000
  C   C24       1.0  0.9118170409331369  0.5787995581019488  0.1595630984196532  1.0000
  C   C25       1.0  0.5983456191999607  0.1747483226184201  0.14506125575915257  1.0000
  C   C26       1.0  0.09835911211040131  0.32525722963676884  0.3549379801954942  1.0000
  C   C27       1.0  0.4016477724252496  0.825258159648769  0.8549383737447017  1.0000
  C   C28       1.0  0.9016477310353112  0.6747425856647737  0.6450610395229218  1.0000
  N   N1        1.0  0.47895174084951725  0.20256093408998055  0.9644372474785284  1.0000
  N   N2        1.0  0.9789533045144483  0.2974398104582505  0.5355644392999608  1.0000
  N   N3        1.0  0.5210477651040506  0.7974422146957921  0.03556207713255332  1.0000
  N   N4        1.0  0.021047424322169696  0.7025566840144253  0.4644351246595236  1.0000
  O   O1        1.0  0.4062412843716531  0.5150022997333323  0.1199713832139366  1.0000
  O   O2        1.0  0.9062397519128922  0.9849981664643366  0.38002703628618656  1.0000
  O   O3        1.0  0.5937569987243735  0.4849986267437388  0.8800277381348636  1.0000
  O   O4        1.0  0.09376097692059912  0.014999439164107307  0.6199726293043923  1.0000
  O   O5        1.0  0.1241812644692075  0.20789928374932748  0.0700739822379646  1.0000
  O   O6        1.0  0.6241833477858878  0.2921083715492614  0.4299254612490557  1.0000
  O   O7        1.0  0.8758157957605803  0.7921015796090034  0.9299208934364955  1.0000
  O   O8        1.0  0.37581982676199743  0.7078948529739223  0.5700789581714147  1.0000
  O   O9        1.0  0.7118055493393386  0.12380476151671627  0.2020422984530299  1.0000
  O   O10       1.0  0.21179544454326302  0.37619034224283615  0.29796113638608546  1.0000
  O   O11       1.0  0.2881927337644186  0.8761939805217624  0.7979591670381296  1.0000
  O   O12       1.0  0.7882003928386752  0.6238061648654496  0.7020392767078505  1.0000
  O   O13       1.0  0.44665128409958754  0.03601322478603211  0.6242368655340939  1.0000
  O   O14       1.0  0.9466535356581928  0.4639854465944142  0.875764612642385  1.0000
  O   O15       1.0  0.5533506675945717  0.9639854919953452  0.3757629016876791  1.0000
  O   O16       1.0  0.053347193166402504  0.5360155051256327  0.12423620697632029  1.0000
  O   O17       1.0  0.7103286653733109  0.09188200547212233  0.5952700109746586  1.0000
  O   O18       1.0  0.2103307381942017  0.40811880514780813  0.9047272840899011  1.0000
  O   O19       1.0  0.2896708405708708  0.9081244767809482  0.4047296185296929  1.0000
  O   O20       1.0  0.7896675449410324  0.5918676384313813  0.0952679686501909  1.0000
  O   O21       1.0  0.4630882026105283  0.2258254418938322  0.1865497044325366  1.0000
  O   O22       1.0  0.9630804616138205  0.2741684258324996  0.3134486771396253  1.0000
  O   O23       1.0  0.5369125262157226  0.7741743607975169  0.8134484661505252  1.0000
  O   O24       1.0  0.03691415290334281  0.7258280560299826  0.686550037684512  1.0000
