data_image0
_chemical_formula_structural       Zn2H34C40N2O12
_chemical_formula_sum              "Zn2 H34 C40 N2 O12"
_cell_length_a       9.562289574647613
_cell_length_b       10.92762729727143
_cell_length_c       17.107995252633263
_cell_angle_alpha    89.55092726308254
_cell_angle_beta     93.14287552623766
_cell_angle_gamma    92.23212754126722

_space_group_name_H-M_alt    "P 1"
_space_group_IT_number       1

loop_
  _space_group_symop_operation_xyz
  'x, y, z'

loop_
  _atom_site_type_symbol
  _atom_site_label
  _atom_site_symmetry_multiplicity
  _atom_site_fract_x
  _atom_site_fract_y
  _atom_site_fract_z
  _atom_site_occupancy
  Zn  Zn1       1.0  0.6397312636594066  0.5252303980869542  0.4958098803544076  1.0000
  Zn  Zn2       1.0  0.35366322579103837  0.5196469514847307  0.4955163995939458  1.0000
  H   H1        1.0  0.376589416111031  0.31887577663037087  0.9953158891119005  1.0000
  H   H2        1.0  0.12776640848036894  0.35319045116013836  0.5513371044262458  1.0000
  H   H3        1.0  0.14013349878044318  0.4079188376842636  0.8499031890475737  1.0000
  H   H4        1.0  0.18974877834056508  0.5651451668901472  0.8665973708783883  1.0000
  H   H5        1.0  0.05545947548457518  0.5230767618898682  0.794650214667435  1.0000
  H   H6        1.0  0.2715138610635464  0.5807013043025435  0.7272290448687289  1.0000
  H   H7        1.0  0.22105695551600488  0.4288372411511928  0.7112813382927927  1.0000
  H   H8        1.0  0.8644968495854713  0.5426824508658825  0.19412115606706956  1.0000
  H   H9        1.0  0.7939811182678227  0.6144384876572458  0.2760441309842606  1.0000
  H   H10       1.0  0.9498905394631763  0.5286752124977311  0.28793535485254307  1.0000
  H   H11       1.0  0.7490783071040568  0.4046617820547098  0.33644352878511097  1.0000
  H   H12       1.0  0.6883217619129739  0.3972364074559208  0.005089630061085905  1.0000
  H   H13       1.0  0.8157563374761737  0.33718093636058905  0.2530913338647522  1.0000
  H   H14       1.0  0.1971420932615331  0.5514118446731402  0.2670995934811486  1.0000
  H   H15       1.0  0.7670990374019482  0.30689377998681505  0.67213769298521  1.0000
  H   H16       1.0  0.8118069702915276  0.2839846542245822  0.9302541392318205  1.0000
  H   H17       1.0  0.20559694982694773  0.3199852499434925  0.05075993981336071  1.0000
  H   H18       1.0  0.1059895847684587  0.03174067481867128  0.4245043152982575  1.0000
  H   H19       1.0  0.14404755491343482  0.18042506327632418  0.46320261386634354  1.0000
  H   H20       1.0  0.07199969866301359  0.16421213588495215  0.3654774009061655  1.0000
  H   H21       1.0  0.32398959903875385  0.21835048136910018  0.3628958402835282  1.0000
  H   H22       1.0  0.2913906289118202  0.06898490189399097  0.3267367163438878  1.0000
  H   H23       1.0  0.7017025563224449  0.3409737115238299  0.1294028475073361  1.0000
  H   H24       1.0  0.9298385182871128  0.8928171453040361  0.6255827087282173  1.0000
  H   H25       1.0  0.8551667506790178  0.8609440983308402  0.5298738776821139  1.0000
  H   H26       1.0  0.8885606300770303  0.015029445030265298  0.5599529695365462  1.0000
  H   H27       1.0  0.7079625613916889  0.9855539471585145  0.6615127557742255  1.0000
  H   H28       1.0  0.6755256799084394  0.832318165297522  0.630692291185362  1.0000
  H   H29       1.0  0.35567876782108954  0.4429060850369594  0.903324346751454  1.0000
  H   H30       1.0  0.34131162117761704  0.8863483840001508  0.41252146696904657  1.0000
  H   H31       1.0  0.6574881390959815  0.15809068797079814  0.5763558751889732  1.0000
  H   H32       1.0  0.1339243596752127  0.6923081941149005  0.4403288920793927  1.0000
  H   H33       1.0  0.8601140971280684  0.3546145315971784  0.5518568338703249  1.0000
  H   H34       1.0  0.8654857834308557  0.6927745856694898  0.4396387961941742  1.0000
  C   C1        1.0  0.4885697573613612  0.2851231734628569  0.48455347885636973  1.0000
  C   C2        1.0  0.9224061100674773  0.4295639969524812  0.5274232748143534  1.0000
  C   C3        1.0  0.925670816032941  0.6178477164978629  0.46453341660749464  1.0000
  C   C4        1.0  0.06775968428337356  0.42860412543986093  0.5269457695622606  1.0000
  C   C5        1.0  0.5062445045409233  0.47942630898698707  0.6475724222584703  1.0000
  C   C6        1.0  0.49148745103190816  0.5083026304096662  0.3436959895129093  1.0000
  C   C7        1.0  0.5195043157464027  0.4442249185294357  0.7324598832460298  1.0000
  C   C8        1.0  0.49194778846218407  0.4523887648596413  0.2640555992689144  1.0000
  C   C9        1.0  0.4077248369951079  0.45289847865982574  0.783733711374943  1.0000
  C   C10       1.0  0.6163511242178004  0.41369913652304285  0.23124020034106965  1.0000
  C   C11       1.0  0.4362054104930095  0.4262139567836343  0.862655386830518  1.0000
  C   C12       1.0  0.5056265976675148  0.7583312174431001  0.5045174074347899  1.0000
  C   C13       1.0  0.6059642275832003  0.369587296417883  0.1547629529982615  1.0000
  C   C14       1.0  0.5650433473985288  0.3847271159312696  0.8932482366537259  1.0000
  C   C15       1.0  0.4797279052446015  0.3633261290042639  0.10900845279775953  1.0000
  C   C16       1.0  0.6714730233237062  0.36662823949046697  0.840403138008931  1.0000
  C   C17       1.0  0.3539631397911691  0.3902858122311841  0.14522026418377726  1.0000
  C   C18       1.0  0.6494800498236515  0.4014280582191744  0.7611354379763002  1.0000
  C   C19       1.0  0.3616456334841445  0.4331980178580039  0.22293877221374467  1.0000
  C   C20       1.0  0.5850691517067262  0.37147788392069697  0.9783790437534565  1.0000
  C   C21       1.0  0.4774144811801905  0.34481958936377294  0.024626626597509513  1.0000
  C   C22       1.0  0.26246039999729476  0.49191795055693155  0.7576486627978269  1.0000
  C   C23       1.0  0.3989458278799561  0.07405265911567939  0.4393844660593303  1.0000
  C   C24       1.0  0.15709431676955893  0.49737393707765415  0.8212996346488242  1.0000
  C   C25       1.0  0.7593426968035998  0.415867526993722  0.27333115845098643  1.0000
  C   C26       1.0  0.8466584224394962  0.533318317425653  0.2568436156896823  1.0000
  C   C27       1.0  0.22618497785193628  0.4542224937409713  0.26229461116247427  1.0000
  C   C28       1.0  0.7699949753334252  0.3922606216248923  0.7075948013195943  1.0000
  C   C29       1.0  0.7975778121732161  0.3015570393503708  0.8660803437316817  1.0000
  C   C30       1.0  0.21632077923234758  0.3832445862312214  0.10162387748754043  1.0000
  C   C31       1.0  0.2929507015574302  0.12465589682889798  0.3802063075078834  1.0000
  C   C32       1.0  0.14447674143703884  0.12489619508898639  0.41000480627373304  1.0000
  C   C33       1.0  0.7059541012260837  0.9245367677659786  0.6104361132059639  1.0000
  C   C34       1.0  0.5988711710780379  0.9702872727069192  0.5499722925827089  1.0000
  C   C35       1.0  0.8538123086134349  0.9233720183346177  0.5797361721413027  1.0000
  C   C36       1.0  0.40972588677979616  0.947780664344087  0.448742946455056  1.0000
  C   C37       1.0  0.5883686940657569  0.09678578857729288  0.5402364636797757  1.0000
  C   C38       1.0  0.5066506019202137  0.8950572417635956  0.5022922291786855  1.0000
  C   C39       1.0  0.49101772094968504  0.1485368031499306  0.48708788169927436  1.0000
  C   C40       1.0  0.07094174220273429  0.6172771111751985  0.46441872693529274  1.0000
  N   N1        1.0  0.8532388506406859  0.5239250822311943  0.4960436204753905  1.0000
  N   N2        1.0  0.1400766692924336  0.5223223197054949  0.4954867229006228  1.0000
  O   O1        1.0  0.6027590598118805  0.3423954888237048  0.4697488992865645  1.0000
  O   O2        1.0  0.8672743805081352  0.4683867368764324  0.7060991978280742  1.0000
  O   O3        1.0  0.8820129782999259  0.262578542369411  0.821515892951169  1.0000
  O   O4        1.0  0.11522181207016051  0.44192759049458635  0.11851794709527043  1.0000
  O   O5        1.0  0.38693324065140183  0.7028285452360661  0.490948424485282  1.0000
  O   O6        1.0  0.3743570386039963  0.3342437529503143  0.49955690742490344  1.0000
  O   O7        1.0  0.6213765012088784  0.70536789026535  0.5179268449533724  1.0000
  O   O8        1.0  0.6168874585486889  0.4672483139723764  0.6098808926585948  1.0000
  O   O9        1.0  0.3726985382532888  0.5058712365050508  0.3747369060632125  1.0000
  O   O10       1.0  0.3916195422915436  0.5172939272937355  0.617486504148893  1.0000
  O   O11       1.0  0.6045069745618646  0.5539359041485098  0.3757339912448573  1.0000
  O   O12       1.0  0.1499802710852833  0.36904168763772544  0.28338750175260696  1.0000
