data_image0
_chemical_formula_structural       Zn4H48C96N8O24
_chemical_formula_sum              "Zn4 H48 C96 N8 O24"
_cell_length_a       13.074820555606484
_cell_length_b       13.129896941412111
_cell_length_c       22.345901927022883
_cell_angle_alpha    90.00014572695062
_cell_angle_beta     90.0000177135859
_cell_angle_gamma    111.33155081843614

_space_group_name_H-M_alt    "P 1"
_space_group_IT_number       1

loop_
  _space_group_symop_operation_xyz
  'x, y, z'

loop_
  _atom_site_type_symbol
  _atom_site_label
  _atom_site_symmetry_multiplicity
  _atom_site_fract_x
  _atom_site_fract_y
  _atom_site_fract_z
  _atom_site_occupancy
  Zn  Zn1       1.0  0.14711294627468874  0.24679167317171397  0.7887363189216856  1.0000
  Zn  Zn2       1.0  0.13180214169513962  0.26248531049732554  0.9156401350821709  1.0000
  Zn  Zn3       1.0  0.852890148269296  0.7532066348679936  0.2887377015333286  1.0000
  Zn  Zn4       1.0  0.8681974088797376  0.7375135855975259  0.41564149710095677  1.0000
  H   H1        1.0  0.30539154000775426  0.35414327039153193  0.6935972691141998  1.0000
  H   H2        1.0  0.30992865166989253  0.3585144847412495  0.5807524206155463  1.0000
  H   H3        1.0  0.9893133900827921  0.10153236323273522  0.5829598557181299  1.0000
  H   H4        1.0  0.9973475505393523  0.1085384602263773  0.6947432217220353  1.0000
  H   H5        1.0  0.1403933765145596  0.9826811812040577  0.40182834121134897  1.0000
  H   H6        1.0  0.133663282898006  0.988669937268313  0.2897272534039743  1.0000
  H   H7        1.0  0.13988441421572168  0.5048902702829353  0.3026836305879215  1.0000
  H   H8        1.0  0.14442338512229472  0.49776248239825094  0.4151181118033165  1.0000
  H   H9        1.0  0.4676075910995224  0.31839313722397833  0.9631008121655428  1.0000
  H   H10       1.0  0.6515496875169545  0.30317350943678184  0.9755585832226501  1.0000
  H   H11       1.0  0.8094177346741702  0.26499813599482996  0.9304518647345219  1.0000
  H   H12       1.0  0.8254192863412227  0.22853525908113437  0.7401811569610574  1.0000
  H   H13       1.0  0.6474283120839175  0.25626729303557033  0.7273908963660746  1.0000
  H   H14       1.0  0.48311991965663037  0.27964620524804223  0.7731388840894127  1.0000
  H   H15       1.0  0.12462712728329717  0.942927399766056  0.966552886427081  1.0000
  H   H16       1.0  0.13274851606761473  0.7557952634010335  0.9768208493232109  1.0000
  H   H17       1.0  0.1426667663939796  0.5880596917233234  0.9287036247883763  1.0000
  H   H18       1.0  0.1555525644955225  0.5672013932699755  0.737503898979149  1.0000
  H   H19       1.0  0.14753053541409145  0.753780670547947  0.7273048521187134  1.0000
  H   H20       1.0  0.13788236802598428  0.922108496657721  0.7755527498510163  1.0000
  H   H21       1.0  0.2814108134613988  0.38272765181758217  0.011652560749219302  1.0000
  H   H22       1.0  0.2886200549740822  0.38008834142521425  0.12438866686927949  1.0000
  H   H23       1.0  0.9637848038208503  0.13030847109055801  0.121287303565353  1.0000
  H   H24       1.0  0.9697059836734425  0.1436013441682888  0.0093352430127638  1.0000
  H   H25       1.0  0.694609956341985  0.6458593902880382  0.1935980141557607  1.0000
  H   H26       1.0  0.6900700631441837  0.6414891664534182  0.0807531582753072  1.0000
  H   H27       1.0  0.010688638143754823  0.8984632395272386  0.0829617454122697  1.0000
  H   H28       1.0  0.002657342194801541  0.8914585846297242  0.19474554695212729  1.0000
  H   H29       1.0  0.8596046008311332  0.017317614261465105  0.9018298814525992  1.0000
  H   H30       1.0  0.8663365345213024  0.011329938961928604  0.7897292334631913  1.0000
  H   H31       1.0  0.860122250048704  0.495113861654744  0.8026845425462311  1.0000
  H   H32       1.0  0.8555806699027572  0.5022405561120424  0.9151185860559395  1.0000
  H   H33       1.0  0.5323947258946689  0.6816158014249111  0.46309934275623027  1.0000
  H   H34       1.0  0.34844989336784943  0.6968297570402128  0.4755553121119362  1.0000
  H   H35       1.0  0.1905848459456081  0.7349984565856361  0.4304504111858805  1.0000
  H   H36       1.0  0.1745744801125255  0.7714561267709713  0.2401810974428855  1.0000
  H   H37       1.0  0.35256587976437714  0.7437297200573882  0.22738814364031157  1.0000
  H   H38       1.0  0.5168796011845844  0.7203462703004322  0.2731365746614358  1.0000
  H   H39       1.0  0.8753779357912778  0.05707186190490182  0.4665532327447934  1.0000
  H   H40       1.0  0.8672529215471486  0.24420235907244597  0.47682236884176626  1.0000
  H   H41       1.0  0.8573361807138582  0.4119401474164592  0.4287067356926855  1.0000
  H   H42       1.0  0.8444507772608889  0.43279990394990636  0.23750703865069056  1.0000
  H   H43       1.0  0.8524675060792005  0.2462164140931691  0.22730681939196978  1.0000
  H   H44       1.0  0.8621164456222133  0.07789291207399883  0.2755544673359083  1.0000
  H   H45       1.0  0.7185902443470766  0.6172740625548913  0.5116549713536429  1.0000
  H   H46       1.0  0.7113852954694694  0.6199189075424983  0.624390632565273  1.0000
  H   H47       1.0  0.036217858540133895  0.8696954629100875  0.6212868312482271  1.0000
  H   H48       1.0  0.03029555334899922  0.8563995550315014  0.5093347497170484  1.0000
  C   C1        1.0  0.3510236312649724  0.29879100295315203  0.8606641068361256  1.0000
  C   C2        1.0  0.12374113111388144  0.05239556771019951  0.8639074491909184  1.0000
  C   C3        1.0  0.931481967614566  0.22505838999684613  0.84367665117572  1.0000
  C   C4        1.0  0.15591899984272578  0.45706996346618944  0.8399964351521305  1.0000
  C   C5        1.0  0.2375343619600869  0.3001876751865283  0.6668504837379601  1.0000
  C   C6        1.0  0.23978067093260338  0.3019805700712936  0.6047223150071019  1.0000
  C   C7        1.0  0.1491657416456533  0.23093600523841223  0.5739089972865301  1.0000
  C   C8        1.0  0.0606270760376191  0.1589753027105303  0.6056758337977328  1.0000
  C   C9        1.0  0.0648496312730487  0.1625191634461061  0.6678733710709253  1.0000
  C   C10       1.0  0.1445765309403129  0.13937361510105728  0.47858406721022106  1.0000
  C   C11       1.0  0.14424156584097864  0.14627068848881924  0.41256346574429875  1.0000
  C   C12       1.0  0.1420887105487196  0.056504253615244714  0.3788950326662004  1.0000
  C   C13       1.0  0.138148813335583  0.059840757067291916  0.3161734671150143  1.0000
  C   C14       1.0  0.1363607739345056  0.1528860123763067  0.2872053613748236  1.0000
  C   C15       1.0  0.12891106603482433  0.15318025238394742  0.22126664851957398  1.0000
  C   C16       1.0  0.13441897369929734  0.3474927001330031  0.2261115304528687  1.0000
  C   C17       1.0  0.13895504786672322  0.3422798521397541  0.2920309964577754  1.0000
  C   C18       1.0  0.14116077327570764  0.4321715387310618  0.3257173300083451  1.0000
  C   C19       1.0  0.14395690023237506  0.42826218082432627  0.38836684601942306  1.0000
  C   C20       1.0  0.14537900676456422  0.3349704911208279  0.4173394266346975  1.0000
  C   C21       1.0  0.14710703424781002  0.33252095786510694  0.4833752468725621  1.0000
  C   C22       1.0  0.14413217207901852  0.24271380663819295  0.3840777777775343  1.0000
  C   C23       1.0  0.1402611987051898  0.2462237780231221  0.3204388181991931  1.0000
  C   C24       1.0  0.4656745923029674  0.299946312681115  0.8669798178499519  1.0000
  C   C25       1.0  0.5138146522978246  0.3075502823610634  0.9246105293694954  1.0000
  C   C26       1.0  0.6147570862526877  0.2983376677725645  0.9312815537750438  1.0000
  C   C27       1.0  0.6720910321990203  0.27978653797578096  0.8808642471182678  1.0000
  C   C28       1.0  0.7725843850921948  0.26299278302533935  0.8864388679137177  1.0000
  C   C29       1.0  0.8253561059085756  0.24286032090680015  0.8365863164455121  1.0000
  C   C30       1.0  0.7804494864192435  0.24184833776508452  0.7785805973212944  1.0000
  C   C31       1.0  0.6826801788881555  0.25766643102299014  0.7717972533027364  1.0000
  C   C32       1.0  0.6251038711682427  0.27540653742717325  0.8223071937657593  1.0000
  C   C33       1.0  0.5216409456732903  0.2859722215585521  0.8169679579550787  1.0000
  C   C34       1.0  0.1293925675969519  0.9411726113989404  0.8699937935610151  1.0000
  C   C35       1.0  0.12870544751606874  0.8948966711162429  0.9274705170314519  1.0000
  C   C36       1.0  0.13344338412040477  0.7923041396601963  0.9328392104499983  1.0000
  C   C37       1.0  0.1398113237049046  0.7315503872236347  0.8812019570042366  1.0000
  C   C38       1.0  0.14444248765722992  0.626031205387882  0.8851457784618192  1.0000
  C   C39       1.0  0.1512270623373624  0.5689213622933026  0.8341422010149203  1.0000
  C   C40       1.0  0.1518227567195112  0.6150843248742675  0.7766793502412809  1.0000
  C   C41       1.0  0.146989344021506  0.7176750713675304  0.7713974736259673  1.0000
  C   C42       1.0  0.14138692299997055  0.7786672981407892  0.8230159319289355  1.0000
  C   C43       1.0  0.13622530855466414  0.884031994267339  0.8190971708297708  1.0000
  C   C44       1.0  0.212793333834739  0.32950680552659867  0.0382027966600091  1.0000
  C   C45       1.0  0.21661735514567948  0.32715168038684794  0.10025399393060748  1.0000
  C   C46       1.0  0.12614526566814988  0.25524903661445825  0.1307946546910728  1.0000
  C   C47       1.0  0.035223282185803804  0.18799078301337602  0.0987556116674924  1.0000
  C   C48       1.0  0.038000021658270086  0.19526036082135784  0.0366131267800611  1.0000
  C   C49       1.0  0.6489753019954064  0.7012084103138817  0.36066358354508316  1.0000
  C   C50       1.0  0.8762570399951175  0.9476038480301414  0.3639073366976504  1.0000
  C   C51       1.0  0.06851683917083316  0.7749384967858577  0.3436761295096247  1.0000
  C   C52       1.0  0.8440790281112528  0.5429268897967817  0.3400028719281281  1.0000
  C   C53       1.0  0.7624667847558158  0.6998140288726944  0.1668517696278258  1.0000
  C   C54       1.0  0.7602195560652305  0.6980207964556657  0.10472315028728468  1.0000
  C   C55       1.0  0.8508356658549161  0.7690644123100654  0.0739099557054175  1.0000
  C   C56       1.0  0.939372868093443  0.841025251269521  0.10567781135554101  1.0000
  C   C57       1.0  0.9351537422872414  0.8374801509940968  0.167875342541322  1.0000
  C   C58       1.0  0.855420661803514  0.860627185800702  0.9785846295996379  1.0000
  C   C59       1.0  0.8557557529396433  0.8537305865439822  0.9125644653971675  1.0000
  C   C60       1.0  0.857910836988161  0.9434968894941279  0.8788957193847508  1.0000
  C   C61       1.0  0.8618474176149958  0.9401575641024635  0.8161737020717795  1.0000
  C   C62       1.0  0.8636359575277056  0.8471137931480401  0.7872063526129125  1.0000
  C   C63       1.0  0.8710886719019016  0.8468217059047022  0.7212676407132862  1.0000
  C   C64       1.0  0.8655851960943083  0.6525109903554313  0.7261122311828246  1.0000
  C   C65       1.0  0.861045830239554  0.6577208679750655  0.7920317041282346  1.0000
  C   C66       1.0  0.8588420111300438  0.5678302028917629  0.8257179029077265  1.0000
  C   C67       1.0  0.8560455503747234  0.5717406897558774  0.8883669767304738  1.0000
  C   C68       1.0  0.8546188083307201  0.6650300056400837  0.9173405915375596  1.0000
  C   C69       1.0  0.8528930502858502  0.6674815461660943  0.983376415115167  1.0000
  C   C70       1.0  0.8558676731170536  0.7572881809379485  0.8840790808092577  1.0000
  C   C71       1.0  0.8597356128603408  0.7537762003523414  0.8204401167069548  1.0000
  C   C72       1.0  0.534324071013238  0.7000523159240689  0.36697882387564823  1.0000
  C   C73       1.0  0.4861850054239342  0.692451098510958  0.42460817249875765  1.0000
  C   C74       1.0  0.3852415324120031  0.7016629158890028  0.43127874428201096  1.0000
  C   C75       1.0  0.32790863418664173  0.7202105566138572  0.380861454625922  1.0000
  C   C76       1.0  0.2274139544294655  0.7370026911468059  0.3864374242512127  1.0000
  C   C77       1.0  0.1746419138181068  0.7571365146028768  0.3365862355322307  1.0000
  C   C78       1.0  0.2195470531923718  0.758146546633995  0.2785796313004951  1.0000
  C   C79       1.0  0.3173174850375773  0.7423316881286722  0.2717949394020351  1.0000
  C   C80       1.0  0.374892688305941  0.7245861362623315  0.3223044166058884  1.0000
  C   C81       1.0  0.4783566560685202  0.7140212562693264  0.3169660793759377  1.0000
  C   C82       1.0  0.8706047626849198  0.05882438347407512  0.3699954841357851  1.0000
  C   C83       1.0  0.8712943312095902  0.10510066588647503  0.4274713818843238  1.0000
  C   C84       1.0  0.8665548676080519  0.20769319647495627  0.4328411227782851  1.0000
  C   C85       1.0  0.8601847788197077  0.2684474546595866  0.3812035114396579  1.0000
  C   C86       1.0  0.855556133918995  0.3739650795785395  0.3851483847662536  1.0000
  C   C87       1.0  0.8487722918059294  0.4310771099312874  0.334146681450342  1.0000
  C   C88       1.0  0.848177029250536  0.384915483493117  0.2766815240206597  1.0000
  C   C89       1.0  0.8530125394894624  0.28232637334089367  0.2713999424797819  1.0000
  C   C90       1.0  0.8586093244451192  0.22133105862167923  0.3230178631546181  1.0000
  C   C91       1.0  0.8637719845800332  0.11596717401761945  0.3190984980256957  1.0000
  C   C92       1.0  0.78720961307058  0.6704958932331383  0.538203062102319  1.0000
  C   C93       1.0  0.7833872812620655  0.6728513699026665  0.6002551571968765  1.0000
  C   C94       1.0  0.8738589595482223  0.744754975630414  0.6307950473344661  1.0000
  C   C95       1.0  0.964778555899187  0.8120130194048658  0.5987565693572705  1.0000
  C   C96       1.0  0.9620026362498422  0.8047415121629057  0.5366140730833564  1.0000
  N   N1        1.0  0.15130222901387214  0.23240732816633175  0.6976981393884215  1.0000
  N   N2        1.0  0.14720997037384365  0.23406595049346632  0.5097603244560318  1.0000
  N   N3        1.0  0.1282192809105211  0.25092740172048883  0.1949563044131182  1.0000
  N   N4        1.0  0.12506923800938813  0.2649755377726706  0.007127691108934199  1.0000
  N   N5        1.0  0.8487004464633544  0.7675921269971158  0.19769954271725254  1.0000
  N   N6        1.0  0.8527884877970139  0.7659348933330893  0.0097608310531925  1.0000
  N   N7        1.0  0.8717860685622797  0.749075338012389  0.6949575981458693  1.0000
  N   N8        1.0  0.8749334343605285  0.7350286199880857  0.5071294119436018  1.0000
  O   O1        1.0  0.31160934231784415  0.2895577227374986  0.8078911088867002  1.0000
  O   O2        1.0  0.3005007896319754  0.3032766814846823  0.9087816530793091  1.0000
  O   O3        1.0  0.12589613264213284  0.08923953731380864  0.810995314157644  1.0000
  O   O4        1.0  0.11734024237929219  0.10144765739251231  0.9120733638766652  1.0000
  O   O5        1.0  0.9795589051608006  0.21394022173397795  0.7958231302623132  1.0000
  O   O6        1.0  0.9663622121241388  0.22269265777785563  0.8967924321931732  1.0000
  O   O7        1.0  0.1642292616532188  0.40896321323989343  0.7918224661831913  1.0000
  O   O8        1.0  0.1495042282528942  0.4185950870020393  0.8928101165116047  1.0000
  O   O9        1.0  0.1435948253014843  0.057977606133484016  0.5062203935779053  1.0000
  O   O10       1.0  0.12445715403952559  0.07494838492172562  0.1896035132345304  1.0000
  O   O11       1.0  0.13522056824380263  0.4283460552624022  0.19829261984884278  1.0000
  O   O12       1.0  0.14784773963253886  0.40922391426239824  0.5150437507798671  1.0000
  O   O13       1.0  0.688390518879011  0.7104422479581917  0.3078906067697673  1.0000
  O   O14       1.0  0.699498744410633  0.6967221789359926  0.4087820275526965  1.0000
  O   O15       1.0  0.8741027664308447  0.9107620557519384  0.3109946986836221  1.0000
  O   O16       1.0  0.8826594992310178  0.8985495995207915  0.41207138922464986  1.0000
  O   O17       1.0  0.020440071450259792  0.7860572336696665  0.2958235112402576  1.0000
  O   O18       1.0  0.0336363234138021  0.7773077465085125  0.3967919075410364  1.0000
  O   O19       1.0  0.8357697053229245  0.5910342213730148  0.29182942081880014  1.0000
  O   O20       1.0  0.8504927863328363  0.5813987709130828  0.39281661199288465  1.0000
  O   O21       1.0  0.8563992896893566  0.9420239504148641  0.0062225065754191  1.0000
  O   O22       1.0  0.8755401976724074  0.9250533654965949  0.6896055182114083  1.0000
  O   O23       1.0  0.8647827645264812  0.5716574761367924  0.69829185705062  1.0000
  O   O24       1.0  0.8521572617232491  0.590780327855569  0.0150435479462132  1.0000
