data_image0
_chemical_formula_structural       Zn12H88C136N8O48
_chemical_formula_sum              "Zn12 H88 C136 N8 O48"
_cell_length_a       11.700072441525698
_cell_length_b       17.1540716944002
_cell_length_c       21.510290740034225
_cell_angle_alpha    90.00003666946925
_cell_angle_beta     90.00018452640998
_cell_angle_gamma    105.38495120934782

_space_group_name_H-M_alt    "P 1"
_space_group_IT_number       1

loop_
  _space_group_symop_operation_xyz
  'x, y, z'

loop_
  _atom_site_type_symbol
  _atom_site_label
  _atom_site_symmetry_multiplicity
  _atom_site_fract_x
  _atom_site_fract_y
  _atom_site_fract_z
  _atom_site_occupancy
  Zn  Zn1       1.0  0.17649348832831896  0.27230101476061463  0.4307298746782917  1.0000
  Zn  Zn2       1.0  0.3235068224454381  0.7276991257319025  0.9307294060904352  1.0000
  Zn  Zn3       1.0  0.8235082287169533  0.727698154102015  0.5692726196175072  1.0000
  Zn  Zn4       1.0  0.6764914832846358  0.27230006208230867  0.06926983394603779  1.0000
  Zn  Zn5       1.0  0.3555458123362385  0.16883854199429046  0.379263941129693  1.0000
  Zn  Zn6       1.0  0.14445415391234928  0.8311614951359374  0.8792627467341062  1.0000
  Zn  Zn7       1.0  0.6444531043553356  0.8311600364837092  0.6207376233759729  1.0000
  Zn  Zn8       1.0  0.8555468249577416  0.16884010159972015  0.12073602841156367  1.0000
  Zn  Zn9       1.0  0.9342514746895177  0.6321440382755769  0.4661931928609704  1.0000
  Zn  Zn10      1.0  0.5657445555139732  0.3678562221743464  0.9661916223117542  1.0000
  Zn  Zn11      1.0  0.06574853669426527  0.3678551400616784  0.5338065120707539  1.0000
  Zn  Zn12      1.0  0.4342542339576952  0.6321441748386007  0.033806687937925496  1.0000
  H   H1        1.0  0.5949159055230878  0.20885621897917164  0.3261677149247005  1.0000
  H   H2        1.0  0.9050803966924053  0.7911467832521243  0.8261683518237317  1.0000
  H   H3        1.0  0.4050849586883275  0.7911429546198434  0.6738324549015358  1.0000
  H   H4        1.0  0.09491887652552583  0.20885482296096575  0.17383042332044593  1.0000
  H   H5        1.0  0.7328778340346388  0.13471403680931363  0.27970215018292066  1.0000
  H   H6        1.0  0.7671193664988538  0.8652918951037452  0.7797044427555803  1.0000
  H   H7        1.0  0.267120840778361  0.8652839370669837  0.7202975547473256  1.0000
  H   H8        1.0  0.2328788120222072  0.1347091112486823  0.220294797281241  1.0000
  H   H9        1.0  0.6805762217269092  0.9832078117996232  0.28933817534911543  1.0000
  H   H10       1.0  0.8194246964843545  0.016798725109637803  0.7893391938463806  1.0000
  H   H11       1.0  0.3194209893062876  0.0167907761539254  0.710661529580001  1.0000
  H   H12       1.0  0.18057153451219696  0.9832016861203742  0.21066004618858605  1.0000
  H   H13       1.0  0.4902307410777099  0.9123460492218243  0.3433725922399943  1.0000
  H   H14       1.0  0.009772625544066223  0.08765874314902794  0.8433731039778676  1.0000
  H   H15       1.0  0.5097667118309631  0.08765314333250271  0.656628042477017  1.0000
  H   H16       1.0  0.9902242164077678  0.9123410587429106  0.1566266009512418  1.0000
  H   H17       1.0  0.3594919602620836  0.9958480959899351  0.3837843191434159  1.0000
  H   H18       1.0  0.1405087618701728  0.0041537640202023  0.8837850173008017  1.0000
  H   H19       1.0  0.640507440172641  0.004151691687269501  0.6162167804692231  1.0000
  H   H20       1.0  0.8594902694800766  0.995847237594447  0.11621515252429755  1.0000
  H   H21       1.0  0.8886421190150957  0.6376302571359462  0.3300350690334142  1.0000
  H   H22       1.0  0.6113577476031723  0.3623709153694747  0.8300359001423414  1.0000
  H   H23       1.0  0.11135301728769789  0.3623695542343485  0.6699655656817283  1.0000
  H   H24       1.0  0.38864031625454504  0.6376276678449033  0.16996333989376208  1.0000
  H   H25       1.0  0.9561564196962706  0.5827049258318269  0.23290207092092166  1.0000
  H   H26       1.0  0.5438502302494969  0.4172954043459783  0.7329004873632028  1.0000
  H   H27       1.0  0.04384200070025914  0.4172966851213715  0.7670980989037943  1.0000
  H   H28       1.0  0.4561495392588171  0.5827031693905128  0.2670982877806337  1.0000
  H   H29       1.0  0.10801829418817026  0.5033283545204911  0.2420736605891634  1.0000
  H   H30       1.0  0.3919891547196741  0.49667317823048057  0.74206807956795  1.0000
  H   H31       1.0  0.8919812209021174  0.49667385629242494  0.7579251145553838  1.0000
  H   H32       1.0  0.6080059941194521  0.503322391460749  0.2579297657835369  1.0000
  H   H33       1.0  0.18542710286561714  0.4823065544079128  0.3480620626876742  1.0000
  H   H34       1.0  0.3145727691568042  0.5176958431906514  0.8480554268898144  1.0000
  H   H35       1.0  0.814573137841741  0.5176974702045102  0.6519367124579745  1.0000
  H   H36       1.0  0.6854175171423479  0.48229611785594534  0.1519419535627122  1.0000
  H   H37       1.0  0.10854423429385218  0.5422314681592156  0.4404061832178101  1.0000
  H   H38       1.0  0.3914467601524977  0.45776874388784716  0.9404010461609571  1.0000
  H   H39       1.0  0.8914563754964253  0.4577713425152937  0.5595930568216119  1.0000
  H   H40       1.0  0.6085447355115365  0.5422262401588612  0.059597264080934985  1.0000
  H   H41       1.0  0.8849337852053838  0.08336629104626073  0.41821643717709367  1.0000
  H   H42       1.0  0.6150635148304107  0.9166314404368237  0.9182175596205013  1.0000
  H   H43       1.0  0.11506390957097086  0.9166335061065001  0.5817828028589956  1.0000
  H   H44       1.0  0.3849433191744255  0.0833676999944686  0.08178586446730657  1.0000
  H   H45       1.0  0.7122364186782306  0.963220711426402  0.43721579008155925  1.0000
  H   H46       1.0  0.7877631979376504  0.036778257935637305  0.9372162984168921  1.0000
  H   H47       1.0  0.2877639617915905  0.036777252973870106  0.5627853095314703  1.0000
  H   H48       1.0  0.2122418032029076  0.9632227105103653  0.06278619588224638  1.0000
  H   H49       1.0  0.7470498376213115  0.8274570576032331  0.4519101477843319  1.0000
  H   H50       1.0  0.7529501192291053  0.17254254586865167  0.9519092701393955  1.0000
  H   H51       1.0  0.252952732246925  0.17254210651975652  0.548091416724688  1.0000
  H   H52       1.0  0.24704842838109908  0.8274572465477307  0.04809229436625629  1.0000
  H   H53       1.0  0.11895270002907672  0.9277441289783396  0.4170179510927169  1.0000
  H   H54       1.0  0.3810477608291337  0.07225658857638  0.9170181763990968  1.0000
  H   H55       1.0  0.8810484060546886  0.07225564922050862  0.5829822187338891  1.0000
  H   H56       1.0  0.6189514102804665  0.9277383528251878  0.08298338810585189  1.0000
  H   H57       1.0  0.42923987747330744  0.47561468659637285  0.37364258921039095  1.0000
  H   H58       1.0  0.07075835803589574  0.5243811070446256  0.8736406429986515  1.0000
  H   H59       1.0  0.5707567226170697  0.5243845106989938  0.6263603699746907  1.0000
  H   H60       1.0  0.9292403167693238  0.4756168668293341  0.1263567374627783  1.0000
  H   H61       1.0  0.6103845848458392  0.591095988843911  0.3565955883729329  1.0000
  H   H62       1.0  0.8896178012647411  0.4088961348339737  0.8565946070284693  1.0000
  H   H63       1.0  0.3896100677153598  0.4089026133276477  0.6434059761290029  1.0000
  H   H64       1.0  0.11038148449419796  0.5911012297014437  0.14340277343334407  1.0000
  H   H65       1.0  0.6698357395316281  0.6990091066296247  0.4362347591655293  1.0000
  H   H66       1.0  0.830170832879482  0.3009837626377347  0.9362350127648823  1.0000
  H   H67       1.0  0.3301640299844665  0.30098946710919716  0.5637663404471168  1.0000
  H   H68       1.0  0.16982893662883225  0.6990148110987493  0.0637637623789544  1.0000
  H   H69       1.0  0.3612613778958433  0.5866506434158226  0.543789026348385  1.0000
  H   H70       1.0  0.13874522741885198  0.41335170031523927  0.043788571412044085  1.0000
  H   H71       1.0  0.6387418029370053  0.4133479113718863  0.4562157924173531  1.0000
  H   H72       1.0  0.8612555095742069  0.5866492918191851  0.956208809051972  1.0000
  H   H73       1.0  0.8055915417035281  0.43745110387558844  0.42069201785611193  1.0000
  H   H74       1.0  0.6944043111227814  0.5625472466560737  0.920692632619918  1.0000
  H   H75       1.0  0.19441186843577926  0.5625522971821514  0.5793067572921515  1.0000
  H   H76       1.0  0.30559143613217554  0.4374519553752094  0.0793075372018421  1.0000
  H   H77       1.0  0.6603321910089905  0.45086844855496383  0.3400988409781505  1.0000
  H   H78       1.0  0.8396542500520002  0.5491225180878916  0.8400969142789592  1.0000
  H   H79       1.0  0.3396634415826298  0.5491283303382701  0.659901328842885  1.0000
  H   H80       1.0  0.16034173907532084  0.4508772885432251  0.1599032555431634  1.0000
  H   H81       1.0  0.6508403566176784  0.374851508201097  0.2387798664667641  1.0000
  H   H82       1.0  0.8491503834030214  0.6251452867420397  0.7387798550624892  1.0000
  H   H83       1.0  0.34915661254473224  0.6251464751530876  0.761220303355749  1.0000
  H   H84       1.0  0.15085046826738596  0.37485812853464046  0.2612217094461187  1.0000
  H   H85       1.0  0.9239849592523369  0.2703888498260341  0.30469597113123104  1.0000
  H   H86       1.0  0.5760189893325461  0.7296164897743368  0.8046987885466663  1.0000
  H   H87       1.0  0.07601869275931257  0.7296151558315388  0.6953028040174019  1.0000
  H   H88       1.0  0.42398490456080407  0.270388120485876  0.1953027759649117  1.0000
  C   C1        1.0  0.5755626269061268  0.1431758334148441  0.3280681667763119  1.0000
  C   C2        1.0  0.9244344136486408  0.8568289864327954  0.8280688713774891  1.0000
  C   C3        1.0  0.4244365316515798  0.856823349661127  0.6719315381546662  1.0000
  C   C4        1.0  0.07556400674477712  0.14317262451947238  0.17193036865970865  1.0000
  C   C5        1.0  0.6520531383072241  0.10147268673217984  0.303141549377031  1.0000
  C   C6        1.0  0.8479442191314777  0.8985332922545979  0.8031430710224398  1.0000
  C   C7        1.0  0.3479466312042024  0.8985258870052422  0.6968581555543237  1.0000
  C   C8        1.0  0.152054201258828  0.10146831869673184  0.19685523922723286  1.0000
  C   C9        1.0  0.6222109052762691  0.0174165640708068  0.30828927024034397  1.0000
  C   C10       1.0  0.8777881922778406  0.9825894157779942  0.8082918172180767  1.0000
  C   C11       1.0  0.3777882532861059  0.9825826190065572  0.6917118293719254  1.0000
  C   C12       1.0  0.1222093752910567  0.017412199913444205  0.19170788771213407  1.0000
  C   C13       1.0  0.5167955383110653  0.977851841218367  0.3381676818028793  1.0000
  C   C14       1.0  0.9832062030639933  0.022151761280817108  0.8381685254525306  1.0000
  C   C15       1.0  0.483202767422121  0.022147346596781903  0.661832488021119  1.0000
  C   C16       1.0  0.016790638890952992  0.9778480406120522  0.161832109264104  1.0000
  C   C17       1.0  0.4440066979198606  0.023445835082391408  0.3612219193191421  1.0000
  C   C18       1.0  0.05599350409210075  0.9765571935523742  0.8612220391496661  1.0000
  C   C19       1.0  0.5559920915564761  0.9765545619319553  0.638777785611829  1.0000
  C   C20       1.0  0.9440044325612789  0.0234432082016198  0.13877859556807687  1.0000
  C   C21       1.0  0.9543897015629669  0.6029370057040282  0.3315627586886335  1.0000
  C   C22       1.0  0.5456077314589507  0.3970666072212765  0.8315611678255976  1.0000
  C   C23       1.0  0.04560567661218339  0.39706341026609954  0.6684378760268783  1.0000
  C   C24       1.0  0.4543905742711232  0.6029325805929345  0.16843807221086846  1.0000
  C   C25       1.0  0.9925029093094582  0.5724564651467077  0.2778708089431774  1.0000
  C   C26       1.0  0.5075033034948717  0.4275463832183776  0.7778668424267959  1.0000
  C   C27       1.0  0.007494047307268788  0.42754575988374216  0.7221293608804158  1.0000
  C   C28       1.0  0.4924971916320616  0.5724540043180824  0.22213239761190093  1.0000
  C   C29       1.0  0.07697668672917504  0.5286590590533606  0.2831962825501434  1.0000
  C   C30       1.0  0.4230276261587064  0.47134257524154316  0.7831912078539173  1.0000
  C   C31       1.0  0.923022217410505  0.4713437610990426  0.7168034223815452  1.0000
  C   C32       1.0  0.5769653332866724  0.5286517947283687  0.2168075672828635  1.0000
  C   C33       1.0  0.1208569488624463  0.517221093494243  0.3417896683793557  1.0000
  C   C34       1.0  0.3791438612176705  0.48277946823360196  0.841786382160734  1.0000
  C   C35       1.0  0.8791428080986422  0.48278172191804475  0.6582086418717947  1.0000
  C   C36       1.0  0.6208472779075508  0.5172124880742859  0.15821099829253873  1.0000
  C   C37       1.0  0.07831621578289838  0.5497482678351631  0.39341237262943446  1.0000
  C   C38       1.0  0.4216790847519719  0.45025485387863995  0.8934096092071752  1.0000
  C   C39       1.0  0.9216832993089454  0.4502539429782218  0.6065868674088718  1.0000
  C   C40       1.0  0.5783170315796937  0.5497431342128607  0.1065891659333005  1.0000
  C   C41       1.0  0.11449835331757902  0.08587601785042413  0.40913080818556574  1.0000
  C   C42       1.0  0.3854984015705299  0.9141240982205546  0.909132403720207  1.0000
  C   C43       1.0  0.8855004361556528  0.9141243791629919  0.5908679669578802  1.0000
  C   C44       1.0  0.6145047792498701  0.085874456563424  0.09086869589543059  1.0000
  C   C45       1.0  0.011883165051749201  0.012801007664073404  0.4162486878101105  1.0000
  C   C46       1.0  0.4881153431376719  0.9871991132248825  0.9162505009001832  1.0000
  C   C47       1.0  0.9881173300736279  0.9871993798719173  0.5837500873348275  1.0000
  C   C48       1.0  0.5118885758547977  0.012797013685130301  0.08375338807805117  1.0000
  C   C49       1.0  0.8969603535582424  0.022624499337688106  0.4217263800265911  1.0000
  C   C50       1.0  0.6030385484200596  0.9773750482563204  0.9217284423779546  1.0000
  C   C51       1.0  0.10304075252707898  0.9773752788616221  0.578274254693781  1.0000
  C   C52       1.0  0.3969658543124482  0.022622287851959303  0.07827405191972757  1.0000
  C   C53       1.0  0.8014768350549133  0.9556056104711247  0.4326710649701864  1.0000
  C   C54       1.0  0.6985236039648371  0.04439334502512081  0.9326718855734196  1.0000
  C   C55       1.0  0.1985235454117885  0.044392353928216714  0.567329104855311  1.0000
  C   C56       1.0  0.3014760383453635  0.9556070472528475  0.0673301438271068  1.0000
  C   C57       1.0  0.8203293682663076  0.8791137715534989  0.43980532153400986  1.0000
  C   C58       1.0  0.6796698965994212  0.12088641694652584  0.9398047536939769  1.0000
  C   C59       1.0  0.17967259064976565  0.12088600190850231  0.5601967078683925  1.0000
  C   C60       1.0  0.3203314513644815  0.8791139658544866  0.06019774060180788  1.0000
  C   C61       1.0  0.9348266890107129  0.8688533580592406  0.4339040578952619  1.0000
  C   C62       1.0  0.565171810731556  0.1311450047888201  0.9339028295890798  1.0000
  C   C63       1.0  0.06517308050226941  0.131145215678643  0.5660961119298662  1.0000
  C   C64       1.0  0.4348301481813978  0.8688547686722502  0.0660982700257975  1.0000
  C   C65       1.0  0.030079704548605053  0.9358183111132163  0.4210931339439198  1.0000
  C   C66       1.0  0.46991859419330245  0.06418121490379748  0.9210935109942537  1.0000
  C   C67       1.0  0.9699216434044048  0.0641820716845274  0.5789061060955233  1.0000
  C   C68       1.0  0.5300858085361001  0.9358161212035514  0.07890805351590299  1.0000
  C   C69       1.0  0.9583751270624323  0.7881762294384063  0.4422144987220733  1.0000
  C   C70       1.0  0.5416211117056379  0.21182276891589424  0.9422132705663415  1.0000
  C   C71       1.0  0.041628779368807024  0.21182413914320364  0.5577847413196152  1.0000
  C   C72       1.0  0.45837585745054127  0.7881752144364287  0.05778503968112149  1.0000
  C   C73       1.0  0.28102495576103353  0.45256476153363684  0.4724695693788801  1.0000
  C   C74       1.0  0.2189764872451009  0.5474354580458894  0.9724669652180747  1.0000
  C   C75       1.0  0.7189756665858129  0.5474338074678756  0.5275329249158033  1.0000
  C   C76       1.0  0.7810223022234554  0.45256493896611977  0.027530415244086698  1.0000
  C   C77       1.0  0.3838175448431331  0.524021516194111  0.4596651089881405  1.0000
  C   C78       1.0  0.11618942569361936  0.4759756167605077  0.9596622877979257  1.0000
  C   C79       1.0  0.6161853941126907  0.4759764339923649  0.5403383150959371  1.0000
  C   C80       1.0  0.8838118075898295  0.5240223428973181  0.040335092665749486  1.0000
  C   C81       1.0  0.4539268182980224  0.5258696513034806  0.40639996808639  1.0000
  C   C82       1.0  0.0460755315425133  0.47412739837005813  0.9063974878548318  1.0000
  C   C83       1.0  0.5460729512258524  0.4741289224376786  0.5936034559950725  1.0000
  C   C84       1.0  0.9539237542148701  0.5258699661648977  0.09359942771321529  1.0000
  C   C85       1.0  0.5545633718588548  0.5899180021124906  0.3973857827488131  1.0000
  C   C86       1.0  0.9454391601003493  0.41007602202465426  0.8973848999283829  1.0000
  C   C87       1.0  0.44543554483894354  0.41008057636737766  0.6026176413319033  1.0000
  C   C88       1.0  0.05455719809899056  0.58992257066528  0.10261248053117099  1.0000
  C   C89       1.0  0.5875862130546639  0.6515450650743662  0.44156003288364326  1.0000
  C   C90       1.0  0.9124223425221348  0.3484484100082454  0.9415581306844911  1.0000
  C   C91       1.0  0.412416725899611  0.34845288511164096  0.5584429263066752  1.0000
  C   C92       1.0  0.08757852168461276  0.6515507635893629  0.05844064446046099  1.0000
  C   C93       1.0  0.5169389901877468  0.650460983940228  0.49430170313303984  1.0000
  C   C94       1.0  0.983064661751982  0.34953868571620467  0.9943031796695362  1.0000
  C   C95       1.0  0.48306272685908175  0.34953818492287064  0.5057012560565183  1.0000
  C   C96       1.0  0.01693412772435469  0.6504617112981491  0.005696525261427598  1.0000
  C   C97       1.0  0.4146433872149019  0.5871411060378621  0.5024818677923192  1.0000
  C   C98       1.0  0.08536184687685736  0.4128605548709245  0.0024794593881409996  1.0000
  C   C99       1.0  0.5853597936163908  0.412857448749378  0.4975224860796529  1.0000
  C   C100      1.0  0.914638037291688  0.587140442002678  0.9975183859688951  1.0000
  C   C101      1.0  0.5477484971453139  0.7135503741862906  0.5437910820919071  1.0000
  C   C102      1.0  0.9522618766177405  0.2864513663010301  0.043793901252925586  1.0000
  C   C103      1.0  0.45225626212133824  0.28644998965940976  0.45621094731310297  1.0000
  C   C104      1.0  0.04773971320918259  0.7135496210970164  0.956205803680653  1.0000
  C   C105      1.0  0.9544039150678645  0.3407463473666824  0.4179078747816759  1.0000
  C   C106      1.0  0.5455990857250015  0.6592592290795595  0.9179101377872954  1.0000
  C   C107      1.0  0.045601442592825975  0.6592576488125346  0.582089970580931  1.0000
  C   C108      1.0  0.4543993346715213  0.3407423818736319  0.0820900320374278  1.0000
  C   C109      1.0  0.8715615077245858  0.3520996601306622  0.367969846833148  1.0000
  C   C110      1.0  0.6284395803294133  0.6479040069614753  0.8679717844253785  1.0000
  C   C111      1.0  0.1284380073641459  0.6479025506817849  0.6320284634176402  1.0000
  C   C112      1.0  0.371561271337889  0.3520994083142668  0.13202885029569697  1.0000
  C   C113      1.0  0.799106949307202  0.4040965581506202  0.37719840273035027  1.0000
  C   C114      1.0  0.7008894651923117  0.5959017002924727  0.877199510903928  1.0000
  C   C115      1.0  0.20089184016757874  0.5959038388632651  0.6228008373068618  1.0000
  C   C116      1.0  0.29910980803340703  0.4040999059229478  0.1228015887090592  1.0000
  C   C117      1.0  0.7193068357961465  0.4123826493859967  0.3311487480936606  1.0000
  C   C118      1.0  0.7806867119526757  0.5876155307872537  0.8311476675180671  1.0000
  C   C119      1.0  0.28069195368175315  0.5876177476288121  0.6688514217310695  1.0000
  C   C120      1.0  0.21931195031620382  0.4123866847657781  0.16885250230701834  1.0000
  C   C121      1.0  0.7133916724880652  0.3704483985630348  0.27531685079937057  1.0000
  C   C122      1.0  0.7866043018683373  0.6295502598658872  0.7753176617268308  1.0000
  C   C123      1.0  0.28660882263886833  0.6295519889734251  0.7246823892393336  1.0000
  C   C124      1.0  0.2133963079297204  0.37045255081095263  0.22468390278140749  1.0000
  C   C125      1.0  0.7882544749944104  0.31976028765709696  0.2652263843145093  1.0000
  C   C126      1.0  0.7117448305774375  0.6802425732293572  0.765228484655928  1.0000
  C   C127      1.0  0.21174698761571892  0.6802425182768275  0.7347709961506084  1.0000
  C   C128      1.0  0.28826015801122656  0.31976263689104206  0.2347721500692401  1.0000
  C   C129      1.0  0.8665354862000216  0.3101980370087531  0.3118301906561314  1.0000
  C   C130      1.0  0.6334666898243527  0.6898049032581426  0.8118321585984418  1.0000
  C   C131      1.0  0.13346573454241917  0.6898041643267376  0.6881685844899079  1.0000
  C   C132      1.0  0.3665361093705641  0.31019910714094584  0.18816940591202067  1.0000
  C   C133      1.0  0.7826200166993618  0.27608783723940905  0.20455494274954583  1.0000
  C   C134      1.0  0.7173814412046725  0.7239148875815218  0.704557075419423  1.0000
  C   C135      1.0  0.21738254061075685  0.7239155685561087  0.7954429026104533  1.0000
  C   C136      1.0  0.2826215998610451  0.276089727416931  0.2954440241976498  1.0000
  N   N1        1.0  0.4731121730574728  0.10471810428536092  0.3562262173547524  1.0000
  N   N2        1.0  0.02688471141671314  0.895283114732827  0.8562262443616216  1.0000
  N   N3        1.0  0.5268878383294224  0.895281074052825  0.6437744173644971  1.0000
  N   N4        1.0  0.9731138361872739  0.10471667768168663  0.1437734605689798  1.0000
  N   N5        1.0  0.9961993222567642  0.5915426586377491  0.3881928963528621  1.0000
  N   N6        1.0  0.5037977642376603  0.40845925422012647  0.8881903082172325  1.0000
  N   N7        1.0  0.003798003441339482  0.4084583524543179  0.6118072734707451  1.0000
  N   N8        1.0  0.4962000577445949  0.5915387243934802  0.11180800203097617  1.0000
  O   O1        1.0  0.21437025705768784  0.07483944858380913  0.3923226589519756  1.0000
  O   O2        1.0  0.28562638531134615  0.9251606337299023  0.892323620075359  1.0000
  O   O3        1.0  0.7856299961984449  0.9251603343532793  0.6076770459801182  1.0000
  O   O4        1.0  0.7143785011518632  0.07483791157384452  0.10767469017919498  1.0000
  O   O5        1.0  0.09446397992294923  0.15319197092787823  0.42109949783270645  1.0000
  O   O6        1.0  0.4055309075628984  0.8468075740584595  0.9211015588091269  1.0000
  O   O7        1.0  0.9055351786332085  0.846807212147624  0.5788997422045128  1.0000
  O   O8        1.0  0.5944681363345838  0.15318918588039318  0.07889907590865157  1.0000
  O   O9        1.0  0.053238395001564305  0.7747782308706875  0.4257192707100898  1.0000
  O   O10       1.0  0.4467571343550318  0.2252207140526323  0.9257187601042602  1.0000
  O   O11       1.0  0.9467662370482871  0.22522395151089117  0.574280434226459  1.0000
  O   O12       1.0  0.5532411839129382  0.7747742320829758  0.0742781554623164  1.0000
  O   O13       1.0  0.8717162787165124  0.7302029812679864  0.4670773911459987  1.0000
  O   O14       1.0  0.6282818321396917  0.26979605754196  0.9670758799017419  1.0000
  O   O15       1.0  0.12828556552221224  0.2697943690517591  0.532920454211812  1.0000
  O   O16       1.0  0.3717119675923187  0.7302025493673767  0.03292475481191559  1.0000
  O   O17       1.0  0.2667249954636831  0.3929229671590094  0.43584102683862364  1.0000
  O   O18       1.0  0.23327266383245168  0.6070790163512144  0.9358389433023432  1.0000
  O   O19       1.0  0.7332792800629307  0.6070761874884241  0.564162397246939  1.0000
  O   O20       1.0  0.766721250553559  0.3929220136933722  0.06415890204946349  1.0000
  O   O21       1.0  0.21538885684927325  0.4567875593676619  0.5193670658954088  1.0000
  O   O22       1.0  0.2846111314446845  0.5432135592844177  0.019364144206583892  1.0000
  O   O23       1.0  0.7846111545422901  0.5432116189719312  0.48063496350513174  1.0000
  O   O24       1.0  0.7153876580207595  0.45678683772666073  0.9806323064680454  1.0000
  O   O25       1.0  0.6567750675890451  0.7608698783592375  0.5454527201823538  1.0000
  O   O26       1.0  0.8432336116397893  0.23913187494103738  0.045453929095856396  1.0000
  O   O27       1.0  0.3432303026297703  0.23912987614745163  0.4545488443292739  1.0000
  O   O28       1.0  0.15676651440266215  0.7608697265328674  0.9545443811553083  1.0000
  O   O29       1.0  0.47227210801010966  0.7219846153457754  0.5823925418636405  1.0000
  O   O30       1.0  0.027734017583576152  0.2780202337981167  0.0823987960586621  1.0000
  O   O31       1.0  0.5277347134397203  0.27801876675899  0.4176080928626645  1.0000
  O   O32       1.0  0.9722656247219493  0.7219801584784523  0.9176018386605802  1.0000
  O   O33       1.0  0.9604227171749927  0.38470447369351757  0.4670480918658483  1.0000
  O   O34       1.0  0.5395846348297441  0.6153005731500018  0.9670503217275408  1.0000
  O   O35       1.0  0.03958178766118447  0.6152995272248774  0.5329502183897716  1.0000
  O   O36       1.0  0.4604156184263887  0.3846992097870867  0.03294938320455289  1.0000
  O   O37       1.0  0.01211558964974567  0.28935609173342425  0.40881603759503077  1.0000
  O   O38       1.0  0.48788517285005645  0.7106476370901903  0.9088195677354701  1.0000
  O   O39       1.0  0.9878918301972421  0.7106509227057813  0.5911813428763963  1.0000
  O   O40       1.0  0.5121100906648621  0.2893503557428191  0.09118199676683499  1.0000
  O   O41       1.0  0.8445961102839019  0.2244957673481878  0.20010595054088035  1.0000
  O   O42       1.0  0.6554031284374773  0.7755057488143465  0.7001070712192358  1.0000
  O   O43       1.0  0.15540449950792393  0.7755070433267833  0.7998937543923074  1.0000
  O   O44       1.0  0.3445961447897972  0.22449585740153574  0.29989449328751755  1.0000
  O   O45       1.0  0.7176027319184399  0.29292527954299175  0.16280835994368198  1.0000
  O   O46       1.0  0.7824008777955954  0.7070791657584155  0.66281059801247  1.0000
  O   O47       1.0  0.2824000672640283  0.7070787308523594  0.8371894854166796  1.0000
  O   O48       1.0  0.21760435266541833  0.2929266489618173  0.3371900367130678  1.0000
