data_image0
_chemical_formula_structural       Zn4H96C156S8N8O16F24
_chemical_formula_sum              "Zn4 H96 C156 S8 N8 O16 F24"
_cell_length_a       7.106017148057717
_cell_length_b       24.775528642056624
_cell_length_c       29.18926408524643
_cell_angle_alpha    90.00018420843779
_cell_angle_beta     90.00043292523375
_cell_angle_gamma    89.99983823715402

_space_group_name_H-M_alt    "P 1"
_space_group_IT_number       1

loop_
  _space_group_symop_operation_xyz
  'x, y, z'

loop_
  _atom_site_type_symbol
  _atom_site_label
  _atom_site_symmetry_multiplicity
  _atom_site_fract_x
  _atom_site_fract_y
  _atom_site_fract_z
  _atom_site_occupancy
  Zn  Zn1       1.0  0.41040144526768074  0.0386183621208431  0.7343330918825686  1.0000
  Zn  Zn2       1.0  0.089594814539744  0.9613813065470042  0.23433104271329336  1.0000
  Zn  Zn3       1.0  0.9104035461629965  0.46138161114424053  0.2656693491625148  1.0000
  Zn  Zn4       1.0  0.5896011247941217  0.5386173671585724  0.765666349055877  1.0000
  H   H1        1.0  0.28270577652002526  0.9334966572188038  0.7673339996787547  1.0000
  H   H2        1.0  0.21729150854133655  0.0665043473343303  0.26733351185974635  1.0000
  H   H3        1.0  0.7827135482862319  0.5665038780198871  0.2326651173470466  1.0000
  H   H4        1.0  0.7172999481915312  0.4334937643897519  0.7326651483874684  1.0000
  H   H5        1.0  0.3982411090998568  0.8194226218067655  0.6954952086080084  1.0000
  H   H6        1.0  0.1017455005707362  0.18057891786315136  0.1954927641777502  1.0000
  H   H7        1.0  0.8982471768295925  0.680578626997743  0.30450514851514743  1.0000
  H   H8        1.0  0.6017502571357342  0.31942493829514973  0.8045067115066473  1.0000
  H   H9        1.0  0.20900634172000576  0.8352111865218605  0.0164782800213388  1.0000
  H   H10       1.0  0.2909944080951661  0.1647892713890755  0.5164777132930922  1.0000
  H   H11       1.0  0.708998478179879  0.6647898121136394  0.9835234422847421  1.0000
  H   H12       1.0  0.7909974810219753  0.33521160594564503  0.4835231379493123  1.0000
  H   H13       1.0  0.47461428778208176  0.9646330654674388  0.18987361685576323  1.0000
  H   H14       1.0  0.025389034381369406  0.03536764565698291  0.6898735792310902  1.0000
  H   H15       1.0  0.9746149749015771  0.5353681214099738  0.8101268806156767  1.0000
  H   H16       1.0  0.5253854482097112  0.4646310253073623  0.31012575611595844  1.0000
  H   H17       1.0  0.6074643471396399  0.8772970851020364  0.7492960825113713  1.0000
  H   H18       1.0  0.8925201135996019  0.12269981307141363  0.2492964126635471  1.0000
  H   H19       1.0  0.10746750381398582  0.6226991523820048  0.2507075087418044  1.0000
  H   H20       1.0  0.3925320791947087  0.377294927569686  0.7507025696052592  1.0000
  H   H21       1.0  0.7906649483610907  0.057436942397878  0.8215854097574604  1.0000
  H   H22       1.0  0.7093287944549547  0.9425634586028482  0.3215855848307783  1.0000
  H   H23       1.0  0.290666936717713  0.44256433882851104  0.1784154408790428  1.0000
  H   H24       1.0  0.20932899318622591  0.5574363288943688  0.6784154528902135  1.0000
  H   H25       1.0  0.13381054600157682  0.6446479500275117  0.7478591854123025  1.0000
  H   H26       1.0  0.36619598484613664  0.3553505590037462  0.2478580464432127  1.0000
  H   H27       1.0  0.6338020108463454  0.8553510914585234  0.2521403431506073  1.0000
  H   H28       1.0  0.8661853527655127  0.1446498537305985  0.7521415726193368  1.0000
  H   H29       1.0  0.8110388221224342  0.7965427369070428  0.7573563146372919  1.0000
  H   H30       1.0  0.6889515180312458  0.20345863166154032  0.25735649103828  1.0000
  H   H31       1.0  0.3110367127559925  0.7034565644933294  0.24264525258824673  1.0000
  H   H32       1.0  0.18895417627043543  0.29654031029589595  0.7426434874903548  1.0000
  H   H33       1.0  0.920296952899065  0.7210887604967766  0.7348483790979188  1.0000
  H   H34       1.0  0.5796997242634205  0.27890889018452475  0.2348454772765791  1.0000
  H   H35       1.0  0.4202990228427481  0.7789100486815813  0.2651527037343584  1.0000
  H   H36       1.0  0.07969537998003771  0.22108973674212248  0.7651546430615496  1.0000
  H   H37       1.0  0.9870647175179174  0.9439609114915514  0.6502717578315469  1.0000
  H   H38       1.0  0.5129194813318138  0.056035207940986695  0.15027018070022544  1.0000
  H   H39       1.0  0.48709412198707724  0.556035825417439  0.3497308180910323  1.0000
  H   H40       1.0  0.0129409042879089  0.4439634731193109  0.8497263910204325  1.0000
  H   H41       1.0  0.010376849969986801  0.8945216946385701  0.8091600333934751  1.0000
  H   H42       1.0  0.4896245490218264  0.10547946835493603  0.3091601523956129  1.0000
  H   H43       1.0  0.5103787174496404  0.6054782541822874  0.19083995352579558  1.0000
  H   H44       1.0  0.9896362941665873  0.3945204406621272  0.6908403786986738  1.0000
  H   H45       1.0  0.0845457150014752  0.0893097347045639  0.7829229869490033  1.0000
  H   H46       1.0  0.4154520543540912  0.910689310778409  0.2829213982950165  1.0000
  H   H47       1.0  0.5845496191415975  0.4106909064109416  0.2170778274885024  1.0000
  H   H48       1.0  0.915446505973037  0.5893095023277654  0.7170776200763669  1.0000
  H   H49       1.0  0.6190599403028828  0.9338682420797325  0.11929330537541458  1.0000
  H   H50       1.0  0.8809458122574655  0.06613462160657953  0.6192929773410114  1.0000
  H   H51       1.0  0.11905789458134561  0.5661364621043462  0.8807075664604014  1.0000
  H   H52       1.0  0.3809429126280009  0.4338637610419767  0.3807056410569416  1.0000
  H   H53       1.0  0.735095546061146  0.8644131041265694  0.8311776572967062  1.0000
  H   H54       1.0  0.7648970875067536  0.1355865259633262  0.3311781306562764  1.0000
  H   H55       1.0  0.23509743947315093  0.635587066099717  0.16882308518700023  1.0000
  H   H56       1.0  0.2649122650201789  0.3644127580338291  0.6688237004103783  1.0000
  H   H57       1.0  0.9535081997721804  0.9007722097524538  0.1547250877324018  1.0000
  H   H58       1.0  0.5464986536064487  0.09922715554104401  0.6547276612939186  1.0000
  H   H59       1.0  0.45350191341266577  0.5992269761153396  0.8452719450254661  1.0000
  H   H60       1.0  0.046496385742152306  0.40077230555946397  0.3452747961746283  1.0000
  H   H61       1.0  0.1908217108749  0.8628626742099498  0.6566893712994498  1.0000
  H   H62       1.0  0.3091693222485432  0.1371346822144943  0.15668547655616288  1.0000
  H   H63       1.0  0.6908392620425019  0.6371359174169058  0.34331266019996315  1.0000
  H   H64       1.0  0.8091776718684047  0.3628673912455654  0.8433116395844635  1.0000
  H   H65       1.0  0.607128023765597  0.7405346352637924  0.7067504584822119  1.0000
  H   H66       1.0  0.8928649659819075  0.25946775247534504  0.2067501346728449  1.0000
  H   H67       1.0  0.1071297504706479  0.7594668495975301  0.2932483358747504  1.0000
  H   H68       1.0  0.39286411793192844  0.24053627124909843  0.7932509037808798  1.0000
  H   H69       1.0  0.17477163555052752  0.9115087700223653  0.9247475684509111  1.0000
  H   H70       1.0  0.32522772534571953  0.0884924272028798  0.4247469963940063  1.0000
  H   H71       1.0  0.6747728935787124  0.5884926599910684  0.0752527205831228  1.0000
  H   H72       1.0  0.8252343053073617  0.4115088259935291  0.5752528899886045  1.0000
  H   H73       1.0  0.18797124196240134  0.9825328645841581  0.9166854666855357  1.0000
  H   H74       1.0  0.31203490475773077  0.017469109346748703  0.4166850191686819  1.0000
  H   H75       1.0  0.6879706340728972  0.517468554722882  0.0833127910538138  1.0000
  H   H76       1.0  0.8120340007116482  0.4825329617966717  0.5833138151881769  1.0000
  H   H77       1.0  0.3166588088742587  0.9511289258384538  0.9616243249273495  1.0000
  H   H78       1.0  0.1833459194473335  0.04887241107778813  0.46162406919810184  1.0000
  H   H79       1.0  0.8166621252250152  0.5488735999920067  0.03837553967702689  1.0000
  H   H80       1.0  0.6833425207578117  0.45112653542820885  0.5383762416150972  1.0000
  H   H81       1.0  0.07870637479344823  0.8639659461949663  0.0817515135227325  1.0000
  H   H82       1.0  0.4213034391856355  0.13603314448057802  0.5817528207533585  1.0000
  H   H83       1.0  0.5786953587613795  0.6360335435956302  0.9182462008133212  1.0000
  H   H84       1.0  0.9212999797870297  0.3639672235693682  0.418248955138651  1.0000
  H   H85       1.0  0.8150492560034267  0.8223681428876193  0.9305193351682631  1.0000
  H   H86       1.0  0.6849520928347986  0.17763267076298922  0.4305201189228142  1.0000
  H   H87       1.0  0.3150532788735774  0.6776307516277243  0.06947881351531748  1.0000
  H   H88       1.0  0.18495333930062696  0.3223703106788919  0.5694798522601657  1.0000
  H   H89       1.0  0.9500803542097317  0.8580461132261664  0.9716990318885479  1.0000
  H   H90       1.0  0.5499279029465995  0.1419520310390823  0.47169638681604914  1.0000
  H   H91       1.0  0.45007359772197475  0.6419498464365107  0.028302105665595396  1.0000
  H   H92       1.0  0.04992048314827711  0.358049849020162  0.5283023084442533  1.0000
  H   H93       1.0  0.8264814343799571  0.893815650824479  0.9282631341259844  1.0000
  H   H94       1.0  0.6735240660987287  0.10618515427278652  0.4282613037760825  1.0000
  H   H95       1.0  0.3264777861653201  0.6061832344290681  0.07173777629351011  1.0000
  H   H96       1.0  0.1735260876730393  0.393817029187332  0.5717386464048815  1.0000
  C   C1        1.0  0.7859965914398616  0.9160904404806872  0.6998705929725161  1.0000
  C   C2        1.0  0.7139821120480434  0.08390748134208081  0.1998725447224885  1.0000
  C   C3        1.0  0.2860157374907005  0.5839072667209139  0.3001309282495086  1.0000
  C   C4        1.0  0.214002268030292  0.4160918439336641  0.8001264520470811  1.0000
  C   C5        1.0  0.440901680108162  0.8767630443839141  0.050019991507277  1.0000
  C   C6        1.0  0.059105740785611316  0.12323713696027032  0.5500199130173016  1.0000
  C   C7        1.0  0.9408945902435094  0.6232369589631475  0.9499814717758568  1.0000
  C   C8        1.0  0.5591031414241244  0.3767623139130265  0.44998016947736363  1.0000
  C   C9        1.0  0.5113270613127341  0.6405445320407209  0.735974334974351  1.0000
  C   C10       1.0  0.9886752799044133  0.35945514103030274  0.235974802658383  1.0000
  C   C11       1.0  0.011322675443537404  0.8594550123841955  0.2640235981345711  1.0000
  C   C12       1.0  0.4886674705455007  0.1405459796392776  0.7640270970419464  1.0000
  C   C13       1.0  0.17116377285899628  0.9590691391750498  0.7809451008553195  1.0000
  C   C14       1.0  0.3288339350431145  0.04093191693633712  0.2809437204667944  1.0000
  C   C15       1.0  0.6711699658929007  0.540931082887724  0.21905415377617737  1.0000
  C   C16       1.0  0.8288374786985602  0.4590681224616234  0.7190544595800431  1.0000
  C   C17       1.0  0.4093959257530885  0.8164689424613485  0.9329931517342444  1.0000
  C   C18       1.0  0.0905980622688674  0.18353309324894695  0.432992407830092  1.0000
  C   C19       1.0  0.9093974006432932  0.6835310864275927  0.0670072258825698  1.0000
  C   C20       1.0  0.5906067275619478  0.31646875382591594  0.5670067047774552  1.0000
  C   C21       1.0  0.5036120356192413  0.8895905482044597  0.8772423607483475  1.0000
  C   C22       1.0  0.9963862507830257  0.11041046725019044  0.3772414778596839  1.0000
  C   C23       1.0  0.0036127454520809006  0.6104106169784417  0.1227596692898913  1.0000
  C   C24       1.0  0.4963927134783007  0.3895894362887022  0.6227604360227801  1.0000
  C   C25       1.0  0.4321814807822762  0.8363868927428798  0.8898735790039751  1.0000
  C   C26       1.0  0.0678125749184062  0.16361336513058697  0.3898730814658578  1.0000
  C   C27       1.0  0.9321816765633102  0.6636131176728881  0.11012821085220277  1.0000
  C   C28       1.0  0.5678237912731419  0.33638769317455797  0.6101277022279349  1.0000
  C   C29       1.0  0.3378250588954544  0.7809209651526174  0.7060633697439939  1.0000
  C   C30       1.0  0.16216469363315167  0.21907900005457756  0.2060618265848078  1.0000
  C   C31       1.0  0.8378276053224242  0.7190791217710812  0.2939368763459242  1.0000
  C   C32       1.0  0.6621652785174419  0.2809235962380257  0.7939363897613773  1.0000
  C   C33       1.0  0.711840368846069  0.9509364163685422  0.8432616488954707  1.0000
  C   C34       1.0  0.7881568618944642  0.04906325949311001  0.3432612437186933  1.0000
  C   C35       1.0  0.21184273736205478  0.5490637727139996  0.1567387082602352  1.0000
  C   C36       1.0  0.2881651844461857  0.4509364092674845  0.6567392597205313  1.0000
  C   C37       1.0  0.4319390033475728  0.9379609197127226  0.8943921594723462  1.0000
  C   C38       1.0  0.0680636362648599  0.06203935527224761  0.39439070004186755  1.0000
  C   C39       1.0  0.93193583543993  0.5620382836515674  0.1056089447506068  1.0000
  C   C40       1.0  0.5680737137934601  0.4379621064532132  0.6056097415210999  1.0000
  C   C41       1.0  0.32196464449501866  0.7612604668249503  0.9319775542347486  1.0000
  C   C42       1.0  0.1780236829427011  0.2387415650404067  0.43197677905476434  1.0000
  C   C43       1.0  0.8219782735597079  0.7387404402039124  0.0680230053110122  1.0000
  C   C44       1.0  0.6780329224818901  0.26126061476620793  0.5680221516267707  1.0000
  C   C45       1.0  0.3835687790814006  0.6875433636834104  0.7277949045430745  1.0000
  C   C46       1.0  0.1164300921388275  0.3124558765939653  0.227793874715438  1.0000
  C   C47       1.0  0.8835669179355888  0.812456686146284  0.2722037126488032  1.0000
  C   C48       1.0  0.6164210689801949  0.18754594954145887  0.7722052853481286  1.0000
  C   C49       1.0  0.35375399775805505  0.849188626599485  0.014794251231080599  1.0000
  C   C50       1.0  0.1462509215177406  0.15081222855530294  0.514794065543576  1.0000
  C   C51       1.0  0.8537505456884632  0.6508138691560176  0.9852067093131325  1.0000
  C   C52       1.0  0.6462468730598091  0.3491879589026965  0.4852061771001175  1.0000
  C   C53       1.0  0.4709386758201576  0.8416111461035883  0.9757127163066882  1.0000
  C   C54       1.0  0.029063675666705504  0.15838943693296412  0.4757121332960708  1.0000
  C   C55       1.0  0.9709292198855834  0.6583872183885403  0.0242870892133737  1.0000
  C   C56       1.0  0.529063730355837  0.3416116527960114  0.5242878939940496  1.0000
  C   C57       1.0  0.6725994703543989  0.9670613445504376  0.6989034219100103  1.0000
  C   C58       1.0  0.8273820175984099  0.03293657360695329  0.19890510038116094  1.0000
  C   C59       1.0  0.1726135184838213  0.5329368582317076  0.301099603873233  1.0000
  C   C60       1.0  0.32739888808868045  0.4670610452203833  0.8010941047815264  1.0000
  C   C61       1.0  0.38970147170191904  0.9422133501406834  0.16532064531792656  1.0000
  C   C62       1.0  0.11030390217993612  0.057788478845331816  0.6653201397362096  1.0000
  C   C63       1.0  0.8896970721826707  0.557787501967937  0.8346793535097987  1.0000
  C   C64       1.0  0.610299891943484  0.44221012326299575  0.3346790090692835  1.0000
  C   C65       1.0  0.7357299962953052  0.8735989910508695  0.7291226822726671  1.0000
  C   C66       1.0  0.7642468014325134  0.12639742708311275  0.22912312938206006  1.0000
  C   C67       1.0  0.2357464086608658  0.6263967387947105  0.2708804595262606  1.0000
  C   C68       1.0  0.2642650591135336  0.37359862844094494  0.7708752745708338  1.0000
  C   C69       1.0  0.8747806768643899  0.9726912397816465  0.8195500280269742  1.0000
  C   C70       1.0  0.6252200389997784  0.027309153504901897  0.3195496066438892  1.0000
  C   C71       1.0  0.3747825886126038  0.5273100280480777  0.18045028597843776  1.0000
  C   C72       1.0  0.12522606982431483  0.4726906473770924  0.6804499121760159  1.0000
  C   C73       1.0  0.8982990733990236  0.02828714903940011  0.8118024199165745  1.0000
  C   C74       1.0  0.6016957727441935  0.9717136185258612  0.3118024767291914  1.0000
  C   C75       1.0  0.39830530090478794  0.4717136412811769  0.18819760075052724  1.0000
  C   C76       1.0  0.1016965619284349  0.5282870634945027  0.6881973354179394  1.0000
  C   C77       1.0  0.18974023596974382  0.6830357838198965  0.7358709773460177  1.0000
  C   C78       1.0  0.310261700644226  0.31696348704659993  0.23586860306701135  1.0000
  C   C79       1.0  0.6897352651200421  0.8169644231854678  0.2641289965971652  1.0000
  C   C80       1.0  0.8102482491705345  0.1830381819169702  0.7641309132025285  1.0000
  C   C81       1.0  0.018468769971107704  0.8238808278145909  0.7081923424100225  1.0000
  C   C82       1.0  0.4815224559573822  0.17611712733528867  0.2081902411416081  1.0000
  C   C83       1.0  0.5184716725834875  0.6761174999512106  0.2918093723373191  1.0000
  C   C84       1.0  0.98152818144073  0.3238831918729161  0.7918075343245334  1.0000
  C   C85       1.0  0.8501671040884348  0.8284051643083644  0.7333979277586594  1.0000
  C   C86       1.0  0.6498154554670067  0.17159248088844956  0.2333972601145575  1.0000
  C   C87       1.0  0.35017731032982624  0.6715928944884767  0.2666047391588791  1.0000
  C   C88       1.0  0.1498199520533632  0.32840649280214507  0.7666023039025518  1.0000
  C   C89       1.0  0.6520176107210177  0.8620271985133386  0.9823225324776316  1.0000
  C   C90       1.0  0.8479909765101397  0.13797300412054622  0.482322822446136  1.0000
  C   C91       1.0  0.1520105632916824  0.6379722318331249  0.0176773721385644  1.0000
  C   C92       1.0  0.34799163104894154  0.3620282306213626  0.5176777909471468  1.0000
  C   C93       1.0  0.14294107133842  0.7767407249349887  0.7141856919050582  1.0000
  C   C94       1.0  0.35705174804665063  0.22325725291806722  0.214183833113303  1.0000
  C   C95       1.0  0.6429489533974077  0.7232570982716456  0.2858155664092905  1.0000
  C   C96       1.0  0.8570577507366224  0.27674316722374204  0.7858154265681918  1.0000
  C   C97       1.0  0.3623336363421075  0.8951571148504488  0.0932896204220057  1.0000
  C   C98       1.0  0.1376737215585848  0.10484323040460453  0.5932903213110803  1.0000
  C   C99       1.0  0.8623253829860077  0.6048441630731817  0.9067089577412019  1.0000
  C   C100      1.0  0.6376681898559299  0.3951553495127271  0.4067099055664727  1.0000
  C   C101      1.0  0.0706816610675958  0.7268213633179885  0.7291160468695564  1.0000
  C   C102      1.0  0.42931865844642664  0.2731766710894519  0.22911411450007077  1.0000
  C   C103      1.0  0.5706815522709832  0.7731777293563553  0.2708843934624241  1.0000
  C   C104      1.0  0.9293120226639219  0.22682369045528364  0.7708839076099776  1.0000
  C   C105      1.0  0.9501824140994447  0.9113102042245845  0.6736371194423043  1.0000
  C   C106      1.0  0.5498011033745343  0.08868681096619471  0.1736353565927544  1.0000
  C   C107      1.0  0.45020514268379236  0.5886877734663827  0.3263653886960967  1.0000
  C   C108      1.0  0.0498136778615148  0.41131345468819097  0.8263616254921329  1.0000
  C   C109      1.0  0.018010931453645202  0.9379387170024602  0.8039989554790666  1.0000
  C   C110      1.0  0.4819917144468704  0.06206202281427412  0.3039982567980459  1.0000
  C   C111      1.0  0.5180133860607228  0.5620612256278578  0.19600104547011196  1.0000
  C   C112      1.0  0.982000378628854  0.43793829601547435  0.6960012324917385  1.0000
  C   C113      1.0  0.05795025416554011  0.04658695580715029  0.7893290266746645  1.0000
  C   C114      1.0  0.44204771420771755  0.953413324815621  0.289327946066102  1.0000
  C   C115      1.0  0.5579549465743199  0.45341330324831125  0.21067105370433126  1.0000
  C   C116      1.0  0.9420452012828733  0.5465854667228527  0.7106707785919824  1.0000
  C   C117      1.0  0.4713894527287651  0.9240400665369249  0.1250894654786592  1.0000
  C   C118      1.0  0.028617485806620407  0.0759612064240969  0.6250885167743901  1.0000
  C   C119      1.0  0.971387531681117  0.5759627374528195  0.874911026066215  1.0000
  C   C120      1.0  0.5286106823036861  0.4240362510501328  0.37491013931764167  1.0000
  C   C121      1.0  0.6601281864527381  0.8974538329363713  0.8475850358355997  1.0000
  C   C122      1.0  0.8398691786104282  0.10254707017661958  0.3475855568136622  1.0000
  C   C123      1.0  0.16013130217951502  0.6025472053269141  0.15241556888060606  1.0000
  C   C124      1.0  0.3398835216058487  0.3974541711474729  0.6524160694416778  1.0000
  C   C125      1.0  0.37624121146980377  0.7954981138118812  0.8541692486140773  1.0000
  C   C126      1.0  0.12375454952047699  0.2045024124334205  0.35416862286149337  1.0000
  C   C127      1.0  0.8762477435614073  0.7045023455854462  0.14583209585368448  1.0000
  C   C128      1.0  0.6237546117147589  0.29549860051351834  0.645831921036546  1.0000
  C   C129      1.0  0.10067445312141389  0.906047904363895  0.1452684374053916  1.0000
  C   C130      1.0  0.39933170510035865  0.0939506196726683  0.6452695894325159  1.0000
  C   C131      1.0  0.6006689138137916  0.5939503567433634  0.8547317154474213  1.0000
  C   C132      1.0  0.8993286732830158  0.40604855532124173  0.3547321460801385  1.0000
  C   C133      1.0  0.06441365825496351  0.8659686525612569  0.6776976684430949  1.0000
  C   C134      1.0  0.43557239851478613  0.1340283798242226  0.1776946827069494  1.0000
  C   C135      1.0  0.5644291800564293  0.6340288306981918  0.3223055011158635  1.0000
  C   C136      1.0  0.9355814721588162  0.36597278388804705  0.8223016379527477  1.0000
  C   C137      1.0  0.4563080648446345  0.737002593436486  0.7127504663511246  1.0000
  C   C138      1.0  0.043684709952579205  0.26299820435010446  0.212749510478389  1.0000
  C   C139      1.0  0.9563099717827586  0.7629978010331301  0.28724828451988327  1.0000
  C   C140      1.0  0.5436841115640689  0.23700489164367874  0.7872505436833919  1.0000
  C   C141      1.0  0.2692758980134258  0.9464621758065946  0.9259289592041284  1.0000
  C   C142      1.0  0.2307305358618592  0.053539833138003715  0.4259277755132871  1.0000
  C   C143      1.0  0.7692760556683925  0.5535395811993525  0.07407116091098939  1.0000
  C   C144      1.0  0.7307296992662488  0.44645988219006233  0.5740715946083268  1.0000
  C   C145      1.0  0.17214151982155812  0.8860663880629791  0.1045332932968179  1.0000
  C   C146      1.0  0.327869001917712  0.1139339997848765  0.6045350536997631  1.0000
  C   C147      1.0  0.6721328277934192  0.6139346404592204  0.8954649353438029  1.0000
  C   C148      1.0  0.827868839288506  0.3860652331553497  0.39546655048641804  1.0000
  C   C149      1.0  0.2584895228378485  0.7527415065892669  0.8812396515109099  1.0000
  C   C150      1.0  0.2415028573753091  0.24725831495442216  0.3812390162272692  1.0000
  C   C151      1.0  0.7584976081088542  0.7472590482844055  0.118758735828834  1.0000
  C   C152      1.0  0.7415067206138346  0.2527421988835741  0.6187596885129594  1.0000
  C   C153      1.0  0.8195019684945849  0.8590144223458651  0.951639140622504  1.0000
  C   C154      1.0  0.6804972219425168  0.14098526043500206  0.4516387884197357  1.0000
  C   C155      1.0  0.31950147371564713  0.6409836613144863  0.0483600440138474  1.0000
  C   C156      1.0  0.180500266600518  0.3590165137469016  0.5483615171681108  1.0000
  S   S1        1.0  0.6717888043766322  0.8913022695152649  0.03527199282143561  1.0000
  S   S2        1.0  0.8282171524329983  0.10869745052190183  0.5352716840301781  1.0000
  S   S3        1.0  0.17178332147575764  0.6086987592935886  0.9647272629490756  1.0000
  S   S4        1.0  0.3282144669767249  0.3913017821338017  0.4647282078349234  1.0000
  S   S5        1.0  0.5587239304359387  0.9917788538251674  0.87396874439343  1.0000
  S   S6        1.0  0.9412742542666451  0.0082217456046081  0.3739678239763862  1.0000
  S   S7        1.0  0.05872574646862461  0.5082214594181877  0.1260323591503365  1.0000
  S   S8        1.0  0.4412826286423198  0.49177860624406133  0.6260326182605951  1.0000
  N   N1        1.0  0.19156933240782345  0.012580332242052404  0.7736884209658967  1.0000
  N   N2        1.0  0.3084295572961865  0.9874206963782091  0.2736861598212172  1.0000
  N   N3        1.0  0.6915741764359071  0.4874210293369146  0.2263119049705935  1.0000
  N   N4        1.0  0.8084292718521269  0.5125773962578324  0.7263116341003766  1.0000
  N   N5        1.0  0.20717607411563682  0.9338677079360027  0.17531626464152336  1.0000
  N   N6        1.0  0.2928267958176819  0.06613254442230951  0.6753174876272323  1.0000
  N   N7        1.0  0.7071726892533974  0.566132888550584  0.8246816857957384  1.0000
  N   N8        1.0  0.792826778812632  0.4338659096826802  0.324683024384754  1.0000
  O   O1        1.0  0.5351994661671355  0.9683978555453198  0.7284446383486483  1.0000
  O   O2        1.0  0.9647941976226094  0.0316025962601998  0.2284482786502906  1.0000
  O   O3        1.0  0.03520135160978549  0.5316028804020904  0.2715588201061223  1.0000
  O   O4        1.0  0.464804508186127  0.4683965256462486  0.7715535771769665  1.0000
  O   O5        1.0  0.42468672120534023  0.5944777509653676  0.7418499829919369  1.0000
  O   O6        1.0  0.07531821573814311  0.4055219461811036  0.2418518722862757  1.0000
  O   O7        1.0  0.924679286781128  0.905521861897654  0.2581469967993471  1.0000
  O   O8        1.0  0.5753096707197117  0.09447991329601281  0.758149952958938  1.0000
  O   O9        1.0  0.714188264335924  0.004978072668343702  0.6724629746173392  1.0000
  O   O10       1.0  0.7858092893141447  0.9950177272048395  0.1724654889248782  1.0000
  O   O11       1.0  0.21420140611666477  0.4950188307031312  0.32753842066333055  1.0000
  O   O12       1.0  0.2858104145567993  0.5049807873976208  0.8275326060203413  1.0000
  O   O13       1.0  0.6860831778828782  0.6464769308294864  0.737498694179024  1.0000
  O   O14       1.0  0.8139192107007391  0.3535219407684239  0.23749950970320544  1.0000
  O   O15       1.0  0.1860759884800274  0.8535208573957647  0.2625002452629914  1.0000
  O   O16       1.0  0.3139112956729378  0.14648012885898254  0.7625041243940485  1.0000
  F   F1        1.0  0.4518338407961764  0.7220096101319273  0.9443441530994718  1.0000
  F   F2        1.0  0.048152056277267305  0.27799367944834336  0.44434119080692375  1.0000
  F   F3        1.0  0.9518593652018412  0.7779903843405126  0.0556590432625512  1.0000
  F   F4        1.0  0.5481542612373219  0.2220102201674052  0.555657501201452  1.0000
  F   F5        1.0  0.17322217931754844  0.7556223588697507  0.9618277684610845  1.0000
  F   F6        1.0  0.3267628537059082  0.24438261144338472  0.4618283097903486  1.0000
  F   F7        1.0  0.6732432690710369  0.7443827050016624  0.0381687492397944  1.0000
  F   F8        1.0  0.82676559225758  0.2556206586275921  0.5381702090457877  1.0000
  F   F9        1.0  0.5320385703019427  0.7710702807019203  0.8346940473031593  1.0000
  F   F10       1.0  0.9679541724851008  0.22892976632972054  0.33469309297928623  1.0000
  F   F11       1.0  0.0320422514148078  0.7289304578013684  0.1653059794272593  1.0000
  F   F12       1.0  0.46795890022118414  0.2710709675045281  0.6653043149599468  1.0000
  F   F13       1.0  0.27435788602218747  0.8176348512313609  0.8189767940168053  1.0000
  F   F14       1.0  0.2256395961965012  0.18236150546167812  0.3189769802736748  1.0000
  F   F15       1.0  0.7743600999906947  0.6823648835324791  0.18102333543676957  1.0000
  F   F16       1.0  0.7256391268088082  0.31763498500431103  0.6810237508549617  1.0000
  F   F17       1.0  0.284461898653035  0.7013379228493621  0.8663149398353198  1.0000
  F   F18       1.0  0.2155342396727349  0.2986626494055997  0.3663147396812931  1.0000
  F   F19       1.0  0.7844586842321633  0.798663014593217  0.1336838378165055  1.0000
  F   F20       1.0  0.7155390718724208  0.20133748186593436  0.6336842599276975  1.0000
  F   F21       1.0  0.07093567535932982  0.7650165908699267  0.8773654688247845  1.0000
  F   F22       1.0  0.42906080627082593  0.23498604136678844  0.377365829910886  1.0000
  F   F23       1.0  0.5709383726159984  0.7349849233378978  0.1226329164296089  1.0000
  F   F24       1.0  0.9290618547090903  0.2650171457583284  0.6226352750616397  1.0000
