data_image0
_chemical_formula_structural       Mg6H18C42O18
_chemical_formula_sum              "Mg6 H18 C42 O18"
_cell_length_a       6.837903184826727
_cell_length_b       22.099624662897742
_cell_length_c       22.10384314639318
_cell_angle_alpha    118.95030249449091
_cell_angle_beta     95.90526392692239
_cell_angle_gamma    95.9255343590643

_space_group_name_H-M_alt    "P 1"
_space_group_IT_number       1

loop_
  _space_group_symop_operation_xyz
  'x, y, z'

loop_
  _atom_site_type_symbol
  _atom_site_label
  _atom_site_symmetry_multiplicity
  _atom_site_fract_x
  _atom_site_fract_y
  _atom_site_fract_z
  _atom_site_occupancy
  Mg  Mg1       1.0  0.9881659795565982  0.670454094132495  0.2873413811940821  1.0000
  Mg  Mg2       1.0  0.6677811861075114  0.32892944373146094  0.7121811957543542  1.0000
  Mg  Mg3       1.0  0.7007325029513467  0.7126566020216955  0.38302096211506864  1.0000
  Mg  Mg4       1.0  0.9557036817308385  0.2877744051285164  0.6167495396655696  1.0000
  Mg  Mg5       1.0  0.317738093138857  0.6169658980538345  0.32956742383697  1.0000
  Mg  Mg6       1.0  0.3388101848352819  0.38328685715701033  0.67108376504342  1.0000
  H   H1        1.0  0.14678388819667992  0.09281118432330261  0.5258307054532311  1.0000
  H   H2        1.0  0.9819960288964393  0.9986224095118243  0.46877216449487236  1.0000
  H   H3        1.0  0.782576572092708  0.8803955322639182  0.39946026802214624  1.0000
  H   H4        1.0  0.6742270105973063  0.0011495888059372  0.5272359346660593  1.0000
  H   H5        1.0  0.8734443781719818  0.11931917222171512  0.5976063269649217  1.0000
  H   H6        1.0  0.5085304918391457  0.9072857789665392  0.4722501869814053  1.0000
  H   H7        1.0  0.6208175249520594  0.4740715265342104  0.5669400551827977  1.0000
  H   H8        1.0  0.5132951704849589  0.5314167519162324  0.5300000623384448  1.0000
  H   H9        1.0  0.38296279395994054  0.6006658769965584  0.4809897789992732  1.0000
  H   H10       1.0  0.14664747039775966  0.47276722496314255  0.47383609588032977  1.0000
  H   H11       1.0  0.276040162680161  0.4024475928614279  0.5217415636678879  1.0000
  H   H12       1.0  0.036158853341312615  0.5276042187384533  0.4349353971249811  1.0000
  H   H13       1.0  0.05413299142171726  0.43306015336361275  0.9072393289644012  1.0000
  H   H14       1.0  0.9835248719771529  0.4700133459472868  0.0014335729392414573  1.0000
  H   H15       1.0  0.9022012138840765  0.5190600950190926  0.11966800994125745  1.0000
  H   H16       1.0  0.673094004975809  0.5261245348368109  0.9988371573845073  1.0000
  H   H17       1.0  0.754325959567069  0.4782898505576653  0.8806226090873324  1.0000
  H   H18       1.0  0.6014325475094112  0.5649768590490325  0.09268732216296635  1.0000
  C   C1        1.0  0.3075044410369756  0.22306249216275378  0.5999219999777381  1.0000
  C   C2        1.0  0.4172220464369047  0.1642558589365493  0.5820006049109026  1.0000
  C   C3        1.0  0.30574868008987016  0.0959737608763831  0.5409009284930946  1.0000
  C   C4        1.0  0.26607045260379175  0.9644787103495813  0.47732109462845057  1.0000
  C   C5        1.0  0.057600767669761334  0.9537938121199188  0.45516402627870894  1.0000
  C   C6        1.0  0.9430429343516024  0.8871869289080792  0.4156898030207259  1.0000
  C   C7        1.0  0.02772696196829122  0.8258952882438776  0.39454698052657017  1.0000
  C   C8        1.0  0.3895531809406307  0.03547649607894239  0.5198240758605834  1.0000
  C   C9        1.0  0.5982913165455344  0.0460159188427127  0.5415223039666799  1.0000
  C   C10       1.0  0.7128046392660607  0.11257818768999074  0.5816013782684735  1.0000
  C   C11       1.0  0.6278834701522483  0.17392796530961624  0.6037124709776762  1.0000
  C   C12       1.0  0.23830000715901895  0.835676653240597  0.4163599366929419  1.0000
  C   C13       1.0  0.3496729540595496  0.904022887154028  0.45692999396477074  1.0000
  C   C14       1.0  0.34827029957804  0.7770012967803909  0.3990450100867805  1.0000
  C   C15       1.0  0.7076078757594148  0.40007303719675497  0.6231725859405515  1.0000
  C   C16       1.0  0.8352542812224969  0.41800007185293  0.5822908947570369  1.0000
  C   C17       1.0  0.7647529207734038  0.4590335655468962  0.5550460835015798  1.0000
  C   C18       1.0  0.7886554087105326  0.5226837629701679  0.48715797957528656  1.0000
  C   C19       1.0  0.6023637126228962  0.5448999371520529  0.49866545580019306  1.0000
  C   C20       1.0  0.5272261087622071  0.584410002097961  0.47156803095461447  1.0000
  C   C21       1.0  0.6331559097979919  0.6055383767628583  0.43142198660319053  1.0000
  C   C22       1.0  0.8696481046519366  0.48015715116764573  0.5156512425929448  1.0000
  C   C23       1.0  0.056723650251967656  0.45846617635339004  0.5044803716114643  1.0000
  C   C24       1.0  0.13129284290724297  0.4183935470622303  0.5309619203549049  1.0000
  C   C25       1.0  0.024279322426338026  0.39629760888884386  0.5702360014987847  1.0000
  C   C26       1.0  0.8218948933857392  0.583652669686451  0.41934735259405204  1.0000
  C   C27       1.0  0.8926694047440974  0.5429957928993758  0.44703022659037833  1.0000
  C   C28       1.0  0.9490828880532831  0.6009388600382196  0.37792408336667904  1.0000
  C   C29       1.0  0.08434624858197291  0.3768398113558435  0.7769398525207906  1.0000
  C   C30       1.0  0.252958324123469  0.4176946286315797  0.8357166087733817  1.0000
  C   C31       1.0  0.2099185310669753  0.4449084397774428  0.9040217108440061  1.0000
  C   C32       1.0  0.30166604625124194  0.5128595291506456  0.035513231171570646  1.0000
  C   C33       1.0  0.10388916504938812  0.5013558979093703  0.046246920443202645  1.0000
  C   C34       1.0  0.05593602417940259  0.5284416983787639  0.11285441794774448  1.0000
  C   C35       1.0  0.20196962901484042  0.5686034925038045  0.17410933742083057  1.0000
  C   C36       1.0  0.3542149199499606  0.48434536346952234  0.9645030399094097  1.0000
  C   C37       1.0  0.552407807112715  0.4955301074893868  0.9539394640927412  1.0000
  C   C38       1.0  0.6003622567390963  0.46905472808062143  0.8873729916712706  1.0000
  C   C39       1.0  0.4540037763193184  0.4297707554902174  0.826043915159282  1.0000
  C   C40       1.0  0.4028036262545598  0.5806607201422267  0.16430435060293996  1.0000
  C   C41       1.0  0.44579209125767244  0.5529268441863237  0.09595143685527317  1.0000
  C   C42       1.0  0.57139991201322  0.6221280707471307  0.22299682669062545  1.0000
  O   O1        1.0  0.90897357237116  0.7628458455921603  0.3557623782167242  1.0000
  O   O2        1.0  0.12282650543588153  0.21231731772375895  0.5750804488499028  1.0000
  O   O3        1.0  0.403247327645353  0.2862872546435185  0.6424167221832704  1.0000
  O   O4        1.0  0.533051378638568  0.7880359231713072  0.4238896679289894  1.0000
  O   O5        1.0  0.2529110912952178  0.7136199453216038  0.35702495708335397  1.0000
  O   O6        1.0  0.7468104144216027  0.23689286752735947  0.6431096175257879  1.0000
  O   O7        1.0  0.5532165204062736  0.6442780985559508  0.4070842594630051  1.0000
  O   O8        1.0  0.5477783855419815  0.42491075395423655  0.6373535753393256  1.0000
  O   O9        1.0  0.7608217664421205  0.35754354328247473  0.6438442686235533  1.0000
  O   O10       1.0  0.10901978385812339  0.5760689775101399  0.3640894109950282  1.0000
  O   O11       1.0  0.895755920226563  0.6429620034216228  0.3565654309847375  1.0000
  O   O12       1.0  0.1038087368068403  0.356866109554602  0.593765242984901  1.0000
  O   O13       1.0  0.14617793209346527  0.5929695163951791  0.2371488479678519  1.0000
  O   O14       1.0  0.9103346292970971  0.3627526391285087  0.787652575767055  1.0000
  O   O15       1.0  0.1169460549195023  0.3560986230523753  0.7137210360941424  1.0000
  O   O16       1.0  0.7451874199519395  0.6360225655540788  0.21200303721409597  1.0000
  O   O17       1.0  0.5392565409906638  0.6434534034682713  0.28635604156666256  1.0000
  O   O18       1.0  0.5099582530418161  0.40620216237934414  0.7630958938468241  1.0000
