data_image0
_chemical_formula_structural       Ag4H32C24N8Cl4O16
_chemical_formula_sum              "Ag4 H32 C24 N8 Cl4 O16"
_cell_length_a       7.364810531516843
_cell_length_b       11.145254376704017
_cell_length_c       11.4427895007539
_cell_angle_alpha    91.66523240550906
_cell_angle_beta     105.65122924595424
_cell_angle_gamma    89.9563393181495

_space_group_name_H-M_alt    "P 1"
_space_group_IT_number       1

loop_
  _space_group_symop_operation_xyz
  'x, y, z'

loop_
  _atom_site_type_symbol
  _atom_site_label
  _atom_site_symmetry_multiplicity
  _atom_site_fract_x
  _atom_site_fract_y
  _atom_site_fract_z
  _atom_site_occupancy
  Ag  Ag1       1.0  0.6151117687613095  0.08370278333855202  0.3663019951476656  1.0000
  Ag  Ag2       1.0  0.3848955687811256  0.9162985427850788  0.6336976964586967  1.0000
  Ag  Ag3       1.0  0.4966927459521316  0.5797346846842046  0.2218922950667803  1.0000
  Ag  Ag4       1.0  0.5033089409312981  0.42026665779282285  0.7781081505436163  1.0000
  H   H1        1.0  0.528121350610043  0.8348744602496369  0.3612770217099737  1.0000
  H   H2        1.0  0.471876041125576  0.16512149125950515  0.6387190385248189  1.0000
  H   H3        1.0  0.7345485425066302  0.8374297349324709  0.31295863974541765  1.0000
  H   H4        1.0  0.2654460473125796  0.16256802319311703  0.687038720215952  1.0000
  H   H5        1.0  0.8094692221654117  0.6417803726248013  0.38890731556442404  1.0000
  H   H6        1.0  0.19053104696020284  0.3582191644216907  0.6110893400355124  1.0000
  H   H7        1.0  0.6277300492959839  0.6394874780885332  0.4478308256288983  1.0000
  H   H8        1.0  0.37227157258244165  0.3605084659037631  0.5521659787258315  1.0000
  H   H9        1.0  0.8959008132921299  0.6970573511886332  0.5918791073282321  1.0000
  H   H10       1.0  0.10408517162528604  0.30293235273273217  0.40811916024753  1.0000
  H   H11       1.0  0.05976689859501503  0.8032676891785759  0.7875742559828823  1.0000
  H   H12       1.0  0.9402288902714349  0.19671750585230546  0.2124247506842707  1.0000
  H   H13       1.0  0.02993007307649981  0.0258422467359196  0.8054249726243441  1.0000
  H   H14       1.0  0.9700770848713491  0.9741464998058337  0.1945708791559682  1.0000
  H   H15       1.0  0.8403404963936013  0.13536810651012132  0.6245156723340486  1.0000
  H   H16       1.0  0.15966812751745613  0.8646251352081367  0.3754831708386419  1.0000
  H   H17       1.0  0.5662390286543799  0.34330695157179764  0.23500553248297962  1.0000
  H   H18       1.0  0.4337557016434275  0.6567015971923101  0.764997363825799  1.0000
  H   H19       1.0  0.35901137848174614  0.32468638874915723  0.2799541765741509  1.0000
  H   H20       1.0  0.6409776805023314  0.675318563661506  0.7200432628796635  1.0000
  H   H21       1.0  0.3269991444104789  0.12356350200996506  0.18055681670735169  1.0000
  H   H22       1.0  0.6730011883409405  0.8764423406547834  0.8194461242154745  1.0000
  H   H23       1.0  0.5209640074085654  0.14697960976742055  0.14060268706172957  1.0000
  H   H24       1.0  0.47903492052955  0.8530262322374825  0.8593991327391423  1.0000
  H   H25       1.0  0.18840291330699446  0.18203414166280404  0.0053032677034892005  1.0000
  H   H26       1.0  0.8115861390635931  0.81797172104686  0.9946976888995137  1.0000
  H   H27       1.0  0.008530780531323504  0.27810958307304656  0.8157661601951034  1.0000
  H   H28       1.0  0.9914583329891616  0.7219007741532694  0.18423666667832353  1.0000
  H   H29       1.0  0.04447992237174961  0.49883427631797894  0.7941249043543408  1.0000
  H   H30       1.0  0.9555260648937819  0.5011724539614592  0.20587905354968675  1.0000
  H   H31       1.0  0.2501670512430607  0.6178263335739019  0.9704348635723578  1.0000
  H   H32       1.0  0.7498445685026811  0.3821785787469312  0.029566544521095868  1.0000
  C   C1        1.0  0.780001493081244  0.860043761104109  0.5049783629476678  1.0000
  C   C2        1.0  0.21999158119017892  0.13994771923254493  0.4950194483066284  1.0000
  C   C3        1.0  0.6747399661597414  0.8036779341111217  0.3841064195415882  1.0000
  C   C4        1.0  0.3252560102939697  0.19631802306909663  0.6158902657351959  1.0000
  C   C5        1.0  0.8846971582267857  0.7939261284909949  0.6017737652520695  1.0000
  C   C6        1.0  0.11530292331156743  0.20606264640615285  0.3982252117382288  1.0000
  C   C7        1.0  0.9771977076651694  0.8529641848550187  0.7106770642148205  1.0000
  C   C8        1.0  0.02279673368276751  0.14702460006459012  0.2893209206155589  1.0000
  C   C9        1.0  0.9621753658668339  0.9773761747818955  0.7210062045316405  1.0000
  C   C10       1.0  0.03782472476091672  0.022613500917863415  0.2789936703619205  1.0000
  C   C11       1.0  0.8559643350799322  0.03825445709650672  0.6213484699746417  1.0000
  C   C12       1.0  0.14404147920450336  0.9617387833020534  0.37864813095415434  1.0000
  C   C13       1.0  0.3140501948314807  0.34952664284535484  0.08926111543931368  1.0000
  C   C14       1.0  0.6859500820043396  0.650474702137281  0.9107390821311085  1.0000
  C   C15       1.0  0.42670477043099453  0.2995428375920072  0.2082166841902264  1.0000
  C   C16       1.0  0.5732927279015244  0.7004621124468289  0.7917857358313469  1.0000
  C   C17       1.0  0.19901263214774906  0.27854842358603804  0.9959269463425144  1.0000
  C   C18       1.0  0.8009863062589562  0.7214574120879295  0.0040731272944114294  1.0000
  C   C19       1.0  0.1002254163250953  0.3317105013804707  0.8889505744700089  1.0000
  C   C20       1.0  0.8997735063787219  0.6682953437898933  0.11105211841283591  1.0000
  C   C21       1.0  0.11855808200715501  0.4549207388891006  0.8770990132424004  1.0000
  C   C22       1.0  0.8814493414774633  0.5450859730574039  0.12290082729173686  1.0000
  C   C23       1.0  0.23262072280005705  0.5210706896240895  0.9741557611387606  1.0000
  C   C24       1.0  0.7673838323839706  0.4789333375876766  0.025844381933502806  1.0000
  N   N1        1.0  0.7674228315461991  0.981130424499746  0.5155080422770765  1.0000
  N   N2        1.0  0.23258010782416258  0.018861041463075906  0.48449237833904146  1.0000
  N   N3        1.0  0.6744800855079163  0.6721289432609795  0.37814361025175447  1.0000
  N   N4        1.0  0.3255173009934041  0.32786701141362334  0.621853323065011  1.0000
  N   N5        1.0  0.3286117964154231  0.4696185904337967  0.07784835053498543  1.0000
  N   N6        1.0  0.6713955620641912  0.5303827230279838  0.9221478487434851  1.0000
  N   N7        1.0  0.45334824318477746  0.1687599338038624  0.2061816511493717  1.0000
  N   N8        1.0  0.5466506847533382  0.8312459082010337  0.7938201686515001  1.0000
  Cl  Cl1       1.0  0.7694611791584266  0.38694333713908713  0.5249811316097066  1.0000
  Cl  Cl2       1.0  0.2305461035651319  0.6130562095375823  0.4750228757639334  1.0000
  Cl  Cl3       1.0  0.3378323466488099  0.8747649909146066  0.07340184657045512  1.0000
  Cl  Cl4       1.0  0.6621666308738839  0.12524263370272595  0.9265965305451119  1.0000
  O   O1        1.0  0.6104842021242264  0.3019547206977863  0.49206653431448183  1.0000
  O   O2        1.0  0.3895272691502429  0.6980412184170746  0.5079354986479814  1.0000
  O   O3        1.0  0.929089179311511  0.3278973926772437  0.6079134143158242  1.0000
  O   O4        1.0  0.0709081845909694  0.6721031071614478  0.3920993585829393  1.0000
  O   O5        1.0  0.717630035734608  0.49310484066479204  0.5862978190686334  1.0000
  O   O6        1.0  0.2823646113793928  0.5068965080093691  0.4136996401779244  1.0000
  O   O7        1.0  0.8202844581986568  0.42073922599289676  0.4157968293877587  1.0000
  O   O8        1.0  0.1797354615136585  0.5792576115527481  0.5842110820457335  1.0000
  O   O9        1.0  0.2952877703223606  0.7960233450257378  0.16294739076152348  1.0000
  O   O10       1.0  0.7047083221001247  0.2039788861180939  0.8370468490184209  1.0000
  O   O11       1.0  0.31393326150027445  0.8057487104546793  0.9583771377107128  1.0000
  O   O12       1.0  0.6860643307671028  0.19425980797447556  0.04161927002223111  1.0000
  O   O13       1.0  0.531717084924452  0.9181425225884754  0.1159420965415308  1.0000
  O   O14       1.0  0.4682833012666522  0.08186600665678162  0.8840591726812335  1.0000
  O   O15       1.0  0.2065009002070398  0.9749701317815255  0.053027005917599  1.0000
  O   O16       1.0  0.7934980577576596  0.025036598364124505  0.946972219458644  1.0000
