data_image0
_chemical_formula_structural       Dy4H40C24O26
_chemical_formula_sum              "Dy4 H40 C24 O26"
_cell_length_a       8.336567235080224
_cell_length_b       11.369417531529495
_cell_length_c       11.369427733013346
_cell_angle_alpha    92.00916029989847
_cell_angle_beta     107.60797402920988
_cell_angle_gamma    107.60789558657238

_space_group_name_H-M_alt    "P 1"
_space_group_IT_number       1

loop_
  _space_group_symop_operation_xyz
  'x, y, z'

loop_
  _atom_site_type_symbol
  _atom_site_label
  _atom_site_symmetry_multiplicity
  _atom_site_fract_x
  _atom_site_fract_y
  _atom_site_fract_z
  _atom_site_occupancy
  Dy  Dy1       1.0  0.932073683220089  0.8458072340656955  0.5605973876468864  1.0000
  Dy  Dy2       1.0  0.4320716856744794  0.5605973661008292  0.8458081466423478  1.0000
  Dy  Dy3       1.0  0.6956684613165365  0.7131476265631777  0.19685590205773448  1.0000
  Dy  Dy4       1.0  0.19567025054857368  0.19685476193125603  0.7131484163168835  1.0000
  H   H1        1.0  0.0042995900171191904  0.43506753022937517  0.3800847064677909  1.0000
  H   H2        1.0  0.5043016853702724  0.3800850354298931  0.4350694819401396  1.0000
  H   H3        1.0  0.9128456975884021  0.4732533479470575  0.4933311716429356  1.0000
  H   H4        1.0  0.412844743890183  0.4933298882387477  0.47325404796401205  1.0000
  H   H5        1.0  0.1252812514392048  0.5679768132403707  0.49824319470636863  1.0000
  H   H6        1.0  0.6252800088631005  0.4982431719025868  0.5679790716776622  1.0000
  H   H7        1.0  0.29255415913900146  0.1213416819834308  0.3682153254053943  1.0000
  H   H8        1.0  0.7925578831545861  0.36821574523231243  0.12134260336193844  1.0000
  H   H9        1.0  0.13349192847487498  0.11047405724526269  0.21745080916527113  1.0000
  H   H10       1.0  0.6334954972116976  0.21745142663631614  0.1104764574924317  1.0000
  H   H11       1.0  0.276249622702437  0.020600507819572997  0.23552687169728861  1.0000
  H   H12       1.0  0.7762521861134246  0.2355274502284459  0.020601914051837894  1.0000
  H   H13       1.0  0.2950872255347862  0.655212977573669  0.33786932625102384  1.0000
  H   H14       1.0  0.795088140578798  0.3378695204887663  0.6552133478184314  1.0000
  H   H15       1.0  0.33633574287846824  0.7983310687072419  0.27507559569353646  1.0000
  H   H16       1.0  0.8363356301793484  0.27507521983947214  0.7983322851162524  1.0000
  H   H17       1.0  0.3012437745000228  0.7902734402855955  0.42439204542631603  1.0000
  H   H18       1.0  0.8012462017751574  0.4243934190924321  0.7902739662610613  1.0000
  H   H19       1.0  0.5767123051547715  0.9330792949218607  0.6841945924580839  1.0000
  H   H20       1.0  0.07670698204549356  0.6841968527178609  0.933077849981046  1.0000
  H   H21       1.0  0.5657969270557358  0.06728852160489401  0.7682717941676598  1.0000
  H   H22       1.0  0.06579127008523493  0.768274067539245  0.06728793818432167  1.0000
  H   H23       1.0  0.5174243792830139  0.05518255412708581  0.6054373212596713  1.0000
  H   H24       1.0  0.017421444134910872  0.6054398148461075  0.0551809995758106  1.0000
  H   H25       1.0  0.7310769012067836  0.04801560478505001  0.3159291614752816  1.0000
  H   H26       1.0  0.2310752561622351  0.3159281265732687  0.048015912804267175  1.0000
  H   H27       1.0  0.7270467233448271  0.20402638604710432  0.3449898869564619  1.0000
  H   H28       1.0  0.22704549428425472  0.3449896561757057  0.20402795773946278  1.0000
  H   H29       1.0  0.6004736747092352  0.07614972245918489  0.4024161038299424  1.0000
  H   H30       1.0  0.10047244416879404  0.4024154584231565  0.07614982546272125  1.0000
  H   H31       1.0  0.729086516138409  0.8926753747604792  0.9041158169760732  1.0000
  H   H32       1.0  0.22908725084635512  0.9041193441217885  0.8926737104457344  1.0000
  H   H33       1.0  0.8322221022054562  0.05609505291121761  0.9636034910371618  1.0000
  H   H34       1.0  0.3322257219978653  0.9636079166034718  0.056094552487472464  1.0000
  H   H35       1.0  0.943326106630316  0.9486238112087975  0.01770210515469728  1.0000
  H   H36       1.0  0.44333080957468235  0.017704329224351105  0.9486243542922278  1.0000
  H   H37       1.0  0.9954856298516644  0.6247148561782581  0.6935089756542607  1.0000
  H   H38       1.0  0.4954851349386046  0.6935073922484775  0.6247153846452631  1.0000
  H   H39       1.0  0.8423266383158533  0.6593418101301155  0.7234451117764988  1.0000
  H   H40       1.0  0.3423279452260743  0.7234456361126789  0.6593412686058711  1.0000
  C   C1        1.0  0.9079742148941038  0.5910161760143711  0.35193354933720394  1.0000
  C   C2        1.0  0.40797328982662856  0.3519316947805393  0.5910173717104639  1.0000
  C   C3        1.0  0.9931349358003627  0.5117480976764811  0.4343799650360934  1.0000
  C   C4        1.0  0.4931344144058372  0.43437956069492145  0.5117487891407535  1.0000
  C   C5        1.0  0.06452983791255214  0.9528701889442601  0.3119260385611397  1.0000
  C   C6        1.0  0.5645320221676187  0.3119266116933943  0.9528720181185403  1.0000
  C   C7        1.0  0.20209212107165794  0.05857474406235498  0.2830606543912068  1.0000
  C   C8        1.0  0.7020943777965414  0.283061337305071  0.05857627093079287  1.0000
  C   C9        1.0  0.5555572373208193  0.7826057326454573  0.42441956852452006  1.0000
  C   C10       1.0  0.055559301405679704  0.424419528022284  0.7826063168145578  1.0000
  C   C11       1.0  0.3599016540129297  0.7566981727508021  0.3614009255652205  1.0000
  C   C12       1.0  0.859901651555205  0.361401831462608  0.7566994304713146  1.0000
  C   C13       1.0  0.31255662399442496  0.9388279462139267  0.660288579324593  1.0000
  C   C14       1.0  0.8125507960230252  0.6602903818884869  0.9388269348068473  1.0000
  C   C15       1.0  0.5067397537247587  0.0005307310785695997  0.6824266466927325  1.0000
  C   C16       1.0  0.006735549369892674  0.6824306152548374  0.0005296392784118146  1.0000
  C   C17       1.0  0.8798426954602332  0.14066178213972347  0.5024339391834615  1.0000
  C   C18       1.0  0.3798402322101779  0.5024334572345596  0.1406627857808473  1.0000
  C   C19       1.0  0.7261516637440194  0.11705791175197082  0.3836163829052451  1.0000
  C   C20       1.0  0.22615010777416697  0.38361624751088635  0.11705901978672975  1.0000
  C   C21       1.0  0.9395342882814501  0.9903274024038495  0.8343616723193248  1.0000
  C   C22       1.0  0.4395347746593856  0.834362066577043  0.9903276155730508  1.0000
  C   C23       1.0  0.8541681655883552  0.9708229620842986  0.9348658256087103  1.0000
  C   C24       1.0  0.3541712108851982  0.9348686648848527  0.9708231784539476  1.0000
  O   O1        1.0  0.8583663518736554  0.5674321494554135  0.23384776767658608  1.0000
  O   O2        1.0  0.3583694926972356  0.23384739418928296  0.5674334062056586  1.0000
  O   O3        1.0  0.8796653143937049  0.6840308055320676  0.40079646531321333  1.0000
  O   O4        1.0  0.379665330546615  0.4007956691756434  0.6840316086575979  1.0000
  O   O5        1.0  0.9497345840614885  0.872642464489047  0.21988740463137182  1.0000
  O   O6        1.0  0.4497365876882641  0.21988742637082492  0.8726438895156008  1.0000
  O   O7        1.0  0.06879502406248149  0.9494409849675802  0.42374070552608595  1.0000
  O   O8        1.0  0.5687941385341091  0.4237403184711256  0.9494424401878444  1.0000
  O   O9        1.0  0.6660666897702471  0.8229943456000657  0.3652381729609359  1.0000
  O   O10       1.0  0.1660659733019898  0.3652397406718535  0.8229938116113399  1.0000
  O   O11       1.0  0.6169725182689376  0.7662274124924265  0.5374174087116967  1.0000
  O   O12       1.0  0.11697281628946844  0.5374175209361809  0.766226899552059  1.0000
  O   O13       1.0  0.23221819663910997  0.8241480376640952  0.6164069553926266  1.0000
  O   O14       1.0  0.732213378716679  0.6164092665044761  0.8241484065483815  1.0000
  O   O15       1.0  0.21919515736971817  0.0036149780762074  0.6807689087446887  1.0000
  O   O16       1.0  0.7191904359155005  0.6807696000594279  0.0036159207600832974  1.0000
  O   O17       1.0  0.9044899162751886  0.049410531148289694  0.5612575605942353  1.0000
  O   O18       1.0  0.4044897746690381  0.5612572236482194  0.04941241264869227  1.0000
  O   O19       1.0  0.9856143595080411  0.25086119722528377  0.5467115099622786  1.0000
  O   O20       1.0  0.48561333818996383  0.5467096934451517  0.25086180986303924  1.0000
  O   O21       1.0  0.9065674828702227  0.8972671901999972  0.7551476620528772  1.0000
  O   O22       1.0  0.4065667077066665  0.7551483473834537  0.8972685498612943  1.0000
  O   O23       1.0  0.0427677650357836  0.1002506040552191  0.8366498936358369  1.0000
  O   O24       1.0  0.5427673338645249  0.8366509446251695  0.10025041699649508  1.0000
  O   O25       1.0  0.9083442227121238  0.6693746794509821  0.6624127117679419  1.0000
  O   O26       1.0  0.40834370341150356  0.6624124269805519  0.6693737287372341  1.0000
