data_image0
_chemical_formula_structural       Zn2H68C64I4N6O16
_chemical_formula_sum              "Zn2 H68 C64 I4 N6 O16"
_cell_length_a       14.334884020531046
_cell_length_b       15.117470763625393
_cell_length_c       19.130816289050404
_cell_angle_alpha    88.56628586314551
_cell_angle_beta     88.67775689540225
_cell_angle_gamma    89.2403131916099

_space_group_name_H-M_alt    "P 1"
_space_group_IT_number       1

loop_
  _space_group_symop_operation_xyz
  'x, y, z'

loop_
  _atom_site_type_symbol
  _atom_site_label
  _atom_site_symmetry_multiplicity
  _atom_site_fract_x
  _atom_site_fract_y
  _atom_site_fract_z
  _atom_site_occupancy
  Zn  Zn1       1.0  0.6046839116048659  0.4969570927996756  0.4968569153836527  1.0000
  Zn  Zn2       1.0  0.39151283080464344  0.502764946712709  0.5012601791092948  1.0000
  H   H1        1.0  0.6765125776835675  0.5276605090482888  0.8349529254970632  1.0000
  H   H2        1.0  0.9332925218700654  0.6117679939414626  0.4377551855155914  1.0000
  H   H3        1.0  0.0649303144035542  0.6162361707213789  0.4423711086291959  1.0000
  H   H4        1.0  0.9285437890447241  0.3757844572341683  0.5704487718819564  1.0000
  H   H5        1.0  0.564614224436582  0.9973920187856604  0.6419014473168687  1.0000
  H   H6        1.0  0.6341902734648955  0.09127821954373158  0.6583301323869719  1.0000
  H   H7        1.0  0.7077713229286503  0.9058730775282414  0.621968391948883  1.0000
  H   H8        1.0  0.7787057940490031  0.998790427904339  0.6342073554884493  1.0000
  H   H9        1.0  0.7167282978591273  0.009011892409589002  0.7594063292560378  1.0000
  H   H10       1.0  0.769836384039884  0.9042780917811369  0.7444671542986044  1.0000
  H   H11       1.0  0.646588406353935  0.9149792555519412  0.7469272839573335  1.0000
  H   H12       1.0  0.4538977166950602  0.35760938345548243  0.1580402217774974  1.0000
  H   H13       1.0  0.3687578218855877  0.9631819125558109  0.7188834498505869  1.0000
  H   H14       1.0  0.4243075511645672  0.8616500229054225  0.6952818180873025  1.0000
  H   H15       1.0  0.2715614678470999  0.8146069334824019  0.642901595759767  1.0000
  H   H16       1.0  0.2660771614134703  0.8295029307309463  0.7339037636093195  1.0000
  H   H17       1.0  0.18872461518628822  0.9776593586946588  0.7171001790688152  1.0000
  H   H18       1.0  0.1251903884623431  0.8969843133085432  0.672775010055986  1.0000
  H   H19       1.0  0.2008379325152418  0.9695409276600699  0.6248330956056876  1.0000
  H   H20       1.0  0.464461413956272  0.9947811292310219  0.3704762884329256  1.0000
  H   H21       1.0  0.5365260329299844  0.9310846767810261  0.3131342396222578  1.0000
  H   H22       1.0  0.5760145290098819  0.1183324703789168  0.3631990631096471  1.0000
  H   H23       1.0  0.60896306184506  0.5991895422121444  0.13853643219636072  1.0000
  H   H24       1.0  0.6550982346285822  0.054683113953046814  0.3123362289310805  1.0000
  H   H25       1.0  0.5374214491980212  0.049801143536186  0.2155344074462491  1.0000
  H   H26       1.0  0.5638950381664716  0.16076217706006452  0.23551531201504616  1.0000
  H   H27       1.0  0.4578457180379801  0.11409034609196311  0.2663497556859724  1.0000
  H   H28       1.0  0.2662123847282984  0.0285839178920355  0.3689573226862848  1.0000
  H   H29       1.0  0.3393869869210847  0.12305693022990738  0.3612831373162351  1.0000
  H   H30       1.0  0.22621733880472314  0.2083045976985218  0.4356115650528949  1.0000
  H   H31       1.0  0.17572352646622144  0.16755703360036023  0.3602189835716914  1.0000
  H   H32       1.0  0.09964994601067192  0.045404101205448896  0.4299065865621258  1.0000
  H   H33       1.0  0.07003050488830811  0.14825982502242843  0.4674929457718022  1.0000
  H   H34       1.0  0.3986659819547498  0.4299316133708544  0.8693937703080579  1.0000
  H   H35       1.0  0.15600426136202125  0.07805057179164271  0.5065709477493243  1.0000
  H   H36       1.0  0.27655439002384713  0.23214440070979955  0.5680869061081212  1.0000
  H   H37       1.0  0.1636493065292655  0.2611979096957242  0.5374620255777174  1.0000
  H   H38       1.0  0.233695073062627  0.28263615728056374  0.6865849428095316  1.0000
  H   H39       1.0  0.1216689841036711  0.3161348864533409  0.6597601818072079  1.0000
  H   H40       1.0  0.1994137781674183  0.1246167563225669  0.6568480844137738  1.0000
  H   H41       1.0  0.1170362905657498  0.16543717505818734  0.7190859471251159  1.0000
  H   H42       1.0  0.0859703793307887  0.15673519041998665  0.6302045522375793  1.0000
  H   H43       1.0  0.7318096884798352  0.7397419666128541  0.3894140743690429  1.0000
  H   H44       1.0  0.8497692746543136  0.7041898848736992  0.3906670335360475  1.0000
  H   H45       1.0  0.6369484427868172  0.22006745294483918  0.5329696602630776  1.0000
  H   H46       1.0  0.7288775143749506  0.7527748933013783  0.5193830859610031  1.0000
  H   H47       1.0  0.8480221282183678  0.7209783752721249  0.5223375646316484  1.0000
  H   H48       1.0  0.8903153902696348  0.8557836931198679  0.4455550558156318  1.0000
  H   H49       1.0  0.8341162198560852  0.8857661349958832  0.5252308497079454  1.0000
  H   H50       1.0  0.7705012638345822  0.8889981719141744  0.4471125007622874  1.0000
  H   H51       1.0  0.3070616548056008  0.7456611834350825  0.44510823212318235  1.0000
  H   H52       1.0  0.2588293702994093  0.7067732511515455  0.5257327126420748  1.0000
  H   H53       1.0  0.1448964161921467  0.7730266626073214  0.3996558422563794  1.0000
  H   H54       1.0  0.0969325820639071  0.7391998352228696  0.48227565961031615  1.0000
  H   H55       1.0  0.22953888866219782  0.8968827624970359  0.4593372574091958  1.0000
  H   H56       1.0  0.40651339227238026  0.7713211289473775  0.6075407960921028  1.0000
  H   H57       1.0  0.1072171478436204  0.9031645293855631  0.4769654776805581  1.0000
  H   H58       1.0  0.18327798249225677  0.8591167713349818  0.5409257694179033  1.0000
  H   H59       1.0  0.7090170359540977  0.3275910783919613  0.6682707456270761  1.0000
  H   H60       1.0  0.8225321810874392  0.3731398347777245  0.660252154780899  1.0000
  H   H61       1.0  0.7621914274501408  0.19728626875822644  0.5977132811060173  1.0000
  H   H62       1.0  0.876192861580009  0.23934337346191364  0.5920458705777776  1.0000
  H   H63       1.0  0.8859302010782883  0.23081281438105347  0.7246565802540559  1.0000
  H   H64       1.0  0.8619498186407882  0.1258651479852873  0.6901346073758674  1.0000
  H   H65       1.0  0.7709345524493474  0.18879887913576004  0.7298923084311255  1.0000
  H   H66       1.0  0.590892507379955  0.778377998983352  0.4274082422549199  1.0000
  H   H67       1.0  0.361846374907671  0.23188626346934169  0.4505608693689496  1.0000
  H   H68       1.0  0.06653292421860611  0.36709781762563404  0.5584406313969623  1.0000
  C   C1        1.0  0.5051154294000141  0.33317523794092807  0.48579793498357304  1.0000
  C   C2        1.0  0.8948044970703678  0.42842492216556843  0.5403791696526739  1.0000
  C   C3        1.0  0.1985518467492042  0.4267491496309219  0.5319867388357267  1.0000
  C   C4        1.0  0.8002140009243065  0.5577411251919384  0.4667049763113909  1.0000
  C   C5        1.0  0.19623124741985276  0.5623408601097921  0.4723067686157236  1.0000
  C   C6        1.0  0.7973766770048698  0.43085511333361376  0.5373480888281748  1.0000
  C   C7        1.0  0.0496963153621266  0.49259815540151664  0.5024471776791515  1.0000
  C   C8        1.0  0.9462210502839671  0.4930959396658351  0.5033898427959329  1.0000
  C   C9        1.0  0.4938452785092267  0.4887784839450902  0.6359922339673716  1.0000
  C   C10       1.0  0.49341497161313436  0.5174914036592496  0.3631222079271623  1.0000
  C   C11       1.0  0.5920911066509547  0.5189991763557344  0.7431049546233339  1.0000
  C   C12       1.0  0.5010616253869103  0.6670347568384898  0.5167296422879204  1.0000
  C   C13       1.0  0.4636050688541856  0.43289740554905615  0.2522339102884388  1.0000
  C   C14       1.0  0.5494833505221592  0.5679155452055511  0.24104250038698177  1.0000
  C   C15       1.0  0.4352870073652753  0.4688041570206066  0.762978182066945  1.0000
  C   C16       1.0  0.609845121594347  0.5087536193503794  0.8140939879817424  1.0000
  C   C17       1.0  0.48113876394503313  0.41624678257182507  0.1818923823235465  1.0000
  C   C18       1.0  0.5688691344692175  0.552369221481925  0.1708271140311766  1.0000
  C   C19       1.0  0.4532775490091297  0.4540270550919558  0.8335986181090291  1.0000
  C   C20       1.0  0.5414634801782158  0.47197893291367876  0.8591541586013777  1.0000
  C   C21       1.0  0.5359450555909221  0.47501867004143605  0.1412931777302333  1.0000
  C   C22       1.0  0.5060397863535044  0.4947496571434015  0.7143704231645884  1.0000
  C   C23       1.0  0.49940751857026566  0.23437874272696035  0.49100856549143407  1.0000
  C   C24       1.0  0.5000014280191891  0.5073522244679012  0.2844991949467115  1.0000
  C   C25       1.0  0.5552321656156495  0.4577163903010869  0.06753550226201809  1.0000
  C   C26       1.0  0.5582131660529583  0.4562661481240511  0.9335546987455815  1.0000
  C   C27       1.0  0.5658826795482174  0.09490952281394976  0.5288146535202358  1.0000
  C   C28       1.0  0.43951120752142003  0.9028407837965629  0.5658038556541172  1.0000
  C   C29       1.0  0.5407547902105065  0.9050141241984447  0.4627947626036999  1.0000
  C   C30       1.0  0.4122834845511179  0.0997269226298343  0.47881093457177576  1.0000
  C   C31       1.0  0.5737979953666753  0.1860942440257958  0.5189851158428596  1.0000
  C   C32       1.0  0.444723708623755  0.8102523600714733  0.568112094655838  1.0000
  C   C33       1.0  0.5490022270179012  0.8131135617258849  0.46643828865180836  1.0000
  C   C34       1.0  0.4998204382368955  0.7660949970433463  0.5185087134303287  1.0000
  C   C35       1.0  0.4185467381717771  0.1916470445525107  0.47151581747274207  1.0000
  C   C36       1.0  0.6324728431665321  0.02850463932130509  0.6297862945309873  1.0000
  C   C37       1.0  0.7125176776599034  0.9676293128016693  0.6508945917088056  1.0000
  C   C38       1.0  0.7113636634087612  0.9479795691121353  0.7296721212386998  1.0000
  C   C39       1.0  0.36850259612632646  0.9092411393044911  0.6812629734922169  1.0000
  C   C40       1.0  0.2732748118631321  0.8652434102735214  0.6831645606874162  1.0000
  C   C41       1.0  0.1924164799072159  0.9309438024459382  0.6739363649345833  1.0000
  C   C42       1.0  0.5371668740315485  0.9830156307926855  0.3528806240226885  1.0000
  C   C43       1.0  0.5803827267075977  0.0673585147026614  0.3231298888652887  1.0000
  C   C44       1.0  0.5323486890328724  0.09957387420757868  0.2564999855917804  1.0000
  C   C45       1.0  0.48590327616562945  0.0497164038682953  0.5086098752530859  1.0000
  C   C46       1.0  0.2887820120151403  0.0879769351152575  0.39582989406792285  1.0000
  C   C47       1.0  0.20407649585140317  0.14711245828887343  0.4113357071474368  1.0000
  C   C48       1.0  0.12830300677247664  0.10232231486510558  0.45646068633661235  1.0000
  C   C49       1.0  0.21652100109889016  0.27703515603328543  0.5760067569383907  1.0000
  C   C50       1.0  0.1780134665236233  0.2672524792569532  0.6504766855834916  1.0000
  C   C51       1.0  0.14299362960998252  0.17345604097020123  0.6648890027114122  1.0000
  C   C52       1.0  0.7843816682890719  0.7069422245076282  0.42212321957708815  1.0000
  C   C53       1.0  0.795708412583437  0.7556769529806503  0.49003907923376744  1.0000
  C   C54       1.0  0.8242721249779734  0.8517270788521856  0.4759634225511391  1.0000
  C   C55       1.0  0.24549554747053287  0.714288215297252  0.4694810290537248  1.0000
  C   C56       1.0  0.48615176731141224  0.9516175456348533  0.5120138441327242  1.0000
  C   C57       1.0  0.15812844058616804  0.7697258442069739  0.4561667402958562  1.0000
  C   C58       1.0  0.17023235901163497  0.8623842602984056  0.4845654113125946  1.0000
  C   C59       1.0  0.7726847883018452  0.32983597354100885  0.6351209007275713  1.0000
  C   C60       1.0  0.8126061604264194  0.23701189082068197  0.6254606834383623  1.0000
  C   C61       1.0  0.8341644625079284  0.19328864705091323  0.696359354363743  1.0000
  C   C62       1.0  0.1009514816905863  0.4232559999272567  0.5332311988294691  1.0000
  C   C63       1.0  0.8975050471046873  0.5594685597794748  0.4669071764211523  1.0000
  C   C64       1.0  0.0991893326700009  0.5622689428587152  0.4703174260161518  1.0000
  I   I1        1.0  0.7001187820653315  0.5822576283927103  0.6840870767499467  1.0000
  I   I2        1.0  0.38132096101704605  0.33835136687433476  0.3075177857096634  1.0000
  I   I3        1.0  0.5918258195075055  0.6909143974728664  0.2787652676562685  1.0000
  I   I4        1.0  0.293499442377005  0.4538881143641831  0.7383128984335627  1.0000
  N   N1        1.0  0.5086704365510712  0.39223255847988975  0.9680056315811286  1.0000
  N   N2        1.0  0.6261733431862665  0.5004011135510211  0.0334751637693742  1.0000
  N   N3        1.0  0.5069736659811143  0.39361204741270933  0.0367382884018781  1.0000
  N   N4        1.0  0.626916468575999  0.5000047009409272  0.9645536377452757  1.0000
  N   N5        1.0  0.2456317111502813  0.4961721411406259  0.503154818165612  1.0000
  N   N6        1.0  0.7506554881333045  0.49356991625649027  0.500076730250214  1.0000
  O   O1        1.0  0.5856408671523711  0.36629992209514467  0.47859740830772074  1.0000
  O   O2        1.0  0.3921287293213781  0.9518042284996753  0.6150009511702237  1.0000
  O   O3        1.0  0.5910936834277934  0.9504696120209883  0.41140471827290537  1.0000
  O   O4        1.0  0.33662508202360913  0.0534923890925754  0.4566522819661571  1.0000
  O   O5        1.0  0.2539312687301489  0.3635681406827799  0.5593233825745827  1.0000
  O   O6        1.0  0.747620393037167  0.6187805608321284  0.4335967401824874  1.0000
  O   O7        1.0  0.24673636130913934  0.6264915815489118  0.43968992738290064  1.0000
  O   O8        1.0  0.7418712695238341  0.3722628740231286  0.5708984926933737  1.0000
  O   O9        1.0  0.42142643240967465  0.6316251011157378  0.5142199286998164  1.0000
  O   O10       1.0  0.5800972934002785  0.6282069993906062  0.5159542393224612  1.0000
  O   O11       1.0  0.42765132944419554  0.37504095173729707  0.49083340078185245  1.0000
  O   O12       1.0  0.5675995176305335  0.4685381969899253  0.6017574472525311  1.0000
  O   O13       1.0  0.4131819706114399  0.5207316054419593  0.3915811511104508  1.0000
  O   O14       1.0  0.5720856446723844  0.5189063680959478  0.3919393288312563  1.0000
  O   O15       1.0  0.4131200835226281  0.5003788597509597  0.6119430786579798  1.0000
  O   O16       1.0  0.6409237630174759  0.04773409377442309  0.5557390096958201  1.0000
