data_image0
_chemical_formula_structural       Zn8H24C40O26F2
_chemical_formula_sum              "Zn8 H24 C40 O26 F2"
_cell_length_a       18.547214681605563
_cell_length_b       18.572206621576072
_cell_length_c       18.598681723743475
_cell_angle_alpha    119.76596301122349
_cell_angle_beta     90.5564845318013
_cell_angle_gamma    119.4392725663193

_space_group_name_H-M_alt    "P 1"
_space_group_IT_number       1

loop_
  _space_group_symop_operation_xyz
  'x, y, z'

loop_
  _atom_site_type_symbol
  _atom_site_label
  _atom_site_symmetry_multiplicity
  _atom_site_fract_x
  _atom_site_fract_y
  _atom_site_fract_z
  _atom_site_occupancy
  Zn  Zn1       1.0  0.5420772814876005  0.08795511359825532  0.955399312046687  1.0000
  Zn  Zn2       1.0  0.5421723443980183  0.08522318266019373  0.1261828053431486  1.0000
  Zn  Zn3       1.0  0.5394075445438915  0.9123585510476815  0.9523744704013807  1.0000
  Zn  Zn4       1.0  0.3684037618167721  0.9160660130404139  0.9538256226918732  1.0000
  Zn  Zn5       1.0  0.9593408728666618  0.9131426365685157  0.5453529724398293  1.0000
  Zn  Zn6       1.0  0.9608925648703134  0.0860037775533087  0.5453488561499142  1.0000
  Zn  Zn7       1.0  0.9590849158942093  0.9136383322031493  0.3729255983798369  1.0000
  Zn  Zn8       1.0  0.13309544063724127  0.08282628156543842  0.5451664459716098  1.0000
  H   H1        1.0  0.27777909362333725  0.9530540729517939  0.6104758184715209  1.0000
  H   H2        1.0  0.7850930619743012  0.8786691209441528  0.19062159768937903  1.0000
  H   H3        1.0  0.22378130530428555  0.8329886119788483  0.677978025031706  1.0000
  H   H4        1.0  0.7760331547000732  0.042234586257301004  0.3490029193136976  1.0000
  H   H5        1.0  0.7266402397373851  0.0648876970694161  0.25671036950551945  1.0000
  H   H6        1.0  0.7926645014869679  0.5938361119065831  0.18890290639959778  1.0000
  H   H7        1.0  0.7072727555040785  0.40806959358595674  0.09518828859373234  1.0000
  H   H8        1.0  0.2223136431697483  0.04636012232614211  0.8901385975777956  1.0000
  H   H9        1.0  0.4042777522493495  0.12467176129271715  0.77961081191863  1.0000
  H   H10       1.0  0.8024868613221159  0.8966372436549862  0.7099785114127569  1.0000
  H   H11       1.0  0.7799352931494141  0.04366958308821721  0.6963395235974019  1.0000
  H   H12       1.0  0.7215394492684055  0.06883800984974903  0.8025661559174252  1.0000
  H   H13       1.0  0.6973072297178574  0.8863663516892332  0.7909009130717523  1.0000
  H   H14       1.0  0.8015657028611897  0.5817389835181502  0.34787960099229315  1.0000
  H   H15       1.0  0.6974560211870796  0.41717876541795124  0.26460954765920525  1.0000
  H   H16       1.0  0.09587327254330805  0.8748352741868005  0.7209979639135469  1.0000
  H   H17       1.0  0.2763166780911206  0.1664565889067191  0.8226399245753412  1.0000
  H   H18       1.0  0.1562522959836556  0.41586426575248936  0.7166852913587077  1.0000
  H   H19       1.0  0.4042324784506592  0.596897990476471  0.8000953548349372  1.0000
  H   H20       1.0  0.23022214545054712  0.5809093829839116  0.7808316425050563  1.0000
  H   H21       1.0  0.31381877613874554  0.10104837780011881  0.40442221789624  1.0000
  H   H22       1.0  0.1534887813990766  0.956650458694526  0.2357465816073871  1.0000
  H   H23       1.0  0.40571610981153583  0.11174709246112262  0.3104978122152602  1.0000
  H   H24       1.0  0.2351107830078263  0.9323293223773632  0.1520063597253199  1.0000
  C   C1        1.0  0.36273416865623903  0.9968986050978047  0.13549650437113317  1.0000
  C   C2        1.0  0.6981502768162356  0.0082234707608748  0.8114534053385895  1.0000
  C   C3        1.0  0.2818911470984061  0.4482709132727933  0.7233124316521895  1.0000
  C   C4        1.0  0.6385500405556074  0.0027336474928958006  0.863592483846439  1.0000
  C   C5        1.0  0.19361683893666984  0.38318399826029287  0.6958799365569064  1.0000
  C   C6        1.0  0.3329703889572785  0.5579489032281232  0.7776869880327765  1.0000
  C   C7        1.0  0.3004080150148738  0.6140898480847738  0.8013882130716963  1.0000
  C   C8        1.0  0.28034056615186387  0.0548632134162546  0.3335965789787565  1.0000
  C   C9        1.0  0.19182024853608232  0.002516506963516501  0.30505121805124696  1.0000
  C   C10       1.0  0.3347300488407683  0.0556390439054368  0.2779539203564241  1.0000
  C   C11       1.0  0.30475731273017465  0.9917167006880733  0.1893739204032344  1.0000
  C   C12       1.0  0.16462969419563947  0.9301682402376915  0.7344514933631673  1.0000
  C   C13       1.0  0.7654817799602115  0.9304170616942146  0.22353781614727816  1.0000
  C   C14       1.0  0.7955381768808607  0.9915128831243223  0.31200761682710976  1.0000
  C   C15       1.0  0.7080662938886917  0.927003337575492  0.16656405684545206  1.0000
  C   C16       1.0  0.6328910389726659  0.27453164605636  0.13567883886057067  1.0000
  C   C17       1.0  0.6932902001246433  0.9985779643285184  0.18889815022031797  1.0000
  C   C18       1.0  0.7774579383543239  0.5554333569558381  0.22162139366244568  1.0000
  C   C19       1.0  0.8123171566640225  0.6138840922090908  0.3101931038015025  1.0000
  C   C20       1.0  0.7222122183266604  0.44565627677960146  0.16617547744049688  1.0000
  C   C21       1.0  0.6871773148139297  0.3861058987445389  0.19504532358985216  1.0000
  C   C22       1.0  0.1406557784857796  0.2720041833979394  0.63963183777377  1.0000
  C   C23       1.0  0.23382708341412686  0.025614448183063104  0.8273394558803985  1.0000
  C   C24       1.0  0.8671119129939129  0.7255161035015191  0.3636534645909677  1.0000
  C   C25       1.0  0.8618175343013021  0.9963574010161622  0.6353568843198261  1.0000
  C   C26       1.0  0.1392466886844588  0.0021102142332623  0.36422690558049436  1.0000
  C   C27       1.0  0.8579730028700114  0.9945629725389865  0.3656559133502953  1.0000
  C   C28       1.0  0.35853760572450705  0.7261535887752258  0.8576488660983799  1.0000
  C   C29       1.0  0.13874541566974602  0.9962441726314355  0.6407624489967318  1.0000
  C   C30       1.0  0.6360216959995528  0.9969491177675281  0.13197240242880778  1.0000
  C   C31       1.0  0.36164598749634536  0.0034708843058624  0.8598599326956204  1.0000
  C   C32       1.0  0.23467749178374223  0.9069564953041722  0.7093597350047177  1.0000
  C   C33       1.0  0.26633320030538965  0.9738767378159923  0.6732992485154838  1.0000
  C   C34       1.0  0.26549017191589297  0.0925354154079443  0.791275652444682  1.0000
  C   C35       1.0  0.19505871463421443  0.9962071868084621  0.6979268105718575  1.0000
  C   C36       1.0  0.335539818647554  0.0693327243597253  0.7661760173431205  1.0000
  C   C37       1.0  0.3051504950834811  0.003339827330044899  0.8027169121625162  1.0000
  C   C38       1.0  0.7783873461273317  0.9436647361603295  0.7233347378834268  1.0000
  C   C39       1.0  0.8025108145611811  0.9965588112087007  0.6877494607801254  1.0000
  C   C40       1.0  0.7219441444638407  0.9432434643339037  0.7768590771664918  1.0000
  O   O1        1.0  0.497709043232618  0.00013550226893949913  0.9968316108286998  1.0000
  O   O2        1.0  0.055823693070237816  0.9446103015673017  0.32544879819947437  1.0000
  O   O3        1.0  0.8840294847658825  0.05948498452693941  0.44861849225731015  1.0000
  O   O4        1.0  0.3227932076850522  0.9370891174266518  0.05222780005041722  1.0000
  O   O5        1.0  0.1790068953056476  0.0559890854624356  0.6177058983621038  1.0000
  O   O6        1.0  0.880478066264068  0.934035031712668  0.32561958475056957  1.0000
  O   O7        1.0  0.05564302811785633  0.937347514771332  0.6196675652295411  1.0000
  O   O8        1.0  0.8850229966345612  0.9363118877716095  0.6159218156234801  1.0000
  O   O9        1.0  0.17948063049909282  0.0569587099087059  0.4468669914310581  1.0000
  O   O10       1.0  0.0573043031205884  0.2298056347866293  0.6181333437448727  1.0000
  O   O11       1.0  0.8878369778781803  0.7688533729345084  0.3238857713596702  1.0000
  O   O12       1.0  0.6134551561122165  0.2323550498445641  0.052764278513635125  1.0000
  O   O13       1.0  0.6186139170908617  0.0663017746520325  0.8874129359583377  1.0000
  O   O14       1.0  0.6101085127225191  0.22976439541730545  0.17432088648047994  1.0000
  O   O15       1.0  0.4413850691716022  0.7683966338380375  0.8800364089026544  1.0000
  O   O16       1.0  0.6201571074210079  0.0641410337297685  0.17286671734788678  1.0000
  O   O17       1.0  0.3214606785968144  0.9439463985640941  0.8831616625037739  1.0000
  O   O18       1.0  0.6080813610420249  0.9318282757032179  0.049057737904498  1.0000
  O   O19       1.0  0.44474689331087797  0.06223093173214521  0.8807524349371363  1.0000
  O   O20       1.0  0.31908297259453633  0.7702101537290035  0.8783408306042871  1.0000
  O   O21       1.0  0.44581318384647534  0.058890586871783106  0.1748658730308108  1.0000
  O   O22       1.0  0.6118873871677125  0.9365587093090256  0.8802780054147379  1.0000
  O   O23       1.0  0.003483322393329082  0.9990244327863851  0.5019796478435908  1.0000
  O   O24       1.0  0.17931955860766643  0.2272807837225486  0.6172576327793919  1.0000
  O   O25       1.0  0.888990735875453  0.7691190039370214  0.4469550610868822  1.0000
  O   O26       1.0  0.8849500439636273  0.058422389542577904  0.614096253946748  1.0000
  F   F1        1.0  0.33369209682231127  0.41422547802098825  0.7009105300627141  1.0000
  F   F2        1.0  0.669467331779977  0.8417462926099332  0.0835372038494597  1.0000
