data_image0
_chemical_formula_structural       Ag4H16C32N16O8F12
_chemical_formula_sum              "Ag4 H16 C32 N16 O8 F12"
_cell_length_a       7.363619540000034
_cell_length_b       11.251568868046375
_cell_length_c       12.528033627051894
_cell_angle_alpha    90.00032932188793
_cell_angle_beta     89.99999140918615
_cell_angle_gamma    90.00000715611468

_space_group_name_H-M_alt    "P 1"
_space_group_IT_number       1

loop_
  _space_group_symop_operation_xyz
  'x, y, z'

loop_
  _atom_site_type_symbol
  _atom_site_label
  _atom_site_symmetry_multiplicity
  _atom_site_fract_x
  _atom_site_fract_y
  _atom_site_fract_z
  _atom_site_occupancy
  Ag  Ag1       1.0  0.951909501887158  0.17950096505990848  0.7499992067477877  1.0000
  Ag  Ag2       1.0  0.5480891861651357  0.6795007302423883  0.24999866240531798  1.0000
  Ag  Ag3       1.0  0.048089168467811305  0.8204997136030274  0.25000144211881553  1.0000
  Ag  Ag4       1.0  0.4519094841898336  0.32049994842054735  0.7500019864612854  1.0000
  H   H1        1.0  0.8535870307834799  0.9798981242723387  0.5781003948113935  1.0000
  H   H2        1.0  0.6464089988965683  0.47989623198134274  0.4218998213821906  1.0000
  H   H3        1.0  0.1464144003552192  0.020103230477367603  0.07810009129885741  1.0000
  H   H4        1.0  0.3535882687023957  0.5201019930624399  0.9219001920262644  1.0000
  H   H5        1.0  0.14641028154369445  0.020102554390547304  0.42190025405526654  1.0000
  H   H6        1.0  0.35358967145831605  0.5201035579166488  0.5781008274821248  1.0000
  H   H7        1.0  0.8535937761946145  0.9798974481782851  0.9218981629377511  1.0000
  H   H8        1.0  0.6464104016524883  0.4798977968355588  0.0781004568380439  1.0000
  H   H9        1.0  0.2718499491785736  0.1856496835461385  0.5569258557719721  1.0000
  H   H10       1.0  0.2281473195567401  0.6856507004836558  0.44307767573914003  1.0000
  H   H11       1.0  0.7281501294419568  0.8143479804586136  0.056922413229365504  1.0000
  H   H12       1.0  0.7718499425325119  0.3143503265400724  0.9430745547759898  1.0000
  H   H13       1.0  0.7281473631486006  0.8143509951167471  0.4430747930946951  1.0000
  H   H14       1.0  0.7718513507982437  0.31434908941177764  0.5569221749153074  1.0000
  H   H15       1.0  0.2718539730237382  0.18564914314731604  0.9430790338376981  1.0000
  H   H16       1.0  0.2281473697946836  0.6856494633553114  0.05692529587851421  1.0000
  C   C1        1.0  0.7195916954373799  0.020265692527786403  0.568876208143493  1.0000
  C   C2        1.0  0.7804069620375601  0.5202657483609913  0.4311232346297658  1.0000
  C   C3        1.0  0.28040973810121983  0.9797347143563757  0.06887684982987001  1.0000
  C   C4        1.0  0.21959166118927698  0.4797343133158948  0.9311250051276759  1.0000
  C   C5        1.0  0.2804069749175823  0.9797349861351565  0.43112444072311024  1.0000
  C   C6        1.0  0.2195903502896286  0.4797340415343925  0.5688766160247454  1.0000
  C   C7        1.0  0.7195930063371279  0.020265964306730704  0.9311237990365628  1.0000
  C   C8        1.0  0.7804070091655217  0.5202645878171523  0.06887564373435141  1.0000
  C   C9        1.0  0.5831154339721608  0.970037026506972  0.5032809778089843  1.0000
  C   C10       1.0  0.9168833098700304  0.47003652435469706  0.4967191875446701  1.0000
  C   C11       1.0  0.41689009071765765  0.029962960075465596  0.0032807017765037  1.0000
  C   C12       1.0  0.08311529628881688  0.5299612913266715  0.9967196323837303  1.0000
  C   C13       1.0  0.41688323638271635  0.0299627633910191  0.4967196710553311  1.0000
  C   C14       1.0  0.08311400245715822  0.5299632655406799  0.5032806631098411  1.0000
  C   C15       1.0  0.58311944385958  0.9700368298229666  0.9967199470873426  1.0000
  C   C16       1.0  0.9168833740657903  0.4700367210439823  0.0032818146858631  1.0000
  C   C17       1.0  0.3980623314562309  0.13530026594848718  0.5570023486688244  1.0000
  C   C18       1.0  0.10194035972195788  0.6353003833751458  0.4430001250304586  1.0000
  C   C19       1.0  0.6019404632001084  0.8647000648447617  0.056999974842753404  1.0000
  C   C20       1.0  0.8980623344982348  0.36469886562792203  0.942998849186239  1.0000
  C   C21       1.0  0.6019349808708441  0.8647004127169499  0.44299909840770374  1.0000
  C   C22       1.0  0.8980610266888008  0.3647002952827875  0.5569989274163093  1.0000
  C   C23       1.0  0.3980622812383459  0.13530061381578656  0.9429998758138112  1.0000
  C   C24       1.0  0.10193633585645759  0.635300035507683  0.05700259788564212  1.0000
  C   C25       1.0  0.15322083789055796  0.9537965088670435  0.750008421243628  1.0000
  C   C26       1.0  0.34677784036389875  0.45379619765036955  0.24999090534840465  1.0000
  C   C27       1.0  0.8467764744348685  0.0462032810718114  0.2500049989785468  1.0000
  C   C28       1.0  0.6532208299922075  0.5462044809844429  0.7500009632097147  1.0000
  C   C29       1.0  0.2881639754253412  0.846768773198768  0.7499993591926783  1.0000
  C   C30       1.0  0.21183604030505165  0.3467693398415435  0.24999941557118185  1.0000
  C   C31       1.0  0.7118360529574588  0.15323012792921284  0.24999969324955634  1.0000
  C   C32       1.0  0.7881653461057991  0.6532322275813415  0.7499996368778739  1.0000
  N   N1        1.0  0.6938190465027531  0.11960934319711922  0.6226638369532226  1.0000
  N   N2        1.0  0.8061782720202049  0.6196063901961468  0.37733851265349466  1.0000
  N   N3        1.0  0.3061823730407979  0.8803922970874115  0.12266236778559404  1.0000
  N   N4        1.0  0.19381764914601965  0.3803906605478033  0.8773357821241563  1.0000
  N   N5        1.0  0.3061796238522163  0.8803913354658164  0.3773368119133806  1.0000
  N   N6        1.0  0.19382039833459433  0.38039251093690046  0.6226621362085255  1.0000
  N   N7        1.0  0.6938217294252739  0.11960660404329812  0.8773374828663307  1.0000
  N   N8        1.0  0.8061796631810836  0.6196082405826289  0.12266406852806003  1.0000
  N   N9        1.0  0.5306058404392289  0.17775854220136014  0.6168881473429267  1.0000
  N   N10       1.0  0.9693914892501639  0.6777583057594613  0.38311370387569366  1.0000
  N   N11       1.0  0.4693942225792184  0.822241283544699  0.11688636425979133  1.0000
  N   N12       1.0  0.030605788441341996  0.3222423370528418  0.8831122840426461  1.0000
  N   N13       1.0  0.4693928299157335  0.8222421364615754  0.3831125015236836  1.0000
  N   N14       1.0  0.0306085391327002  0.32224237290097346  0.616886146780992  1.0000
  N   N15       1.0  0.5306098798867538  0.17775761758856132  0.8831142846019946  1.0000
  N   N16       1.0  0.9693928819135421  0.6777574528451499  0.11688836482166923  1.0000
  O   O1        1.0  0.11057606467866068  0.9932582692421054  0.6594045215233707  1.0000
  O   O2        1.0  0.3894171890426819  0.4932603195558516  0.3405934121183877  1.0000
  O   O3        1.0  0.8894144810823407  0.006740051397486001  0.15940328673817564  1.0000
  O   O4        1.0  0.6105800997132178  0.5067444946266876  0.840589700630048  1.0000
  O   O5        1.0  0.8894171735659312  0.006744186935158301  0.3405913380888705  1.0000
  O   O6        1.0  0.6105869134244274  0.5067439141517482  0.6594024474979676  1.0000
  O   O7        1.0  0.11058962138414327  0.9932544058880314  0.8405901782233942  1.0000
  O   O8        1.0  0.38941721261431894  0.4932535177260107  0.15940615897056892  1.0000
  F   F1        1.0  0.4629788234682835  0.8905209010777357  0.7500010608553895  1.0000
  F   F2        1.0  0.03702255869146849  0.3905223422745722  0.24999793949474747  1.0000
  F   F3        1.0  0.537021204913998  0.1094780000630351  0.2500019826361637  1.0000
  F   F4        1.0  0.9629774696918005  0.609479225143133  0.7499995165346436  1.0000
  F   F5        1.0  0.2729106117757496  0.7753811141572557  0.6624730697523378  1.0000
  F   F6        1.0  0.22708939024650474  0.2753831316267963  0.33752613515343916  1.0000
  F   F7        1.0  0.7270867233256268  0.22461811491537284  0.16247377056448192  1.0000
  F   F8        1.0  0.7729106153621644  0.724618996623896  0.8375275240530871  1.0000
  F   F9        1.0  0.72709213266252  0.22461867574090633  0.3375275791118001  1.0000
  F   F10       1.0  0.7729106381367004  0.7246211020934226  0.6624737155124052  1.0000
  F   F11       1.0  0.27291194702917215  0.7753807862176744  0.8375268782975382  1.0000
  F   F12       1.0  0.22708941302052918  0.2753799045066502  0.16247232659901564  1.0000
