data_image0
_chemical_formula_structural       Cu2H10C8N6Cl4
_chemical_formula_sum              "Cu2 H10 C8 N6 Cl4"
_cell_length_a       4.08338272510512
_cell_length_b       7.022181606936559
_cell_length_c       12.165741018292358
_cell_angle_alpha    89.99793411380506
_cell_angle_beta     89.9963909567439
_cell_angle_gamma    102.35198242359066

_space_group_name_H-M_alt    "P 1"
_space_group_IT_number       1

loop_
  _space_group_symop_operation_xyz
  'x, y, z'

loop_
  _atom_site_type_symbol
  _atom_site_label
  _atom_site_symmetry_multiplicity
  _atom_site_fract_x
  _atom_site_fract_y
  _atom_site_fract_z
  _atom_site_occupancy
  Cu  Cu1       1.0  0.9999941803682334  2.2753849720074187e-06  0.5000011513745264  1.0000
  Cu  Cu2       1.0  0.9999893130785724  0.9999956271223241  4.992808370999998e-07  1.0000
  H   H1        1.0  0.3037079983634357  0.8521166908164944  0.6781756926936567  1.0000
  H   H2        1.0  0.6962628677173373  0.1478758704686953  0.1781746166232878  1.0000
  H   H3        1.0  0.6962591347198316  0.14788055827362712  0.3218181479293918  1.0000
  H   H4        1.0  0.3037277446311748  0.8521040452129968  0.821818402031475  1.0000
  H   H5        1.0  0.8604970116547508  0.36209419807563153  0.5733236800067515  1.0000
  H   H6        1.0  0.13951538938698602  0.6379132739628018  0.0733172490286478  1.0000
  H   H7        1.0  0.1394971994463958  0.6379031310677377  0.42667673617858526  1.0000
  H   H8        1.0  0.8604983444314913  0.36209518775297783  0.9266815228313375  1.0000
  H   H9        1.0  0.784823580731711  0.5373258743463295  0.7500032777394664  1.0000
  H   H10       1.0  0.21521006468364598  0.46268370106557205  0.24999713785948793  1.0000
  C   C1        1.0  0.08030053239194503  0.055733450017015705  0.7499978809897384  1.0000
  C   C2        1.0  0.919704234166801  0.9442673381787471  0.2500058229573696  1.0000
  C   C3        1.0  0.9097623027840173  0.3038973520870414  0.6530791344130903  1.0000
  C   C4        1.0  0.0902546990288826  0.6961033891102276  0.1530769445033258  1.0000
  C   C5        1.0  0.09024345302249508  0.6960963196462445  0.34692374764784256  1.0000
  C   C6        1.0  0.9097540564915292  0.30390479406369764  0.8469251153334837  1.0000
  C   C7        1.0  0.8632052045438672  0.39891921955148046  0.7500036773312644  1.0000
  C   C8        1.0  0.13681848516168318  0.6010897990385473  0.24999509441786216  1.0000
  N   N1        1.0  0.22247061023951897  0.9031424273847366  0.7499987808694397  1.0000
  N   N2        1.0  0.7775189231465163  0.0968560745415061  0.24999916940591044  1.0000
  N   N3        1.0  0.009232818318366804  0.13395131172067212  0.6522574278539608  1.0000
  N   N4        1.0  0.9907914370211021  0.8660599178549904  0.152267841828106  1.0000
  N   N5        1.0  0.9907629816897058  0.8660418031645493  0.3477446323374949  1.0000
  N   N6        1.0  0.009206762687185207  0.13394480616179294  0.8477342181683128  1.0000
  Cl  Cl1       1.0  0.6213434327586144  0.7436566835531624  0.5609801593792695  1.0000
  Cl  Cl2       1.0  0.3785706613683005  0.256327280721827  0.06096848143283749  1.0000
  Cl  Cl3       1.0  0.3786569559589169  0.2563467285407341  0.4390219006138167  1.0000
  Cl  Cl4       1.0  0.6214210607610726  0.7436699092029785  0.9390319347802176  1.0000
