data_image0
_chemical_formula_structural       Ag4H32C44N12O16
_chemical_formula_sum              "Ag4 H32 C44 N12 O16"
_cell_length_a       7.726801675778854
_cell_length_b       11.701937856
_cell_length_c       12.5082
_cell_angle_alpha    90.0
_cell_angle_beta     93.29772851978707
_cell_angle_gamma    90.0

_space_group_name_H-M_alt    "P 1"
_space_group_IT_number       1

loop_
  _space_group_symop_operation_xyz
  'x, y, z'

loop_
  _atom_site_type_symbol
  _atom_site_label
  _atom_site_symmetry_multiplicity
  _atom_site_fract_x
  _atom_site_fract_y
  _atom_site_fract_z
  _atom_site_occupancy
  Ag  Ag1       1.0  0.0027780633877441  0.7984156226918843  0.3214830905817437  1.0000
  Ag  Ag2       1.0  0.4972201963363858  0.7984147681325737  0.17851604810185506  1.0000
  Ag  Ag3       1.0  0.9972236414331448  0.2015837059663141  0.6785161705236717  1.0000
  Ag  Ag4       1.0  0.5027789157981886  0.20158541508494923  0.8214839203477665  1.0000
  H   H1        1.0  0.2120687772285379  0.3068038853205124  0.4074263547195045  1.0000
  H   H2        1.0  0.287929482495592  0.30680217620188444  0.09257278396409419  1.0000
  H   H3        1.0  0.787932927592351  0.6931954433376859  0.5925729063859109  1.0000
  H   H4        1.0  0.7120696296389826  0.693197152456321  0.9074271844855347  1.0000
  H   H5        1.0  0.4348997953553636  0.4618329089167902  0.4074994212628127  1.0000
  H   H6        1.0  0.0650984643687593  0.4618320543574725  0.0925021158474166  1.0000
  H   H7        1.0  0.5651019094655183  0.5381664197414082  0.5925006393181462  1.0000
  H   H8        1.0  0.9348993514226507  0.5381672743007259  0.9074970070609965  1.0000
  H   H9        1.0  0.3369727368516636  0.663672982677646  0.3738489664440792  1.0000
  H   H10       1.0  0.16302681921562376  0.663671273559018  0.1261518172562788  1.0000
  H   H11       1.0  0.6630289679692256  0.3363263459805523  0.6261502946613362  1.0000
  H   H12       1.0  0.8369722929189509  0.33632805509918745  0.8738473517177995  1.0000
  H   H13       1.0  0.8210480135652247  0.5660523993129658  0.339950546127298  1.0000
  H   H14       1.0  0.6789519509797872  0.5660515447536483  0.1600494526128031  1.0000
  H   H15       1.0  0.17895498759882145  0.4339460747859221  0.6600495605193331  1.0000
  H   H16       1.0  0.3210471611547803  0.43394949302318514  0.8399505158368186  1.0000
  H   H17       1.0  0.0983742968932404  0.021309291082261  0.20034900365224928  1.0000
  H   H18       1.0  0.40162785186036143  0.021308436522943505  0.2996486742772646  1.0000
  H   H19       1.0  0.9016261115844915  0.9786917466945724  0.7996494119119504  1.0000
  H   H20       1.0  0.598371260274206  0.9786917466945724  0.7003512941723571  1.0000
  H   H21       1.0  0.062434479178925514  0.2310078923051151  0.219523262923957  1.0000
  H   H22       1.0  0.4375650768883547  0.2310070377457976  0.2804743228742197  1.0000
  H   H23       1.0  0.9375672256419565  0.7689931454717183  0.7804775971325455  1.0000
  H   H24       1.0  0.5624327389030556  0.7689940000310287  0.7195263989852734  1.0000
  H   H25       1.0  0.735700669067427  0.1617954242535333  0.4826133443170946  1.0000
  H   H26       1.0  0.764297999134435  0.1617954242535333  0.0173842099307038  1.0000
  H   H27       1.0  0.26429973941030493  0.8382030498453545  0.5173858707226557  1.0000
  H   H28       1.0  0.23569981665698245  0.8382056135233001  0.9826165119287893  1.0000
  H   H29       1.0  0.8034929345186512  0.957203852715452  0.46157852764864776  1.0000
  H   H30       1.0  0.6965057336832032  0.9572029981561345  0.0384182271236071  1.0000
  H   H31       1.0  0.1965087703022306  0.0427954759427465  0.5384199339812241  1.0000
  H   H32       1.0  0.3034907857650495  0.0427988941800095  0.9615816491946774  1.0000
  C   C1        1.0  0.9991163024439232  0.4244801212521524  0.368056731912688  1.0000
  C   C2        1.0  0.5008849584442459  0.4244818303707802  0.1319417139419983  1.0000
  C   C3        1.0  0.0008879950632803002  0.5755183528467356  0.6319426213240718  1.0000
  C   C4        1.0  0.4991128573471642  0.5755192074060531  0.8680582084419584  1.0000
  C   C5        1.0  0.17357905252230676  0.3948593862708664  0.3894223323312005  1.0000
  C   C6        1.0  0.32642309623129523  0.39485853171155594  0.11057694454940761  1.0000
  C   C7        1.0  0.826425244984897  0.6051399423873322  0.6105770209055592  1.0000
  C   C8        1.0  0.6735760159032724  0.6051425060652775  0.8894230239002141  1.0000
  C   C9        1.0  0.2977959502716558  0.481128858252589  0.39203597192055645  1.0000
  C   C10       1.0  0.2022049021387886  0.4811262945746436  0.10796485784546661  1.0000
  C   C11       1.0  0.7022083472355476  0.5188721795242444  0.6079641807917398  1.0000
  C   C12       1.0  0.7977942099957789  0.51887474320219  0.8920343111286115  1.0000
  C   C13       1.0  0.24469643817398185  0.5933136960251488  0.3737510331494178  1.0000
  C   C14       1.0  0.2553018215501481  0.5933128414658385  0.126249704485268  1.0000
  C   C15       1.0  0.7553052666469071  0.406684778073732  0.6262482279559975  1.0000
  C   C16       1.0  0.7446959942412692  0.40668734175167753  0.873749418423145  1.0000
  C   C17       1.0  0.9559312228191672  0.5398174283382532  0.35279195327214546  1.0000
  C   C18       1.0  0.5440674453826873  0.5398148646603076  0.14720719992674697  1.0000
  C   C19       1.0  0.0440704820017217  0.46018104576063484  0.6472073078332699  1.0000
  C   C20       1.0  0.4559316667518801  0.4601861731165187  0.8527927685228818  1.0000
  C   C21       1.0  0.0269081949320409  0.05645560659521461  0.2653339532853138  1.0000
  C   C22       1.0  0.4730913611352463  0.05645560659521461  0.2346660309394935  1.0000
  C   C23       1.0  0.9730948062320055  0.9435445766223014  0.73466455441023  1.0000
  C   C24       1.0  0.5269051583130135  0.9435462857409294  0.7653362438054216  1.0000
  C   C25       1.0  0.0053668606744068014  0.1739352938843695  0.2764726709064931  1.0000
  C   C26       1.0  0.4946326953928805  0.17393614844368704  0.2235265138427778  1.0000
  C   C27       1.0  0.9946348441464823  0.8260657438924641  0.72352898862556  1.0000
  C   C28       1.0  0.5053638240553724  0.8260657438924641  0.7764749614265938  1.0000
  C   C29       1.0  0.9009507167991375  0.2147199917585993  0.3559028936699846  1.0000
  C   C30       1.0  0.5990531367753535  0.2147208463179169  0.1440964437915824  1.0000
  C   C31       1.0  0.0990509880217516  0.7852784823402814  0.6440971669109814  1.0000
  C   C32       1.0  0.4009459753592212  0.7852784823402814  0.8559043241335829  1.0000
  C   C33       1.0  0.8232634640223682  0.1356766733456851  0.4218260136941084  1.0000
  C   C34       1.0  0.6767352041794865  0.1356783824643131  0.0781731395047842  1.0000
  C   C35       1.0  0.176738240798521  0.8643226553125205  0.5781740468868506  1.0000
  C   C36       1.0  0.3232626116119236  0.8643226553125205  0.9218275823547161  1.0000
  C   C37       1.0  0.8579795337954579  0.0202522012094306  0.4089537058234924  1.0000
  C   C38       1.0  0.6420191344063966  0.0202513466501202  0.09104464789985658  1.0000
  C   C39       1.0  0.142022171025431  0.9797462728894502  0.5910455552819229  1.0000
  C   C40       1.0  0.3579786813850135  0.9797496911267132  0.9089560739596437  1.0000
  C   C41       1.0  0.8575854454754082  0.33874218516444904  0.3673893588849637  1.0000
  C   C42       1.0  0.6423976666085522  0.338740476045814  0.1326108404769784  1.0000
  C   C43       1.0  0.1424149630023237  0.661257998053074  0.6326114551058737  1.0000
  C   C44       1.0  0.3576066308986512  0.6612614162903299  0.8673901117108613  1.0000
  N   N1        1.0  0.0760953433786611  0.6227695010586132  0.3551312625497616  1.0000
  N   N2        1.0  0.42390550903178353  0.6227686464992956  0.1448695672162614  1.0000
  N   N3        1.0  0.9239076577853853  0.37722982759959234  0.6448688440968695  1.0000
  N   N4        1.0  0.5760936031027912  0.3772323912775377  0.8551296017578167  1.0000
  N   N5        1.0  0.9227915063262844  0.8013535976173287  0.06850005346348101  1.0000
  N   N6        1.0  0.5772097545618848  0.8013535976173287  0.43149999134229233  1.0000
  N   N7        1.0  0.07721019849459763  0.1986457310408767  0.9315016060685721  1.0000
  N   N8        1.0  0.4227906539158397  0.1986457310408767  0.568499223697458  1.0000
  N   N9        1.0  0.9577072129457207  0.9804863212563647  0.3318816218168976  1.0000
  N   N10       1.0  0.542292751599291  0.9804846121377296  0.1681167779721164  1.0000
  N   N11       1.0  0.042293195532003815  0.0195138619611583  0.6681167937473093  1.0000
  N   N12       1.0  0.45770376784896183  0.0195155710797863  0.8318838978217115  1.0000
  O   O1        1.0  0.875920923103138  0.8296284016772688  0.9738690884300637  1.0000
  O   O2        1.0  0.6240790414418811  0.8296284016772688  0.526131709785588  1.0000
  O   O3        1.0  0.12408078171775123  0.170371781540247  0.0261325711019893  1.0000
  O   O4        1.0  0.3759200706926933  0.17037092698093662  0.47386825866403365  1.0000
  O   O5        1.0  0.0646590040381767  0.8395669265123119  0.1122447381809408  1.0000
  O   O6        1.0  0.4353405520291106  0.8395669265123119  0.3877552460438665  1.0000
  O   O7        1.0  0.9353414044395552  0.1604324021458865  0.8877576747609838  1.0000
  O   O8        1.0  0.5646598564486212  0.1604324021458865  0.6122447684714274  1.0000
  O   O9        1.0  0.8297309200379743  0.7349645935429551  0.12206383007455199  1.0000
  O   O10       1.0  0.6702677481638801  0.7349645935429551  0.3779361225998841  1.0000
  O   O11       1.0  0.1702681920966  0.2650338805559258  0.8779369378506203  1.0000
  O   O12       1.0  0.3297326603138445  0.2650338805559258  0.6220630924398662  1.0000
  O   O13       1.0  0.7052703097749105  0.367152864155493  0.3773475437943715  1.0000
  O   O14       1.0  0.7947426182016883  0.3671562823927559  0.12264811874916148  1.0000
  O   O15       1.0  0.2947326913891359  0.6328464645027055  0.6226517633767159  1.0000
  O   O16       1.0  0.2052526049034071  0.6328439008247599  0.8773541099300814  1.0000
