data_image0
_chemical_formula_structural       Cu6P12H162C210N6Cl6
_chemical_formula_sum              "Cu6 P12 H162 C210 N6 Cl6"
_cell_length_a       18.38514966555754
_cell_length_b       18.385157740902713
_cell_length_c       21.19221278030261
_cell_angle_alpha    89.98773295872017
_cell_angle_beta     90.01227496649838
_cell_angle_gamma    120.01625375475324

_space_group_name_H-M_alt    "P 1"
_space_group_IT_number       1

loop_
  _space_group_symop_operation_xyz
  'x, y, z'

loop_
  _atom_site_type_symbol
  _atom_site_label
  _atom_site_symmetry_multiplicity
  _atom_site_fract_x
  _atom_site_fract_y
  _atom_site_fract_z
  _atom_site_occupancy
  Cu  Cu1       1.0  0.4931860037993089  0.15950540555964218  0.3428923085222877  1.0000
  Cu  Cu2       1.0  0.8407503180202127  0.3338000758953332  0.0095420820098795  1.0000
  Cu  Cu3       1.0  0.6662850965876004  0.5068354853170548  0.6761669776869397  1.0000
  Cu  Cu4       1.0  0.15950663976172297  0.49318561456988863  0.6571085510420218  1.0000
  Cu  Cu5       1.0  0.33379847523053735  0.8407494532601377  0.9904578649401472  1.0000
  Cu  Cu6       1.0  0.5068369651893578  0.6662866848503628  0.3238324973641582  1.0000
  P   P1        1.0  0.6176636768146009  0.263685755849096  0.3086179292377977  1.0000
  P   P2        1.0  0.7365551197319462  0.3539852259696519  0.9752579173908201  1.0000
  P   P3        1.0  0.6459894411828841  0.3823755864388759  0.641955107873656  1.0000
  P   P4        1.0  0.26368647602903655  0.6176627065861171  0.6913829440680104  1.0000
  P   P5        1.0  0.35398468592777027  0.7365540842600993  0.024741552755649803  1.0000
  P   P6        1.0  0.38237560277192245  0.6459902361621629  0.3580453021627079  1.0000
  P   P7        1.0  0.8584246177647045  0.3302091009356758  0.11386114835371329  1.0000
  P   P8        1.0  0.6699789704444186  0.5280493537906426  0.7804715916934342  1.0000
  P   P9        1.0  0.4718289010755258  0.1417082758235893  0.44717934136151166  1.0000
  P   P10       1.0  0.3302088785316571  0.8584244990521842  0.8861392713724713  1.0000
  P   P11       1.0  0.528048652160237  0.6699783699870213  0.2195274129829414  1.0000
  P   P12       1.0  0.14170854719935722  0.47182944459630954  0.552821043803462  1.0000
  H   H1        1.0  0.33847165744668206  0.9791831853955844  0.0633818041790661  1.0000
  H   H2        1.0  0.020914735832441564  0.3592309306918723  0.7298268053222756  1.0000
  H   H3        1.0  0.6407168080938204  0.6614622912505796  0.3965702014018433  1.0000
  H   H4        1.0  0.9791833571132359  0.3384700114225796  0.9366162641183848  1.0000
  H   H5        1.0  0.3592328186591871  0.020916336220246107  0.2701740377465285  1.0000
  H   H6        1.0  0.6614612774697336  0.6407146087259153  0.6034302252644963  1.0000
  H   H7        1.0  0.4433265765740798  0.1054021337238923  0.12416140945000362  1.0000
  H   H8        1.0  0.8948230793523282  0.33781358792027344  0.7907662417169163  1.0000
  H   H9        1.0  0.6618985641719064  0.5566828434040832  0.4575608923656631  1.0000
  H   H10       1.0  0.10540127122870764  0.4433272618491274  0.8758351967319982  1.0000
  H   H11       1.0  0.33781316751932877  0.8948240059291167  0.2092332367942333  1.0000
  H   H12       1.0  0.5566817523012586  0.6618963120466647  0.5424390574053035  1.0000
  H   H13       1.0  0.633576160706049  0.048241617838584806  0.062524933538171  1.0000
  H   H14       1.0  0.9519134451983859  0.585254472131638  0.7290999959045479  1.0000
  H   H15       1.0  0.4143598134975833  0.3664325904848555  0.3959079173441467  1.0000
  H   H16       1.0  0.04824021614889061  0.6335750112392661  0.937474983858671  1.0000
  H   H17       1.0  0.5852538975899645  0.9519103603737165  0.270899501257432  1.0000
  H   H18       1.0  0.3664317842493433  0.41435734646407973  0.6040920061755557  1.0000
  H   H19       1.0  0.5218463633478619  0.9281336948069949  0.0022735627983081  1.0000
  H   H20       1.0  0.07204755839988045  0.5937834418544341  0.6688548532115277  1.0000
  H   H21       1.0  0.4060690986334592  0.4781538274592024  0.33558878031510625  1.0000
  H   H22       1.0  0.9281332487623504  0.5218440604908783  0.9977264009371821  1.0000
  H   H23       1.0  0.5937851697659012  0.07204514699132875  0.3311460073755228  1.0000
  H   H24       1.0  0.4781524706809534  0.40606730678096176  0.6644111493038309  1.0000
  H   H25       1.0  0.5249538147320436  0.14563360046479812  0.21092825767902917  1.0000
  H   H26       1.0  0.8545314903944287  0.37920740172394574  0.8775815909610145  1.0000
  H   H27       1.0  0.6204367424177732  0.4750542927241528  0.5443818843878461  1.0000
  H   H28       1.0  0.14563381215567275  0.5249555380324085  0.789071187055022  1.0000
  H   H29       1.0  0.3792059993647784  0.8545301787483555  0.12241741586140618  1.0000
  H   H30       1.0  0.47505486831882154  0.6204349368691527  0.45561900184536347  1.0000
  H   H31       1.0  0.7802176466804552  0.34466309070641926  0.2360950914573081  1.0000
  H   H32       1.0  0.6555732099443716  0.43543058413103375  0.9026822267971114  1.0000
  H   H33       1.0  0.5644236321859495  0.21988132163338775  0.5694232297342694  1.0000
  H   H34       1.0  0.3446648263676196  0.7802188766968073  0.763905324495937  1.0000
  H   H35       1.0  0.4354292690031798  0.6555720272609237  0.0973172433188907  1.0000
  H   H36       1.0  0.21988291048857883  0.5644260709422825  0.4305785812494135  1.0000
  H   H37       1.0  0.7125467466921904  0.18948753343813968  0.0701021345739363  1.0000
  H   H38       1.0  0.8107952838819229  0.5230401445870357  0.7367148062755291  1.0000
  H   H39       1.0  0.4766959519225721  0.2875236400445688  0.4034973935793218  1.0000
  H   H40       1.0  0.18948579202982788  0.7125470773430466  0.9298959083964959  1.0000
  H   H41       1.0  0.5230394057169434  0.8107946064828087  0.2632837346909156  1.0000
  H   H42       1.0  0.2875238563089795  0.47669451208764013  0.5965034726873739  1.0000
  H   H43       1.0  0.4990535210351723  0.31377589908480286  0.2752060406070527  1.0000
  H   H44       1.0  0.6864348254369119  0.18522305187291743  0.9418538173052866  1.0000
  H   H45       1.0  0.814715090139174  0.5009544733339414  0.6083865890986999  1.0000
  H   H46       1.0  0.31377917886137413  0.4990545024631176  0.7247948286393678  1.0000
  H   H47       1.0  0.18522234893913506  0.6864349473621375  0.0581446958276786  1.0000
  H   H48       1.0  0.5009534269589367  0.8147147382552692  0.3916138382035683  1.0000
  H   H49       1.0  0.5115952121193884  0.4514650703773029  0.2473945959796069  1.0000
  H   H50       1.0  0.5487571748184266  0.060071930468474616  0.9139287103111541  1.0000
  H   H51       1.0  0.939874540478158  0.4884266505164239  0.5807019328569041  1.0000
  H   H52       1.0  0.45146920553654024  0.5115976331681511  0.7526048666225761  1.0000
  H   H53       1.0  0.06007174315702463  0.5487578891188181  0.0860712026411434  1.0000
  H   H54       1.0  0.48842728067478436  0.9398745761159831  0.4192985013307577  1.0000
  H   H55       1.0  0.6492064676018503  0.5830904113590099  0.2569137504096233  1.0000
  H   H56       1.0  0.41710842815173527  0.06598721557532644  0.9234807735636535  1.0000
  H   H57       1.0  0.9339353595625184  0.3508801107558316  0.590463478819153  1.0000
  H   H58       1.0  0.583093723632352  0.6492086151449358  0.7430843127000485  1.0000
  H   H59       1.0  0.06598512267609626  0.4171079015484053  0.0765200755170383  1.0000
  H   H60       1.0  0.350880576575655  0.9339365289105929  0.40953694662898943  1.0000
  H   H61       1.0  0.7761601180964275  0.5773186981822891  0.29020905268001224  1.0000
  H   H62       1.0  0.42296260164285115  0.19876801478874037  0.9567241379206024  1.0000
  H   H63       1.0  0.8010875078883615  0.22390562774644007  0.6236774850871001  1.0000
  H   H64       1.0  0.5773182183723191  0.7761615781109656  0.7097890174206896  1.0000
  H   H65       1.0  0.19876622262415108  0.4229629633313436  0.0432757756903968  1.0000
  H   H66       1.0  0.22390573872320366  0.8010890266643501  0.3763219809454553  1.0000
  H   H67       1.0  0.7652636435422764  0.4406001064123901  0.3151421441812161  1.0000
  H   H68       1.0  0.5596753283133324  0.32461203353024387  0.9815960827939918  1.0000
  H   H69       1.0  0.6752428869704376  0.23477158597655315  0.648392273026765  1.0000
  H   H70       1.0  0.44059885584081143  0.7652624915378614  0.6848587484518234  1.0000
  H   H71       1.0  0.32461066897204194  0.5596741568273559  0.018402903027642  1.0000
  H   H72       1.0  0.23477119225889695  0.6752439345755263  0.3516081298388585  1.0000
  H   H73       1.0  0.6881023940154448  0.3620997369432005  0.42326688679500524  1.0000
  H   H74       1.0  0.6378640963475563  0.3260221407060302  0.08961989891147938  1.0000
  H   H75       1.0  0.6740733442535782  0.3119504478321887  0.7565185924425747  1.0000
  H   H76       1.0  0.36210062178234637  0.6881034234051812  0.5767316371261941  1.0000
  H   H77       1.0  0.32602401440797013  0.6378642555423044  0.9103805074831114  1.0000
  H   H78       1.0  0.31195094054481853  0.6740746279369035  0.24348228692071666  1.0000
  H   H79       1.0  0.7943512348329305  0.37223103187316314  0.4993570596183332  1.0000
  H   H80       1.0  0.6276258780894397  0.42206583931352565  0.16567996142498487  1.0000
  H   H81       1.0  0.5780061144105488  0.20575157839083869  0.8326767467385565  1.0000
  H   H82       1.0  0.3722307074396766  0.7943522767253912  0.5006424149231989  1.0000
  H   H83       1.0  0.422066902143328  0.6276258292108566  0.8343209219393444  1.0000
  H   H84       1.0  0.20575179486040449  0.5780065530874979  0.1673241205275176  1.0000
  H   H85       1.0  0.8722547120839508  0.29608055088462515  0.48010626175071275  1.0000
  H   H86       1.0  0.7039480951150026  0.576203501127097  0.1465095751083609  1.0000
  H   H87       1.0  0.42390325029579407  0.12779498059608588  0.8134800766440478  1.0000
  H   H88       1.0  0.2960815643641082  0.8722564630547184  0.5198951004403227  1.0000
  H   H89       1.0  0.5762044048581602  0.7039471917006924  0.8534908502925873  1.0000
  H   H90       1.0  0.12779457161198593  0.4239043874347389  0.1865212484309637  1.0000
  H   H91       1.0  0.8437266034811728  0.20994670028062531  0.38271875391071575  1.0000
  H   H92       1.0  0.7903228975772051  0.6339281650970747  0.0492123463764358  1.0000
  H   H93       1.0  0.36614578246376783  0.15617256414802233  0.7161108463236019  1.0000
  H   H94       1.0  0.20994699706751876  0.8437257872381992  0.6172830734357575  1.0000
  H   H95       1.0  0.6339299508921384  0.7903222060080282  0.9507880877426942  1.0000
  H   H96       1.0  0.15617337618077448  0.36614689336062173  0.2838895333594848  1.0000
  H   H97       1.0  0.7369521121546185  0.19907885800125805  0.3059344777263533  1.0000
  H   H98       1.0  0.8013537202087732  0.5380898106166045  0.9725128290513895  1.0000
  H   H99       1.0  0.46197735754883235  0.2629705138045608  0.6392863320867261  1.0000
  H   H100      1.0  0.1990787317022651  0.7369496514982999  0.6940659270523852  1.0000
  H   H101      1.0  0.5380905320502903  0.8013526170519968  0.0274880717842336  1.0000
  H   H102      1.0  0.2629702005383693  0.46197853973618674  0.3607145315285151  1.0000
  H   H103      1.0  0.8594096501680539  0.2501104334864552  0.23639339517574603  1.0000
  H   H104      1.0  0.7499193573688673  0.6092154829925113  0.9031439024418546  1.0000
  H   H105      1.0  0.39079301377151415  0.1405859491282302  0.5697551581684479  1.0000
  H   H106      1.0  0.25010943224724974  0.8594112881445356  0.7636051320770676  1.0000
  H   H107      1.0  0.6092158740304328  0.7499198024668915  0.09685464004505917  1.0000
  H   H108      1.0  0.1405863701094106  0.3907956150703599  0.430244750012875  1.0000
  H   H109      1.0  0.9397696985143681  0.18263031435048305  0.2727449927197867  1.0000
  H   H110      1.0  0.8171734471321132  0.7571138665275402  0.9394049355610578  1.0000
  H   H111      1.0  0.24292169122328033  0.06008975114278317  0.6060844152092955  1.0000
  H   H112      1.0  0.18262924442517892  0.9397712637211696  0.7272554227928794  1.0000
  H   H113      1.0  0.7571147789750938  0.8171756063274105  0.0605955072250595  1.0000
  H   H114      1.0  0.06009079053954034  0.24292372173197668  0.3939159512359822  1.0000
  H   H115      1.0  0.03727699694013611  0.16777354524076324  0.19903837048438083  1.0000
  H   H116      1.0  0.8319257558674309  0.8693592799138233  0.8655942533362548  1.0000
  H   H117      1.0  0.1305309177847604  0.9626115628516986  0.5323561225475757  1.0000
  H   H118      1.0  0.16777165454260512  0.03727801000083995  0.8009624617702684  1.0000
  H   H119      1.0  0.8693594074415147  0.8319277210313349  0.13440572515220586  1.0000
  H   H120      1.0  0.9626152056398141  0.13053343621412958  0.467644291556688  1.0000
  H   H121      1.0  0.05051891340001187  0.217086555466274  0.08790174930088308  1.0000
  H   H122      1.0  0.7826891201428198  0.8331853581568615  0.754455988120128  1.0000
  H   H123      1.0  0.16656241925849  0.949424758117985  0.42120759718832795  1.0000
  H   H124      1.0  0.21708627749197262  0.050518380811411155  0.9120990870045276  1.0000
  H   H125      1.0  0.8331852665598729  0.7826902631901406  0.2455439852937147  1.0000
  H   H126      1.0  0.9494276262678413  0.1665635282706863  0.5787932902184991  1.0000
  H   H127      1.0  0.9668359312991656  0.28138337741925334  0.050774734103278304  1.0000
  H   H128      1.0  0.718606233058679  0.685141783788879  0.7174199780978867  1.0000
  H   H129      1.0  0.3146071552252891  0.03321231844360292  0.3841176861964327  1.0000
  H   H130      1.0  0.2813827906327189  0.9668360589161439  0.9492247454025957  1.0000
  H   H131      1.0  0.6851408560035921  0.7186059741205216  0.2825795107546867  1.0000
  H   H132      1.0  0.03321398445240217  0.31460854320116033  0.61588268305821  1.0000
  H   H133      1.0  0.9874133630332763  0.40005137762858595  0.2195927440953795  1.0000
  H   H134      1.0  0.6001489358134364  0.5871430502458781  0.88608521792964  1.0000
  H   H135      1.0  0.41268930648381286  0.012681422440806542  0.5528633195621779  1.0000
  H   H136      1.0  0.40005245964092523  0.9874151185840251  0.7804072156502002  1.0000
  H   H137      1.0  0.5871421568555706  0.6001475186533799  0.11391425803123671  1.0000
  H   H138      1.0  0.012679902545578232  0.412689370025909  0.4471361104351245  1.0000
  H   H139      1.0  0.05041451051263827  0.5350362031798497  0.2765618348351992  1.0000
  H   H140      1.0  0.4651448520139355  0.515272889291268  0.9429785549579748  1.0000
  H   H141      1.0  0.48462301818611336  0.9495970475134645  0.6097657956990545  1.0000
  H   H142      1.0  0.5350370233716788  0.05041309911435844  0.7234380770035286  1.0000
  H   H143      1.0  0.5152722143632432  0.46514434184457826  0.05702138038370211  1.0000
  H   H144      1.0  0.9495951882535818  0.4846230747900294  0.3902341667396385  1.0000
  H   H145      1.0  0.008423943257994856  0.6411931398218158  0.2501256457645624  1.0000
  H   H146      1.0  0.3588370450042079  0.367159709342083  0.9165425263977554  1.0000
  H   H147      1.0  0.6327115198246884  0.9914519537057488  0.5832404419673338  1.0000
  H   H148      1.0  0.6411934947617014  0.008422047579529286  0.7498756855446658  1.0000
  H   H149      1.0  0.3671585229832814  0.3588348417523763  0.0834583375135338  1.0000
  H   H150      1.0  0.9914514818511577  0.6327122803420057  0.41675858820171635  1.0000
  H   H151      1.0  0.9032442762270065  0.610612030318109  0.16453291514562807  1.0000
  H   H152      1.0  0.38924955920622034  0.29250392904992856  0.8309557398857024  1.0000
  H   H153      1.0  0.7072946575918378  0.09654508951797434  0.497607396649201  1.0000
  H   H154      1.0  0.6106105491280899  0.9032434309325341  0.8354708271670931  1.0000
  H   H155      1.0  0.2925032476948671  0.38924787399516003  0.1690446494953051  1.0000
  H   H156      1.0  0.09654502738168713  0.7072941839262584  0.5023925281390689  1.0000
  H   H157      1.0  0.8418125983074775  0.47633451528844994  0.10641832033451239  1.0000
  H   H158      1.0  0.523618404517606  0.365195393044033  0.7729307199567473  1.0000
  H   H159      1.0  0.6345636566192352  0.15820458858224395  0.4396264603499773  1.0000
  H   H160      1.0  0.4763335887879591  0.8418155052332212  0.8935844661825881  1.0000
  H   H161      1.0  0.3651944101144977  0.5236169851689854  0.22706920993810797  1.0000
  H   H162      1.0  0.15820342098763263  0.6345633368361734  0.5603729917848808  1.0000
  C   C1        1.0  0.4051597624472549  0.9984670957893801  0.0640161546732685  1.0000
  C   C2        1.0  0.0016581219187515295  0.4066399677880882  0.7305345604972685  1.0000
  C   C3        1.0  0.5932017019094078  0.5947952897551051  0.39729629810801004  1.0000
  C   C4        1.0  0.9984660871519182  0.4051581668280805  0.9359823905456466  1.0000
  C   C5        1.0  0.4066426009806108  0.0016579473234444612  0.2694658126250502  1.0000
  C   C6        1.0  0.5947958827590512  0.5932011430044926  0.6027027060821339  1.0000
  C   C7        1.0  0.46347983231588324  0.06721688001173493  0.09839981109347919  1.0000
  C   C8        1.0  0.9329637846958649  0.39618421602501325  0.7649798957053378  1.0000
  C   C9        1.0  0.6035445005176925  0.536517299477815  0.43178750239379576  1.0000
  C   C10       1.0  0.06721793962490348  0.4634818167374632  0.9015982096776013  1.0000
  C   C11       1.0  0.3961853088941323  0.9329643120876412  0.23502053252359187  1.0000
  C   C12       1.0  0.5365167617650145  0.6035428248595098  0.5682119707869971  1.0000
  C   C13       1.0  0.5477288625376175  0.08709158335125995  0.0993004569934968  1.0000
  C   C14       1.0  0.9131030759796416  0.4605602119009974  0.7659021377431756  1.0000
  C   C15       1.0  0.5390890342182217  0.45227498797880383  0.4327373240574559  1.0000
  C   C16       1.0  0.08708953340674709  0.5477251948635599  0.9006975702679226  1.0000
  C   C17       1.0  0.4605608878981826  0.9131019177515612  0.23409640579166083  1.0000
  C   C18       1.0  0.45227550774701786  0.5390884595963642  0.5672621401872034  1.0000
  C   C19       1.0  0.569132494067894  0.03603938596619133  0.0638295260257493  1.0000
  C   C20       1.0  0.9641286168153654  0.5330330979877476  0.7304073964361136  1.0000
  C   C21       1.0  0.4666452601788151  0.430887381705297  0.3972181221734488  1.0000
  C   C22       1.0  0.0360371376965105  0.5691311485596274  0.9361699148351762  1.0000
  C   C23       1.0  0.5330320911094119  0.964126995402225  0.2695920981468163  1.0000
  C   C24       1.0  0.4308856556499165  0.4666437232383276  0.6027813363156085  1.0000
  C   C25       1.0  0.5070882909526445  0.968797269905146  0.030357039613676293  1.0000
  C   C26       1.0  0.031366690071898407  0.5382913743093383  0.696915116694349  1.0000
  C   C27       1.0  0.4615107284467684  0.4929045652511591  0.36367976294787496  1.0000
  C   C28       1.0  0.9687973915019156  0.5070865483042725  0.9696419819357727  1.0000
  C   C29       1.0  0.5382911309270995  0.031362963705937906  0.3030847943117649  1.0000
  C   C30       1.0  0.492904912480249  0.4615093640987242  0.636319699134553  1.0000
  C   C31       1.0  0.6111983210136173  0.15823987950721388  0.1363388256099043  1.0000
  C   C32       1.0  0.8419948553686679  0.45289311996749887  0.802956558927093  1.0000
  C   C33       1.0  0.5467593451816413  0.3888220982090902  0.46978583171651417  1.0000
  C   C34       1.0  0.15823836912938566  0.6111995492331063  0.8636610968195414  1.0000
  C   C35       1.0  0.45289372251480126  0.8419949026294447  0.1970429235000069  1.0000
  C   C36       1.0  0.3888220286947116  0.5467581974613936  0.5302145729186805  1.0000
  C   C37       1.0  0.589383499609738  0.180518221965997  0.19380254110969727  1.0000
  C   C38       1.0  0.8196943881473757  0.4087780612685067  0.8604292204748845  1.0000
  C   C39       1.0  0.5908967783294017  0.4106356092859898  0.527228816609238  1.0000
  C   C40       1.0  0.18051875195535416  0.5893848841080641  0.8061969096510707  1.0000
  C   C41       1.0  0.40877746329619663  0.819694510362716  0.13957025784427657  1.0000
  C   C42       1.0  0.4106363046156287  0.5908970040671947  0.4727720638026014  1.0000
  C   C43       1.0  0.6499459396238905  0.24516037134219498  0.2308681401470096  1.0000
  C   C44       1.0  0.7550691084545351  0.40470820278418557  0.8974843816524114  1.0000
  C   C45       1.0  0.5950683949363765  0.3500960123974226  0.564245585645665  1.0000
  C   C46       1.0  0.24516294563851185  0.6499474478024609  0.7691308464415699  1.0000
  C   C47       1.0  0.4047070713235144  0.7550687174588689  0.1025141487954784  1.0000
  C   C48       1.0  0.35009689516027004  0.595069452705893  0.4357548194489524  1.0000
  C   C49       1.0  0.7328489472524354  0.2922202294232863  0.20853071703054843  1.0000
  C   C50       1.0  0.7080022114879297  0.44050776785991996  0.8751231964535293  1.0000
  C   C51       1.0  0.559293376764451  0.2672277149815018  0.5418794712738091  1.0000
  C   C52       1.0  0.29222186862713767  0.7328513661451694  0.7914692209363848  1.0000
  C   C53       1.0  0.44050761680241374  0.708000920010342  0.1248762772349963  1.0000
  C   C54       1.0  0.2672268472079296  0.5592939746146754  0.45812187031704343  1.0000
  C   C55       1.0  0.7547911241474168  0.2719319762883291  0.1507237781751982  1.0000
  C   C56       1.0  0.7282988844117851  0.48274971479136064  0.8173112470915243  1.0000
  C   C57       1.0  0.5170506114073987  0.24528987822549206  0.4840789952592317  1.0000
  C   C58       1.0  0.2719319740780153  0.7547919014529045  0.849274272405225  1.0000
  C   C59       1.0  0.4827505958393914  0.7282998628185384  0.1826877583674218  1.0000
  C   C60       1.0  0.24529010711887614  0.517052325034527  0.5159204549888514  1.0000
  C   C61       1.0  0.6943000757169386  0.20403247562536836  0.11542139969938599  1.0000
  C   C62       1.0  0.7962081189710872  0.4901980646655349  0.7820288983607637  1.0000
  C   C63       1.0  0.5095176733959121  0.305740425228912  0.4488168123287366  1.0000
  C   C64       1.0  0.2040309709105658  0.6943012721554284  0.8845766429903321  1.0000
  C   C65       1.0  0.4901989357694277  0.796209065438163  0.2179696397554522  1.0000
  C   C66       1.0  0.3057405513012412  0.509517384594304  0.551183113145747  1.0000
  C   C67       1.0  0.6312083088715993  0.3683665836115325  0.2969835058635795  1.0000
  C   C68       1.0  0.6318680160966395  0.26278030506404104  0.963602851152487  1.0000
  C   C69       1.0  0.7371001230994878  0.36880959632157595  0.6302543914708919  1.0000
  C   C70       1.0  0.3683670489475474  0.6312076772570309  0.7030169026174278  1.0000
  C   C71       1.0  0.26278146018316295  0.6318674772226842  0.03639613546675239  1.0000
  C   C72       1.0  0.3688093498863977  0.7371000045090882  0.3697464951553329  1.0000
  C   C73       1.0  0.5598347430644421  0.3718480150311621  0.278130011081906  1.0000
  C   C74       1.0  0.6283755377617767  0.18792514509303274  0.9447501858335484  1.0000
  C   C75       1.0  0.8119907200801038  0.4401870536769795  0.611375145382901  1.0000
  C   C76       1.0  0.3718490503184528  0.5598347013652547  0.7218699214476061  1.0000
  C   C77       1.0  0.187924774364113  0.6283753799412964  0.0552492677738385  1.0000
  C   C78       1.0  0.44018683012593846  0.8119905815299191  0.38862575003351196  1.0000
  C   C79       1.0  0.5668017337969289  0.44909678956290866  0.2632255655591536  1.0000
  C   C80       1.0  0.5511228152842733  0.11762258216138849  0.9297940427733522  1.0000
  C   C81       1.0  0.8822898487918421  0.43323396661545416  0.5965523411935791  1.0000
  C   C82       1.0  0.4490995025429783  0.5668033451997945  0.7367739001600668  1.0000
  C   C83       1.0  0.11762242530154762  0.5511235425636799  0.0702054019082397  1.0000
  C   C84       1.0  0.43323480875223913  0.8822907576074146  0.4034471424154091  1.0000
  C   C85       1.0  0.6441714850481476  0.5229720731009667  0.2682404722701648  1.0000
  C   C86       1.0  0.4772520653266668  0.1210942143821399  0.9348061591605726  1.0000
  C   C87       1.0  0.8788029995329296  0.3558923108625937  0.6016785264627343  1.0000
  C   C88       1.0  0.5229750359054465  0.6441739300612214  0.7317585306086372  1.0000
  C   C89       1.0  0.12109462443878974  0.47725338014326013  0.0651932812903198  1.0000
  C   C90       1.0  0.35589224988638785  0.8788036568437294  0.39832142410188  1.0000
  C   C91       1.0  0.7153595697212225  0.519703325174099  0.2870557085123409  1.0000
  C   C92       1.0  0.48054698263491963  0.1955615367996232  0.9535956113476018  1.0000
  C   C93       1.0  0.8042999268295785  0.2846964064347973  0.6204605861660397  1.0000
  C   C94       1.0  0.5197042321459903  0.7153618229597927  0.7129437701446973  1.0000
  C   C95       1.0  0.19555989423467685  0.48054496611082004  0.0464033620214792  1.0000
  C   C96       1.0  0.2846958624524092  0.8042988878694929  0.37953888388764057  1.0000
  C   C97       1.0  0.7092838079827856  0.4427210618638002  0.3010353440161992  1.0000
  C   C98       1.0  0.5575249859337887  0.26649136327272793  0.9675777280429614  1.0000
  C   C99       1.0  0.7333673305651658  0.2907574425866885  0.6343330652172767  1.0000
  C   C100      1.0  0.4427223213413286  0.7092845538705677  0.6989650735670807  1.0000
  C   C101      1.0  0.2664901976177204  0.5575246589373394  0.0324217259697974  1.0000
  C   C102      1.0  0.2907556648119609  0.7333675886212918  0.3656678163190676  1.0000
  C   C103      1.0  0.7056534970471517  0.28081964518917635  0.3585546417137238  1.0000
  C   C104      1.0  0.7194223769604875  0.42493854757270116  0.025066279607536  1.0000
  C   C105      1.0  0.5751325449040364  0.29436204982536673  0.6918778630896512  1.0000
  C   C106      1.0  0.2808205715035186  0.7056533306370769  0.6414434066226703  1.0000
  C   C107      1.0  0.4249390634617214  0.7194217535668275  0.9749336657031336  1.0000
  C   C108      1.0  0.2943648316987861  0.5751348957829523  0.3081234812587681  1.0000
  C   C109      1.0  0.7224424148275687  0.3291155187627554  0.41372670391348976  1.0000
  C   C110      1.0  0.670942903121258  0.3933805343306177  0.08014484495222259  1.0000
  C   C111      1.0  0.6067056579954198  0.2775969412399278  0.7470233593804991  1.0000
  C   C112      1.0  0.32911568576425054  0.7224408416421327  0.5862737077497542  1.0000
  C   C113      1.0  0.3933818952576189  0.6709425201217772  0.919855567478251  1.0000
  C   C114      1.0  0.27759829308546097  0.6067072026747554  0.25297704205657817  1.0000
  C   C115      1.0  0.782145445555976  0.33458653946605943  0.45687117037005714  1.0000
  C   C116      1.0  0.6653813925709146  0.4475714616112827  0.12325561043682849  1.0000
  C   C117      1.0  0.5525203704186126  0.21792328806319744  0.7901958557443081  1.0000
  C   C118      1.0  0.3345862033983735  0.7821464902606295  0.5431292449185534  1.0000
  C   C119      1.0  0.44757284904488154  0.6653810218338025  0.8767448049161005  1.0000
  C   C120      1.0  0.21792383981433275  0.5525205204224479  0.2098040670370196  1.0000
  C   C121      1.0  0.8259728608345964  0.29186467168115393  0.4459619851877362  1.0000
  C   C122      1.0  0.7082018462001969  0.5341578206345475  0.1123720844109002  1.0000
  C   C123      1.0  0.4659243504542161  0.17405699537589917  0.7793105305941026  1.0000
  C   C124      1.0  0.2918663296109472  0.8259740151826096  0.5540384303422313  1.0000
  C   C125      1.0  0.5341581598763767  0.7082003893665886  0.887628338718855  1.0000
  C   C126      1.0  0.1740586367798399  0.46592562801384224  0.2206912718327843  1.0000
  C   C127      1.0  0.8096898385466247  0.24347420538559592  0.391461451797845  1.0000
  C   C128      1.0  0.7567593968713808  0.566327613318464  0.05793568659179729  1.0000
  C   C129      1.0  0.4337493670791659  0.19029234866586375  0.7248105477137087  1.0000
  C   C130      1.0  0.243472584266037  0.8096877324791053  0.608540847331092  1.0000
  C   C131      1.0  0.566328510018039  0.7567584736160388  0.9420661570037723  1.0000
  C   C132      1.0  0.19029230136968067  0.43375021701651667  0.2751888942813636  1.0000
  C   C133      1.0  0.7497036713658005  0.237637812592688  0.3481131444895738  1.0000
  C   C134      1.0  0.762693963097824  0.5122108402148771  0.014634784668842797  1.0000
  C   C135      1.0  0.48785268035221924  0.2502677724684761  0.6814506827777079  1.0000
  C   C136      1.0  0.23763730034917782  0.7497026939984083  0.651885847583557  1.0000
  C   C137      1.0  0.5122128823556622  0.7626929435322297  0.9853661124048401  1.0000
  C   C138      1.0  0.25026860953447283  0.48785375299318917  0.3185501817457634  1.0000
  C   C139      1.0  0.9107969760931242  0.27363345847830106  0.1417739618858533  1.0000
  C   C140      1.0  0.7263952328465991  0.6369657564819139  0.8084600258064113  1.0000
  C   C141      1.0  0.36289837393660906  0.08920803121289825  0.47511974189200146  1.0000
  C   C142      1.0  0.2736318431003041  0.9107992338530835  0.8582255134951424  1.0000
  C   C143      1.0  0.6369664998175112  0.7263954008389464  0.191539460735676  1.0000
  C   C144      1.0  0.0892087593776196  0.3629006775513021  0.5248806334550622  1.0000
  C   C145      1.0  0.9017709509351091  0.24352810541531525  0.20386145875043837  1.0000
  C   C146      1.0  0.756431095110834  0.658104413737256  0.8705567759453529  1.0000
  C   C147      1.0  0.3418310290831387  0.09820397374253541  0.5372175929643603  1.0000
  C   C148      1.0  0.24352740717854726  0.9017722532684476  0.79613801445376  1.0000
  C   C149      1.0  0.6581048367692048  0.756431555819802  0.1294427136138552  1.0000
  C   C150      1.0  0.09820415948672698  0.3418327936578935  0.46278372540012913  1.0000
  C   C151      1.0  0.9471448221643826  0.2057111395133193  0.22436774729077769  1.0000
  C   C152      1.0  0.7941190755756581  0.7413360577576714  0.8910209204072003  1.0000
  C   C153      1.0  0.25861661031114386  0.052754718961310315  0.5577088766452006  1.0000
  C   C154      1.0  0.20570985860289442  0.9471455394552707  0.7756326701104329  1.0000
  C   C155      1.0  0.7413369752998521  0.7941212514732289  0.10897810443088932  1.0000
  C   C156      1.0  0.05275692922814564  0.25861855322104793  0.4422914904190733  1.0000
  C   C157      1.0  0.0017556531120987984  0.1972689513667873  0.1829887070238811  1.0000
  C   C158      1.0  0.802502024202738  0.8043325426373402  0.8495996971616506  1.0000
  C   C159      1.0  0.19554519409177124  0.9981672622893926  0.516315230442295  1.0000
  C   C160      1.0  0.19726740486694894  0.001756384203922333  0.8170116530554664  1.0000
  C   C161      1.0  0.8043324132322097  0.8025031320121203  0.1504007475803846  1.0000
  C   C162      1.0  0.9981703654858691  0.1955471432381659  0.4836866053201945  1.0000
  C   C163      1.0  0.009496177253822758  0.22528560275556947  0.12075783568273829  1.0000
  C   C164      1.0  0.7745339708695269  0.7840019294752951  0.7873596151070927  1.0000
  C   C165      1.0  0.21579384413017536  0.9904426638957563  0.454085061404541  1.0000
  C   C166      1.0  0.22528502236003334  0.009495979868475566  0.879242998591799  1.0000
  C   C167      1.0  0.7840020362272566  0.774535957148622  0.21263988293119948  1.0000
  C   C168      1.0  0.9904460804724664  0.21579547513379566  0.5459158314259795  1.0000
  C   C169      1.0  0.9637411734901348  0.2627052371607806  0.1000117182143541  1.0000
  C   C170      1.0  0.7372501288158161  0.7008133569169746  0.766659568446201  1.0000
  C   C171      1.0  0.2989920754326363  0.03625547214410582  0.43334866142757994  1.0000
  C   C172      1.0  0.26270431853595994  0.963741603578676  0.8999882317962077  1.0000
  C   C173      1.0  0.7008124250133675  0.7372498557078659  0.233339922468609  1.0000
  C   C174      1.0  0.036257450714593575  0.2989931515649644  0.5666521790012807  1.0000
  C   C175      1.0  0.9094163972174485  0.4281163935452174  0.1593150062147686  1.0000
  C   C176      1.0  0.5720129673331797  0.4810345101247154  0.8258580604386624  1.0000
  C   C177      1.0  0.5187623912695472  0.09068357391807784  0.49256500644053586  1.0000
  C   C178      1.0  0.4281172105024069  0.9094185301933282  0.8406858942147012  1.0000
  C   C179      1.0  0.4810329444387593  0.5720121731418079  0.17414187920947197  1.0000
  C   C180      1.0  0.09068207825016829  0.5187624251207908  0.5074344346190287  1.0000
  C   C181      1.0  0.9685271499195522  0.4457592645281499  0.2073218673821628  1.0000
  C   C182      1.0  0.554389289216786  0.5225419997316152  0.8738249118844194  1.0000
  C   C183      1.0  0.4772733902265855  0.031530810296835965  0.5405550250303861  1.0000
  C   C184      1.0  0.44575929277219484  0.9685278436904244  0.7926790377181376  1.0000
  C   C185      1.0  0.5225405398026483  0.5543873378444035  0.1261745574441377  1.0000
  C   C186      1.0  0.03152982858041767  0.47727396743079725  0.4594448818524555  1.0000
  C   C187      1.0  0.004014302206016402  0.5221577045564133  0.2397451992539246  1.0000
  C   C188      1.0  0.47797047131149384  0.4817015396670216  0.9062018968305098  1.0000
  C   C189      1.0  0.5181479178611073  0.995971435844162  0.5729251299350793  1.0000
  C   C190      1.0  0.5221581388044144  0.004014406024097795  0.7602561244619039  1.0000
  C   C191      1.0  0.48170084709664696  0.47796994973195683  0.0937970935215091  1.0000
  C   C192      1.0  0.9959705417715838  0.5181470322964686  0.4270743656086821  1.0000
  C   C193      1.0  0.9805460309497319  0.5815534919696008  0.22485220534867517  1.0000
  C   C194      1.0  0.41848333660432513  0.3988530255995501  0.891296226124453  1.0000
  C   C195      1.0  0.6009795719436397  0.019361632291421033  0.5579886607205893  1.0000
  C   C196      1.0  0.5815531334668618  0.9805450384244808  0.7751501243655312  1.0000
  C   C197      1.0  0.3988515303141681  0.418481425759005  0.1087041713462824  1.0000
  C   C198      1.0  0.019361462505607094  0.6009803003976019  0.4420112529235425  1.0000
  C   C199      1.0  0.9219307910365585  0.5646805702261734  0.17686796857851309  1.0000
  C   C200      1.0  0.4352937114463913  0.3570848827570361  0.8433227171553526  1.0000
  C   C201      1.0  0.6427172008046754  0.077965452405728  0.5099906943288843  1.0000
  C   C202      1.0  0.5646812308235025  0.9219320956646797  0.8231348283541137  1.0000
  C   C203      1.0  0.3570835957674277  0.43529264421715663  0.156677678757255  1.0000
  C   C204      1.0  0.07796531232623485  0.6427179296512905  0.49000875347395123  1.0000
  C   C205      1.0  0.8871524874163584  0.4888936200945298  0.1440035656944758  1.0000
  C   C206      1.0  0.5111248424842075  0.39801032639127965  0.8105106042916503  1.0000
  C   C207      1.0  0.601767010956152  0.11285161357938034  0.47720227467069515  1.0000
  C   C208      1.0  0.48889222163849416  0.8871536493297614  0.8559996962901052  1.0000
  C   C209      1.0  0.3980091302735146  0.5111225760628315  0.1894888550112412  1.0000
  C   C210      1.0  0.11285151114370953  0.6017677792228184  0.5227971727677243  1.0000
  N   N1        1.0  0.4260010497199077  0.9492078848452723  0.030576411719359004  1.0000
  N   N2        1.0  0.050943259462044914  0.4768087841475364  0.6971165776133574  1.0000
  N   N3        1.0  0.5230919147537634  0.573989809948593  0.36384216834509425  1.0000
  N   N4        1.0  0.9492088767711947  0.42599957880237616  0.9694230757095567  1.0000
  N   N5        1.0  0.47681013118072707  0.05094113570817883  0.3028838027459031  1.0000
  N   N6        1.0  0.5739881565355559  0.5230903919271982  0.6361577740076001  1.0000
  Cl  Cl1       1.0  0.3827791285163968  0.1695685808873223  0.30012107817011463  1.0000
  Cl  Cl2       1.0  0.8305589089081594  0.2132704255361307  0.9668152699799676  1.0000
  Cl  Cl3       1.0  0.786750913327083  0.6171973606083159  0.6333470042969225  1.0000
  Cl  Cl4       1.0  0.16957071813768476  0.3827790437948624  0.6998793035507731  1.0000
  Cl  Cl5       1.0  0.21326946300458624  0.830558092405795  0.03318561291539619  1.0000
  Cl  Cl6       1.0  0.6171982486548301  0.7867530981714314  0.3666524845095225  1.0000
