data_image0
_chemical_formula_structural       Zn2H22C26N2O8
_chemical_formula_sum              "Zn2 H22 C26 N2 O8"
_cell_length_a       9.584599326234626
_cell_length_b       10.944025098688746
_cell_length_c       11.007950349998296
_cell_angle_alpha    89.98595085777822
_cell_angle_beta     90.01188253052887
_cell_angle_gamma    89.22024964673878

_space_group_name_H-M_alt    "P 1"
_space_group_IT_number       1

loop_
  _space_group_symop_operation_xyz
  'x, y, z'

loop_
  _atom_site_type_symbol
  _atom_site_label
  _atom_site_symmetry_multiplicity
  _atom_site_fract_x
  _atom_site_fract_y
  _atom_site_fract_z
  _atom_site_occupancy
  Zn  Zn1       1.0  0.6414673145234884  0.5016363390230651  0.5002703634071963  1.0000
  Zn  Zn2       1.0  0.35853662344518966  0.49836133317808884  0.49973152628385253  1.0000
  H   H1        1.0  0.13611606977426757  0.3599118811316658  0.3731654783342718  1.0000
  H   H2        1.0  0.863885774250029  0.6400876372936324  0.6268364085344797  1.0000
  H   H3        1.0  0.13209719046483312  0.6402334978387858  0.6263405645765799  1.0000
  H   H4        1.0  0.8679056904915681  0.3597678383081728  0.3736604131278581  1.0000
  H   H5        1.0  0.39448885532689804  0.08557087534339303  0.6845352848331884  1.0000
  H   H6        1.0  0.6054983859572826  0.9144278584937386  0.31546386768611256  1.0000
  H   H7        1.0  0.6297084850201172  0.9235386986418493  0.6770551914760146  1.0000
  H   H8        1.0  0.37027770870809457  0.0764609588059173  0.3229448680659671  1.0000
  H   H9        1.0  0.7433461902576751  0.06737961086842861  0.4863453229142109  1.0000
  H   H10       1.0  0.25664209033235613  0.9326200279100619  0.5136547380223176  1.0000
  H   H11       1.0  0.559465981568593  0.28665752216878815  0.7698116124785271  1.0000
  H   H12       1.0  0.6712963010360014  0.23895512898404558  0.8886433018285869  1.0000
  H   H13       1.0  0.49258841068411385  0.2002049494935534  0.8924106952159929  1.0000
  H   H14       1.0  0.44053481902479047  0.7133420055911516  0.23019027369294773  1.0000
  H   H15       1.0  0.5074123716190541  0.7997991476521167  0.10759209581992477  1.0000
  H   H16       1.0  0.3287076581417664  0.7610379713385454  0.11135314082886788  1.0000
  H   H17       1.0  0.4807898755523253  0.259324486444946  0.20367076833854003  1.0000
  H   H18       1.0  0.5816638555860933  0.19759127998262482  0.08267576877417329  1.0000
  H   H19       1.0  0.6601005880727582  0.29152747139570323  0.1943165482987936  1.0000
  H   H20       1.0  0.5192088369730498  0.7406759717674379  0.7963274819891948  1.0000
  H   H21       1.0  0.33990023968337363  0.7084647471419034  0.8056871604513488  1.0000
  H   H22       1.0  0.4183359039114761  0.8024082551176905  0.9173224829647066  1.0000
  C   C1        1.0  0.4999040231908793  0.5016463490338553  0.1249133084263363  1.0000
  C   C2        1.0  0.5001186747026621  0.4983566383069374  0.8750894979662075  1.0000
  C   C3        1.0  0.500573308519847  0.4983734736952743  0.7385938525739346  1.0000
  C   C4        1.0  0.49944417634421256  0.5016286460427182  0.2614080426122882  1.0000
  C   C5        1.0  0.49641475684077097  0.7404382316712842  0.5046433124301046  1.0000
  C   C6        1.0  0.5035651810108206  0.259560567009764  0.4953549267744534  1.0000
  C   C7        1.0  0.5724621358629349  0.9590273722432775  0.5982447729165514  1.0000
  C   C8        1.0  0.42752406257410763  0.04097137042992221  0.4017534704716539  1.0000
  C   C9        1.0  0.6355726546760322  0.036299215312183705  0.49229392378311576  1.0000
  C   C10       1.0  0.3644114592729366  0.9636986332500045  0.5077061357920697  1.0000
  C   C11       1.0  0.4409655038752049  0.04562214746729149  0.6026436068467546  1.0000
  C   C12       1.0  0.5590227778823689  0.9543774903140586  0.3973546372221151  1.0000
  C   C13       1.0  0.5054899528600456  0.12379593287384691  0.49634854815896273  1.0000
  C   C14       1.0  0.49449727721650305  0.8762055427941463  0.5036515106525455  1.0000
  C   C15       1.0  0.0737112002898712  0.4218303607107004  0.4292345153862982  1.0000
  C   C16       1.0  0.9262906336943286  0.5781718985483267  0.570766460906988  1.0000
  C   C17       1.0  0.07150296262835808  0.5781390768398043  0.5705564262267443  1.0000
  C   C18       1.0  0.9284999189118109  0.4218622588085879  0.4294436430438679  1.0000
  C   C19       1.0  0.5326070828005314  0.38950192956271223  0.9372590880710658  1.0000
  C   C20       1.0  0.46740833053441116  0.6104965527376935  0.06274099170845909  1.0000
  C   C21       1.0  0.5325142540725238  0.3914825118474283  0.0650775974765594  1.0000
  C   C22       1.0  0.4674927935249328  0.6085206145158325  0.934923381589222  1.0000
  C   C23       1.0  0.5653624514609986  0.27327645804167844  0.8683265868424641  1.0000
  C   C24       1.0  0.43464148176020245  0.7267230397200707  0.13167166768550936  1.0000
  C   C25       1.0  0.5655534695539401  0.2787770730727743  0.1393109280823666  1.0000
  C   C26       1.0  0.434449415527517  0.7212233487981765  0.8606891419021209  1.0000
  N   N1        1.0  0.8566529759135972  0.5000364193372279  0.5001559128211922  1.0000
  N   N2        1.0  0.14334886336321517  0.4999649246486654  0.4998423388844839  1.0000
  O   O1        1.0  0.6190020944119607  0.5010063556323845  0.6863479181559666  1.0000
  O   O2        1.0  0.38102584776022747  0.4989901865989098  0.313651262984763  1.0000
  O   O3        1.0  0.6174878221384573  0.5038506745839016  0.3144779054548436  1.0000
  O   O4        1.0  0.3825400987860093  0.4961513503119834  0.6855212714026349  1.0000
  O   O5        1.0  0.6166908671673424  0.6889029625947884  0.505711384103563  1.0000
  O   O6        1.0  0.3832953288959615  0.31109669285871183  0.494285041703101  1.0000
  O   O7        1.0  0.6204576287004855  0.3139463670795947  0.4971822186485042  1.0000
  O   O8        1.0  0.3795358531276136  0.6860568816311244  0.5028205682203717  1.0000
