data_image0
_chemical_formula_structural       Zn16H48C104S16O60
_chemical_formula_sum              "Zn16 H48 C104 S16 O60"
_cell_length_a       19.67137165910433
_cell_length_b       19.661173238203613
_cell_length_c       33.3877151887726
_cell_angle_alpha    79.16281524668533
_cell_angle_beta     79.13236967198465
_cell_angle_gamma    63.90984042320239

_space_group_name_H-M_alt    "P 1"
_space_group_IT_number       1

loop_
  _space_group_symop_operation_xyz
  'x, y, z'

loop_
  _atom_site_type_symbol
  _atom_site_label
  _atom_site_symmetry_multiplicity
  _atom_site_fract_x
  _atom_site_fract_y
  _atom_site_fract_z
  _atom_site_occupancy
  Zn  Zn1       1.0  0.05693509539385391  0.3989005837870252  0.47815212607964247  1.0000
  Zn  Zn2       1.0  0.9840770936265104  0.4829490992441166  0.5599349296501899  1.0000
  Zn  Zn3       1.0  0.058777963285876915  0.5601999665702592  0.48254405723454147  1.0000
  Zn  Zn4       1.0  0.9016196680079036  0.5546905910923386  0.47930816508699803  1.0000
  Zn  Zn5       1.0  0.6931636065170538  0.3505776910985078  0.27171934923382685  1.0000
  Zn  Zn6       1.0  0.6887087513413307  0.18929327297877302  0.2672176512200934  1.0000
  Zn  Zn7       1.0  0.767754732447145  0.2667101854221416  0.19066803124344733  1.0000
  Zn  Zn8       1.0  0.8467903107175162  0.19438930667627843  0.27163002121784535  1.0000
  Zn  Zn9       1.0  0.2673655483009441  0.7669597446312578  0.6890559251381205  1.0000
  Zn  Zn10      1.0  0.3494799506419143  0.6953209667645552  0.771228242199321  1.0000
  Zn  Zn11      1.0  0.19341941593530274  0.8486707113711207  0.7712587771545643  1.0000
  Zn  Zn12      1.0  0.19173513815410106  0.6895615171417403  0.7671878761973974  1.0000
  Zn  Zn13      1.0  0.5603601207637823  0.06120755055069799  0.9828724284553729  1.0000
  Zn  Zn14      1.0  0.4003115910962408  0.05615948143457663  0.9781305122974401  1.0000
  Zn  Zn15      1.0  0.5559966982553848  0.9019931107287464  0.978754706902123  1.0000
  Zn  Zn16      1.0  0.48218643607992123  0.983141474406438  0.059630984749297525  1.0000
  H   H1        1.0  0.748127092951016  0.4536338974537062  0.3506852301092139  1.0000
  H   H2        1.0  0.0018620612469746006  0.29650956611755663  0.39911345402930465  1.0000
  H   H3        1.0  0.20073055248817437  0.7003271839384126  0.597840144022449  1.0000
  H   H4        1.0  0.049250456767211404  0.5495900271603985  0.652189369776636  1.0000
  H   H5        1.0  0.46321470522318736  0.23926514562838705  0.3408924911460361  1.0000
  H   H6        1.0  0.4790005632019999  0.7026502253399297  0.6012150561765639  1.0000
  H   H7        1.0  0.2029634636733277  0.978475737068223  0.601500833255635  1.0000
  H   H8        1.0  0.9494575544963911  0.9704551453023531  0.34809954301196905  1.0000
  H   H9        1.0  0.6520887422803414  0.15237698727356272  0.04945127009074922  1.0000
  H   H10       1.0  0.5980059563502067  0.09764832970987677  0.20047999621605336  1.0000
  H   H11       1.0  0.547126425604077  0.7716074675333575  0.1485469264839239  1.0000
  H   H12       1.0  0.16271146029067302  0.14144305392819934  0.04013817348415222  1.0000
  H   H13       1.0  0.29666837043743755  0.0018593442748056307  0.8993009929007486  1.0000
  H   H14       1.0  0.4536157303473801  0.7481417286826115  0.8506510546520829  1.0000
  H   H15       1.0  0.3004445249566601  0.2795586996896303  0.9020760447554963  1.0000
  H   H16       1.0  0.7864124781167662  0.010678359549167737  0.9091913878839223  1.0000
  H   H17       1.0  0.8094101484766869  0.5272171881532162  0.41848212655890643  1.0000
  H   H18       1.0  0.9402036841562591  0.2227581217203677  0.3315513730354951  1.0000
  H   H19       1.0  0.13569788743874514  0.6360397688625598  0.5272179223334775  1.0000
  H   H20       1.0  0.11421858089622822  0.6139681168775155  0.7228054757687019  1.0000
  H   H21       1.0  0.7230854306579746  0.22265087275353318  0.1141051208666468  1.0000
  H   H22       1.0  0.5270781706061741  0.027198952001945997  0.13601080680700764  1.0000
  H   H23       1.0  0.22267312571517547  0.9407024134079764  0.831686969247649  1.0000
  H   H24       1.0  0.5275334455626749  0.8091291670895513  0.9183743285214803  1.0000
  H   H25       1.0  0.23135151144501984  0.575939857265496  0.39915956750343906  1.0000
  H   H26       1.0  0.33076217976770295  0.5513728988259105  0.396799546232188  1.0000
  H   H27       1.0  0.2764792666259552  0.5361422830350122  0.4440188875298858  1.0000
  H   H28       1.0  0.8213275722472135  0.47685570974133656  0.6534412897893418  1.0000
  H   H29       1.0  0.7572234195029922  0.536723828400447  0.6908691317257336  1.0000
  H   H30       1.0  0.8240191719751736  0.5641897038483846  0.6559156767675135  1.0000
  H   H31       1.0  0.06436234585623883  0.32369630159206514  0.6561923328161257  1.0000
  H   H32       1.0  0.0365190861598208  0.2570910421958388  0.691092388184039  1.0000
  H   H33       1.0  0.9770300728811564  0.32124786812868694  0.6535671164412734  1.0000
  H   H34       1.0  0.7979147150834011  0.7220604980531037  0.38959325872020406  1.0000
  H   H35       1.0  0.7318275750226066  0.8200580167655077  0.38630236704495496  1.0000
  H   H36       1.0  0.758472135571985  0.7665537823710126  0.43471408381622473  1.0000
  H   H37       1.0  0.7729038188990175  0.4288264302855609  0.09639903473995302  1.0000
  H   H38       1.0  0.7134043709184043  0.4929668378628449  0.05889133388487273  1.0000
  H   H39       1.0  0.6855995894397469  0.42635468211427957  0.09373434549608116  1.0000
  H   H40       1.0  0.07238412790623272  0.1483619095871518  0.2399715054053786  1.0000
  H   H41       1.0  0.1577352612867458  0.0696139327527661  0.22403393932239624  1.0000
  H   H42       1.0  0.0692271799782418  0.06122181317473262  0.2374436637161068  1.0000
  H   H43       1.0  0.4915940774317635  0.48311702519072247  0.8151852456659583  1.0000
  H   H44       1.0  0.5178695433604548  0.43016640520950494  0.8637732106719298  1.0000
  H   H45       1.0  0.4517185111991254  0.5281980899985754  0.860078212617296  1.0000
  H   H46       1.0  0.9733942968833277  0.7140967201802229  0.8058514491317582  1.0000
  H   H47       1.0  0.9194797445644627  0.6984864603645704  0.8531483220970628  1.0000
  H   H48       1.0  0.0188344622418413  0.6742975936437363  0.8506099050496659  1.0000
  C   C1        1.0  0.06157776664247192  0.31533424854068676  0.5616204296483147  1.0000
  C   C2        1.0  0.06908881945084033  0.5694642948426535  0.5701000956792514  1.0000
  C   C3        1.0  0.18436978826548514  0.43861059836810773  0.43867717149307583  1.0000
  C   C4        1.0  0.9383509905818387  0.6841888462858208  0.4386471063148606  1.0000
  C   C5        1.0  0.9308683898165031  0.42954497722725193  0.4303155947195876  1.0000
  C   C6        1.0  0.8158798399555494  0.5614658775451886  0.5614649856379472  1.0000
  C   C7        1.0  0.5651713007647317  0.31103507739506847  0.3115712638340824  1.0000
  C   C8        1.0  0.6802981882072248  0.17960344142500148  0.18069975503608054  1.0000
  C   C9        1.0  0.6884444288920549  0.43452987693790857  0.18841221147928883  1.0000
  C   C10       1.0  0.9341584831335299  0.1886879091738151  0.18872621267072995  1.0000
  C   C11       1.0  0.818882471781514  0.3204667986764137  0.31962898622175834  1.0000
  C   C12       1.0  0.8121168865034322  0.06531718220600172  0.3115985164382097  1.0000
  C   C13       1.0  0.43453287024365045  0.688636005085506  0.6880585628326585  1.0000
  C   C14       1.0  0.3204465799752826  0.8190885519485817  0.8196267735026481  1.0000
  C   C15       1.0  0.1889506952418074  0.9341056247568461  0.6882689973128251  1.0000
  C   C16       1.0  0.06565485155758212  0.8113425669955914  0.811372161180458  1.0000
  C   C17       1.0  0.18087502343190212  0.6805114090705898  0.6799168545697328  1.0000
  C   C18       1.0  0.3115012001861005  0.5657500079747848  0.8113212850280433  1.0000
  C   C19       1.0  0.4377837383418211  0.18468264633677478  0.9384268025021426  1.0000
  C   C20       1.0  0.4297907881732642  0.9308495925049911  0.9303732038032136  1.0000
  C   C21       1.0  0.684386055861097  0.9389743937371411  0.9384535350993061  1.0000
  C   C22       1.0  0.5611927700765449  0.8161353425253  0.061691447638004576  1.0000
  C   C23       1.0  0.5699688730442675  0.07017877389352378  0.06927119580867473  1.0000
  C   C24       1.0  0.31515043776318663  0.061944913083444  0.061346126108354285  1.0000
  C   C25       1.0  0.9013190403035269  0.402675697394983  0.40179731973086763  1.0000
  C   C26       1.0  0.8487605663397417  0.3475995013005076  0.3478712523760521  1.0000
  C   C27       1.0  0.8285315169465621  0.4480242149840663  0.3879400847596133  1.0000
  C   C28       1.0  0.9216204918316961  0.3023411897714328  0.3616668185253928  1.0000
  C   C29       1.0  0.8037783982981638  0.4193532594507376  0.3612522256503397  1.0000
  C   C30       1.0  0.9463188660480885  0.3309202543836279  0.3884155102908125  1.0000
  C   C31       1.0  0.09828155045408951  0.59836063201287  0.5977826201933852  1.0000
  C   C32       1.0  0.1516584479574448  0.6515825838325783  0.6522380447912965  1.0000
  C   C33       1.0  0.1417972396725062  0.6415050887831271  0.5820467763675694  1.0000
  C   C34       1.0  0.10816093835089903  0.6084330486971936  0.6679832476334795  1.0000
  C   C35       1.0  0.16756054822120353  0.667251323637018  0.609695265818637  1.0000
  C   C36       1.0  0.08242272396356043  0.5826654394320699  0.6403370459786331  1.0000
  C   C37       1.0  0.3035669133168284  0.45568534618077206  0.40135739132450965  1.0000
  C   C38       1.0  0.4458039626389266  0.2961328839873119  0.3489687435320405  1.0000
  C   C39       1.0  0.258873170112949  0.41481670017849137  0.41386309244603586  1.0000
  C   C40       1.0  0.4904376146759332  0.3363550854510608  0.3365240674294938  1.0000
  C   C41       1.0  0.3776169784757998  0.33893674412338726  0.3726174131387339  1.0000
  C   C42       1.0  0.37142342752952834  0.41120777411590853  0.3777451295313555  1.0000
  C   C43       1.0  0.7274011581358978  0.5752908403534818  0.6295115063868125  1.0000
  C   C44       1.0  0.52418479980323  0.6735949138439568  0.6209258021620201  1.0000
  C   C45       1.0  0.741864823625221  0.5858010646076581  0.586754708882971  1.0000
  C   C46       1.0  0.5094825945127255  0.6634058055722323  0.663321762096075  1.0000
  C   C47       1.0  0.6033353618689005  0.6417654216283782  0.6082320420087939  1.0000
  C   C48       1.0  0.6476603052064791  0.6078017203068882  0.6412445399691507  1.0000
  C   C49       1.0  0.0754196605338819  0.22703171079075446  0.6297487995367279  1.0000
  C   C50       1.0  0.1739550125823754  0.023712501327239018  0.6212119670580734  1.0000
  C   C51       1.0  0.08594610923373121  0.24133819612532653  0.5869840448377347  1.0000
  C   C52       1.0  0.16376786361229287  0.009091225741990193  0.6636166810611003  1.0000
  C   C53       1.0  0.14206640803289622  0.10284898132219672  0.6085142221382897  1.0000
  C   C54       1.0  0.1080136008147861  0.1472755635109877  0.6415200131637847  1.0000
  C   C55       1.0  0.843408310100358  0.7996177736188702  0.3974670664193952  1.0000
  C   C56       1.0  0.9053906637978032  0.9495908065019806  0.35266983051024436  1.0000
  C   C57       1.0  0.9127557797155038  0.7585288174070541  0.41363251912074633  1.0000
  C   C58       1.0  0.8366608084378769  0.9905721694768774  0.33657177886979633  1.0000
  C   C59       1.0  0.9086140301790381  0.879902669016197  0.37487405697007853  1.0000
  C   C60       1.0  0.8421238324848659  0.8689940571849136  0.37534249690916965  1.0000
  C   C61       1.0  0.6523719623843007  0.15218619410386233  0.15161985425491054  1.0000
  C   C62       1.0  0.5977386872564665  0.09782517558522834  0.09831628366928415  1.0000
  C   C63       1.0  0.6679114871202004  0.16814224527762897  0.10830835865274932  1.0000
  C   C64       1.0  0.5820779908095448  0.08202423526525847  0.1416390982995779  1.0000
  C   C65       1.0  0.6402521100709466  0.1404760071537653  0.082562171903092  1.0000
  C   C66       1.0  0.6098190560838149  0.10961034334150806  0.16737401905724172  1.0000
  C   C67       1.0  0.67446219596863  0.5230051488356722  0.12025250086856688  1.0000
  C   C68       1.0  0.5761303605291701  0.7264177348167777  0.1287975471041776  1.0000
  C   C69       1.0  0.6639274575504075  0.5085960185921153  0.1630217945735879  1.0000
  C   C70       1.0  0.5863241705213867  0.7411310154526662  0.08637914128465239  1.0000
  C   C71       1.0  0.6079226938124976  0.6472582261076597  0.14151692783585904  1.0000
  C   C72       1.0  0.6419231479082869  0.6028172915816653  0.10851388461434658  1.0000
  C   C73       1.0  0.0805948555907818  0.12439201723428543  0.17848391685122783  1.0000
  C   C74       1.0  0.1696189927648959  0.125258847851569  0.0726020593129419  1.0000
  C   C75       1.0  0.009197049878707701  0.1635003843245357  0.16435011375233444  1.0000
  C   C76       1.0  0.24056203881864494  0.08661450003902627  0.08649023854743382  1.0000
  C   C77       1.0  0.11087806105381763  0.1393913745430879  0.10578465354949168  1.0000
  C   C78       1.0  0.13811449109334012  0.11114678481494171  0.1444847344263778  1.0000
  C   C79       1.0  0.3475577556191852  0.8487734141433666  0.8479850793309183  1.0000
  C   C80       1.0  0.4027560793045241  0.9012450236332441  0.9019436788300368  1.0000
  C   C81       1.0  0.3023375895424536  0.9216099582205433  0.8618747491835563  1.0000
  C   C82       1.0  0.44799276851934894  0.8284005261556399  0.8880554730949086  1.0000
  C   C83       1.0  0.3310151859659385  0.9462718593029463  0.8886093923515903  1.0000
  C   C84       1.0  0.41929174735976465  0.8037462709836662  0.8613321291484084  1.0000
  C   C85       1.0  0.4064959909124611  0.4503172526508197  0.8524484586309029  1.0000
  C   C86       1.0  0.3444929799326388  0.30045301891109943  0.8974278333503848  1.0000
  C   C87       1.0  0.33712744235059944  0.49137038236780484  0.8363029560711581  1.0000
  C   C88       1.0  0.4132297239391037  0.25948856696231803  0.913507429532892  1.0000
  C   C89       1.0  0.34133636431990777  0.37004758745498384  0.8751405408956074  1.0000
  C   C90       1.0  0.4078371596004617  0.3809537496113152  0.87461011470306  1.0000
  C   C91       1.0  0.9462467345338156  0.7944296089794138  0.8485978928607664  1.0000
  C   C92       1.0  0.8038188635188916  0.953837698853434  0.9010750265371996  1.0000
  C   C93       1.0  0.9910358295069986  0.8352340055545894  0.8361759615657646  1.0000
  C   C94       1.0  0.7591756478151765  0.9136103073563079  0.9135015357138059  1.0000
  C   C95       1.0  0.8720604581417818  0.9110783710304206  0.8774126046179874  1.0000
  C   C96       1.0  0.8783152796963664  0.8388189449691764  0.8722152772275323  1.0000
  C   C97       1.0  0.28480205310252427  0.5339731927520717  0.4107393958608938  1.0000
  C   C98       1.0  0.7853659107556368  0.5362306465781972  0.6591768121776482  1.0000
  C   C99       1.0  0.036296790683479706  0.28513970564311114  0.6593905865902201  1.0000
  C   C100      1.0  0.779284817780365  0.7760815863619327  0.4021763868105168  1.0000
  C   C101      1.0  0.7136346044119436  0.46492882225771137  0.0905938149392043  1.0000
  C   C102      1.0  0.0961324685251554  0.09943029667310553  0.2222931501172027  1.0000
  C   C103      1.0  0.4705459369444185  0.47393400373653793  0.8477192221042104  1.0000
  C   C104      1.0  0.9652283481307933  0.7161463678768103  0.8391385393852104  1.0000
  S   S1        1.0  0.2989145050246763  0.3248550277998988  0.39712905507877855  1.0000
  S   S2        1.0  0.4500113111596775  0.42599700615060954  0.3533309733943497  1.0000
  S   S3        1.0  0.6601713848886634  0.6339214766715954  0.5618374300200912  1.0000
  S   S4        1.0  0.5912852641383425  0.6153376660305129  0.6879193031608963  1.0000
  S   S5        1.0  0.1342235184991623  0.15955617920324272  0.5621013311019214  1.0000
  S   S6        1.0  0.115586901087859  0.09097312751804763  0.6882034393453225  1.0000
  S   S7        1.0  0.9742473830790177  0.8037687736959851  0.4020191159093687  1.0000
  S   S8        1.0  0.7758289651119769  0.9449444407502132  0.34828227199889733  1.0000
  S   S9        1.0  0.6157090545423146  0.590428312979199  0.18791661225836256  1.0000
  S   S10       1.0  0.6344562372827768  0.6591591176855188  0.06182422075820431  1.0000
  S   S11       1.0  0.012818912756245006  0.18312912080665464  0.11100047354201338  1.0000
  S   S12       1.0  0.23633575150329736  0.06719801342521237  0.13970458990303314  1.0000
  S   S13       1.0  0.2756628277142  0.44611245032228214  0.8479860628558314  1.0000
  S   S14       1.0  0.4741524412254137  0.305017026397387  0.9016783232436582  1.0000
  S   S15       1.0  0.9508557232756873  0.9251624956898253  0.8530035430553227  1.0000
  S   S16       1.0  0.7997292714447966  0.8239704666231944  0.8966278646600544  1.0000
  O   O1        1.0  0.0007923000010237011  0.49835408189797176  0.4997997217345045  1.0000
  O   O2        1.0  0.07811947255172672  0.31438706620713225  0.5226459981184277  1.0000
  O   O3        1.0  0.0307484687850419  0.5310783976344953  0.5859415328452116  1.0000
  O   O4        1.0  0.1559811819834849  0.5048016869292768  0.4507530111071106  1.0000
  O   O5        1.0  0.02585596440992791  0.3746036943061171  0.5805253951215548  1.0000
  O   O6        1.0  0.15384136055305933  0.3911071150175119  0.44621028527875956  1.0000
  O   O7        1.0  0.08466050514743982  0.5854293665592039  0.5309461909850273  1.0000
  O   O8        1.0  0.004828888632857802  0.6577630784709214  0.4503124534057363  1.0000
  O   O9        1.0  0.887246963078319  0.49623692570374106  0.4420176825038311  1.0000
  O   O10       1.0  0.8926656106712586  0.6516960085477237  0.4468790669514036  1.0000
  O   O11       1.0  0.9961310069971178  0.386732748583171  0.4416755035756381  1.0000
  O   O12       1.0  0.8751912630187136  0.5259381863911939  0.5802316294142429  1.0000
  O   O13       1.0  0.8149503356094244  0.5779531362865528  0.5224318608794931  1.0000
  O   O14       1.0  0.7481867137556365  0.25065012051702235  0.2505837748655537  1.0000
  O   O15       1.0  0.5960642190602884  0.35817742383713375  0.3034695394312478  1.0000
  O   O16       1.0  0.6646469178000204  0.16361167126385115  0.21902325874612666  1.0000
  O   O17       1.0  0.7239429272344681  0.37507876430388615  0.1696194755042768  1.0000
  O   O18       1.0  0.592498894752957  0.24447768082210072  0.3002568594418734  1.0000
  O   O19       1.0  0.6722731293601143  0.4354880672396177  0.22741980864329753  1.0000
  O   O20       1.0  0.7195695808560673  0.21872077089699374  0.1648753141328783  1.0000
  O   O21       1.0  0.8759592813377142  0.22390392398641268  0.16881200215453163  1.0000
  O   O22       1.0  0.8622654263824929  0.25356378228434556  0.3081194398437859  1.0000
  O   O23       1.0  0.9325534442284962  0.17357460552762682  0.227811032688841  1.0000
  O   O24       1.0  0.7535618025184264  0.36318762111436353  0.30831014913039206  1.0000
  O   O25       1.0  0.7457513841664678  0.09280830538921236  0.29996660093137  1.0000
  O   O26       1.0  0.8591711818925065  0.09621927522165655  0.3036709959173579  1.0000
  O   O27       1.0  0.2507587741100183  0.7504019056652782  0.749368706668605  1.0000
  O   O28       1.0  0.37626961912229023  0.7241942705389237  0.668544310558339  1.0000
  O   O29       1.0  0.3633811101561122  0.7536535248851948  0.8082976174894585  1.0000
  O   O30       1.0  0.17308311676449512  0.9340351631646232  0.7273125902496318  1.0000
  O   O31       1.0  0.43462638576620094  0.6724937558506097  0.7270716825587444  1.0000
  O   O32       1.0  0.22422787136079594  0.8758600409783167  0.6686627581930937  1.0000
  O   O33       1.0  0.25374314178503  0.8623490566230957  0.8080323763011137  1.0000
  O   O34       1.0  0.09637435050163391  0.8587858727294773  0.8039071899578474  1.0000
  O   O35       1.0  0.16509469467478513  0.6646355949133776  0.7190774492683687  1.0000
  O   O36       1.0  0.0942083642202576  0.7453023913816567  0.7991554289373469  1.0000
  O   O37       1.0  0.21930627352080734  0.7187475020824294  0.6640793898605183  1.0000
  O   O38       1.0  0.3573962474353962  0.597978108240241  0.8028799041320482  1.0000
  O   O39       1.0  0.24477559174977873  0.5924597263568145  0.799916508684774  1.0000
  O   O40       1.0  0.4995154177387633  0.0011553049748371735  0.9996669433237813  1.0000
  O   O41       1.0  0.5044545746824839  0.1571270702352265  0.9497483104639389  1.0000
  O   O42       1.0  0.38693831942782003  0.9962637950524781  0.9416978032183893  1.0000
  O   O43       1.0  0.6533129653186053  0.8919069659254577  0.9464651665859165  1.0000
  O   O44       1.0  0.3906384435379948  0.15400880437830725  0.946535943495725  1.0000
  O   O45       1.0  0.6570072968337186  0.005351621531396275  0.949936101725939  1.0000
  O   O46       1.0  0.4964397294752488  0.8874013515722865  0.9420301105173506  1.0000
  O   O47       1.0  0.5768592911647873  0.8162651124876068  0.02263570195662369  1.0000
  O   O48       1.0  0.5306954110957492  0.031089377307928576  0.08514734520593951  1.0000
  O   O49       1.0  0.5259640650339251  0.874611984189301  0.08117153198101326  1.0000
  O   O50       1.0  0.5857335365319403  0.08594572961158785  0.03093548863829909  1.0000
  O   O51       1.0  0.3150733092702466  0.07788439638272854  0.022453244934823115  1.0000
  O   O52       1.0  0.3737442158451501  0.026486518819446345  0.0808555943514477  1.0000
  O   O53       1.0  0.7817546256517504  0.5179024038675523  0.39950164004408617  1.0000
  O   O54       1.0  0.9683502646701145  0.23245749464167165  0.3500837205797255  1.0000
  O   O55       1.0  0.15953364717558577  0.658877410808195  0.5413521373670989  1.0000
  O   O56       1.0  0.09041480254938962  0.591066821827454  0.708683973043499  1.0000
  O   O57       1.0  0.7084537451550048  0.20904486425246205  0.09076803707315413  1.0000
  O   O58       1.0  0.5414323312591804  0.041293633180458963  0.1592633530547261  1.0000
  O   O59       1.0  0.2325069806070772  0.9684093583690369  0.8504112129659376  1.0000
  O   O60       1.0  0.5177949176827426  0.7815071557571258  0.899563435574038  1.0000
