data_image0
_chemical_formula_structural       Cd4H52C56N12O16
_chemical_formula_sum              "Cd4 H52 C56 N12 O16"
_cell_length_a       10.487077665747154
_cell_length_b       10.487055161729735
_cell_length_c       14.456624349006916
_cell_angle_alpha    90.00007228300174
_cell_angle_beta     89.99989779754121
_cell_angle_gamma    106.64476109245678

_space_group_name_H-M_alt    "P 1"
_space_group_IT_number       1

loop_
  _space_group_symop_operation_xyz
  'x, y, z'

loop_
  _atom_site_type_symbol
  _atom_site_label
  _atom_site_symmetry_multiplicity
  _atom_site_fract_x
  _atom_site_fract_y
  _atom_site_fract_z
  _atom_site_occupancy
  Cd  Cd1       1.0  0.4299739690927849  0.5700272821387314  0.39301842600518455  1.0000
  Cd  Cd2       1.0  0.0700269286295522  0.9299717632383915  0.8930193632226633  1.0000
  Cd  Cd3       1.0  0.9299731256649719  0.07002738441008198  0.10698014689768337  1.0000
  Cd  Cd4       1.0  0.5700263638525482  0.42997286074556473  0.6069803923910229  1.0000
  H   H1        1.0  0.8107251441935684  0.18927583123368658  0.5186939572919442  1.0000
  H   H2        1.0  0.6892745346010257  0.3107243138766335  0.018694241291314  1.0000
  H   H3        1.0  0.31072484289008867  0.6892758223058377  0.981305960554337  1.0000
  H   H4        1.0  0.18927546740034967  0.8107253068876045  0.48130624455336607  1.0000
  H   H5        1.0  0.27103291001119345  0.25842141431829896  0.3282383951936366  1.0000
  H   H6        1.0  0.22896756795187653  0.24157754628213723  0.8282396476660168  1.0000
  H   H7        1.0  0.24157828083049535  0.22896851807580276  0.17176134599607445  1.0000
  H   H8        1.0  0.25842050219933543  0.271033230805088  0.6717598204348931  1.0000
  H   H9        1.0  0.7289671442833238  0.7415777333301747  0.6717611149267099  1.0000
  H   H10       1.0  0.7710318095384918  0.7584225899007249  0.1717612459040438  1.0000
  H   H11       1.0  0.7584230075668328  0.7710316315114837  0.8282381641239311  1.0000
  H   H12       1.0  0.7415785966417087  0.72896591014117  0.3282403814104812  1.0000
  H   H13       1.0  0.05340839593375079  0.09585007188751858  0.3482140790231584  1.0000
  H   H14       1.0  0.44659136240232994  0.4041498998819931  0.8482138156186777  1.0000
  H   H15       1.0  0.40414932362633477  0.4465926655228714  0.15178641444457233  1.0000
  H   H16       1.0  0.09584950222781427  0.0534090607225721  0.6517849002050938  1.0000
  H   H17       1.0  0.9465909815573635  0.9041500642949598  0.6517861228224859  1.0000
  H   H18       1.0  0.5534080150895232  0.5958502363000945  0.15178569450255  1.0000
  H   H19       1.0  0.5958488197627148  0.5534064687204036  0.8482130956769963  1.0000
  H   H20       1.0  0.9041505520659638  0.9465900869262994  0.3482153016396694  1.0000
  H   H21       1.0  0.6326350774033925  0.03648654266020659  0.5479228175776925  1.0000
  H   H22       1.0  0.8673654941794167  0.4635136422750107  0.0479237029201371  1.0000
  H   H23       1.0  0.4635153877106715  0.8673662945715108  0.9520764363721526  1.0000
  H   H24       1.0  0.03648594069849755  0.6326348082014447  0.4520760633709173  1.0000
  H   H25       1.0  0.36736553419126483  0.9635145954606869  0.4520766925432014  1.0000
  H   H26       1.0  0.13263483876443152  0.53648650061006  0.9520764989248958  1.0000
  H   H27       1.0  0.5364849452339157  0.1326338483131693  0.0479230737484713  1.0000
  H   H28       1.0  0.963513994094981  0.3673673184522741  0.547922063302039  1.0000
  H   H29       1.0  0.47886195039244217  0.8118211352942523  0.5156121307107995  1.0000
  H   H30       1.0  0.021138402847284965  0.6881794594757479  0.015613211533896299  1.0000
  H   H31       1.0  0.6881793928931471  0.021139884456552197  0.9843877369893761  1.0000
  H   H32       1.0  0.8118202429521588  0.4788607950772104  0.4843873244568754  1.0000
  H   H33       1.0  0.5211393380048861  0.18817901429303416  0.4843873794092061  1.0000
  H   H34       1.0  0.9788609746430904  0.3118206767071213  0.9843876820361643  1.0000
  H   H35       1.0  0.3118197059478972  0.9788592564897128  0.015612464855998097  1.0000
  H   H36       1.0  0.18817969184132008  0.5211413315765157  0.5156108022160737  1.0000
  H   H37       1.0  0.22598075802461176  0.9127980261893783  0.3173599724002543  1.0000
  H   H38       1.0  0.27402030190428656  0.5872009334509514  0.8173589510127355  1.0000
  H   H39       1.0  0.5872028861003002  0.2740207843028344  0.18264058534288097  1.0000
  H   H40       1.0  0.912797675311978  0.2259805485292006  0.6826402032091676  1.0000
  H   H41       1.0  0.7740195749184974  0.0872021166960906  0.6826409211691953  1.0000
  H   H42       1.0  0.7259797523902377  0.41279821419752244  0.18264055910761096  1.0000
  H   H43       1.0  0.4127984022970209  0.7259793652844522  0.8173589247771247  1.0000
  H   H44       1.0  0.0872029362819403  0.7740205895920906  0.3173599986361353  1.0000
  H   H45       1.0  0.13824232164166256  0.7226265911416475  0.1519831612641838  1.0000
  H   H46       1.0  0.36175706242969596  0.7773751466963787  0.6519835834566337  1.0000
  H   H47       1.0  0.7773748402630429  0.36175653599881485  0.3480152086369799  1.0000
  H   H48       1.0  0.722626441554773  0.1382420119325261  0.8480170668834505  1.0000
  H   H49       1.0  0.8617580113021855  0.27737355174343037  0.8480170405808491  1.0000
  H   H50       1.0  0.6382432705148913  0.22262499618830842  0.3480159266639901  1.0000
  H   H51       1.0  0.22262549268154422  0.6382436068858651  0.6519843014836441  1.0000
  H   H52       1.0  0.2773736127390051  0.8617571357163384  0.1519831349613128  1.0000
  C   C1        1.0  0.19951392278328933  0.2794123527467178  0.3763886955502258  1.0000
  C   C2        1.0  0.3004867306003474  0.22058765765348898  0.8763898367180474  1.0000
  C   C3        1.0  0.22058728052393653  0.30048748636431805  0.1236104556677873  1.0000
  C   C4        1.0  0.27941104843525  0.19951221748060277  0.6236102213542907  1.0000
  C   C5        1.0  0.8004864101613047  0.7205877901379694  0.623610814570398  1.0000
  C   C6        1.0  0.6995129255408369  0.7794134737652029  0.1236103651278739  1.0000
  C   C7        1.0  0.7794108628651126  0.6995116478789496  0.8763890544537886  1.0000
  C   C8        1.0  0.7205880504057942  0.8004869234656624  0.3763899804910835  1.0000
  C   C9        1.0  0.07615692254275785  0.18643504217417467  0.3890500563724828  1.0000
  C   C10       1.0  0.42384246959415595  0.31356398063455515  0.8890504315036762  1.0000
  C   C11       1.0  0.3135640171459712  0.42384375160305865  0.1109505117093406  1.0000
  C   C12       1.0  0.18643652851046255  0.07615694653711809  0.6109502848774753  1.0000
  C   C13       1.0  0.9238424549483567  0.8135650940082969  0.6109501454731614  1.0000
  C   C14       1.0  0.5761569078962194  0.6864361555483143  0.11095046206638412  1.0000
  C   C15       1.0  0.6864353603451432  0.5761563845794129  0.8890496901363036  1.0000
  C   C16       1.0  0.8135638044333856  0.9238431963479596  0.3890499169675579  1.0000
  C   C17       1.0  0.9859531179945121  0.21641577553459965  0.45174392590536167  1.0000
  C   C18       1.0  0.5140465878346134  0.28358486700813046  0.9517448019393555  1.0000
  C   C19       1.0  0.2835857967465713  0.5140478526420579  0.0482554381632312  1.0000
  C   C20       1.0  0.21641353105808742  0.9859527724155865  0.5482548542347985  1.0000
  C   C21       1.0  0.01404653814741146  0.7835853558836943  0.5482555842161502  1.0000
  C   C22       1.0  0.4859537451084961  0.7164152758773383  0.0482560916300869  1.0000
  C   C23       1.0  0.7164135807445431  0.48595228354041337  0.9517447636824201  1.0000
  C   C24       1.0  0.7835868018865069  0.014047370469100397  0.45174465588582535  1.0000
  C   C25       1.0  0.6602358326599854  0.9706070617892947  0.49850228276548586  1.0000
  C   C26       1.0  0.8397643315654972  0.5293936451078735  0.998502507429542  1.0000
  C   C27       1.0  0.5293934706668891  0.8397657029815233  0.0014976246276959  1.0000
  C   C28       1.0  0.970606803636947  0.660234434010107  0.5014971080950446  1.0000
  C   C29       1.0  0.3397645002846019  0.029393081095385288  0.5014972273551308  1.0000
  C   C30       1.0  0.16023560322575037  0.4706084815470248  0.0014976944166492  1.0000
  C   C31       1.0  0.470606862276959  0.1602344399035545  0.9985025772173373  1.0000
  C   C32       1.0  0.029393529307647295  0.339765708874573  0.4985024020255721  1.0000
  C   C33       1.0  0.5745725795524379  0.8465610960242599  0.48081212132667156  1.0000
  C   C34       1.0  0.9254254330427752  0.6534385821855152  0.9808130402884602  1.0000
  C   C35       1.0  0.6534394940140158  0.9254293668131979  0.0191877438490948  1.0000
  C   C36       1.0  0.8465600655611494  0.5745717787584183  0.5191873091797987  1.0000
  C   C37       1.0  0.4254270765894858  0.15344003539403417  0.5191873887948333  1.0000
  C   C38       1.0  0.07457203354138639  0.346561540592539  0.019188545007239096  1.0000
  C   C39       1.0  0.34655988347709865  0.0745707693692808  0.9808124579965564  1.0000
  C   C40       1.0  0.15344026738418384  0.42542836412587076  0.4808115092164087  1.0000
  C   C41       1.0  0.27176029395495493  0.7282406957431106  0.32535065926862927  1.0000
  C   C42       1.0  0.22824170429220184  0.7717582796565096  0.8253526318925138  1.0000
  C   C43       1.0  0.7717586286523851  0.22824186322817744  0.17464687822810984  1.0000
  C   C44       1.0  0.7282403176374855  0.27176044237896235  0.6746509260255067  1.0000
  C   C45       1.0  0.18755780941611272  0.8124434424356578  0.2876379368561999  1.0000
  C   C46       1.0  0.3124429160798454  0.6875574672944821  0.7876383408022463  1.0000
  C   C47       1.0  0.6875574168647417  0.31244267559020494  0.2123611693183776  1.0000
  C   C48       1.0  0.8124425235277356  0.18755670044942008  0.712362264988833  1.0000
  C   C49       1.0  0.17817913175124991  0.8218217100962091  0.18318963589604206  1.0000
  C   C50       1.0  0.32182086221912687  0.6781790745711688  0.6831900192114517  1.0000
  C   C51       1.0  0.6781791920746512  0.3218200730777028  0.31681018263331134  1.0000
  C   C52       1.0  0.8218221566453319  0.1781784394914752  0.81681056594838  1.0000
  C   C53       1.0  0.09144637982926435  0.9085534849813894  0.1535659415583979  1.0000
  C   C54       1.0  0.4085527221989479  0.5914472594138898  0.6535661340786376  1.0000
  C   C55       1.0  0.591448287547564  0.408551894937581  0.3464340677655073  1.0000
  C   C56       1.0  0.9085529976618498  0.0914466512010819  0.8464342602872535  1.0000
  N   N1        1.0  0.239111399503038  0.3976363708756735  0.41982140807697016  1.0000
  N   N2        1.0  0.26088888211502587  0.10236269350595958  0.9198224925982856  1.0000
  N   N3        1.0  0.10236335507175907  0.26088933973343836  0.0801785213472854  1.0000
  N   N4        1.0  0.3976353456522616  0.239111310130447  0.5801774789922192  1.0000
  N   N5        1.0  0.7608889334422951  0.6023637720086228  0.5801774103192373  1.0000
  N   N6        1.0  0.7391104953753493  0.8976374426769024  0.080178400971775  1.0000
  N   N7        1.0  0.8976360224186093  0.7391107964494239  0.9198223722227751  1.0000
  N   N8        1.0  0.6023630763861119  0.7608888193494322  0.4198227228540432  1.0000
  N   N9        1.0  0.8596703073928534  0.14033054900894368  0.47422570780587137  1.0000
  N   N10       1.0  0.6403297483916645  0.359668135239346  0.9742251069197181  1.0000
  N   N11       1.0  0.3596693504493798  0.640331005706919  0.0257750949256561  1.0000
  N   N12       1.0  0.1403300255509946  0.8596695938761342  0.5257744940391689  1.0000
  O   O1        1.0  0.3312459557538147  0.6687531588352158  0.2717537111022708  1.0000
  O   O2        1.0  0.16875396784437408  0.8312447471873412  0.7717558145865836  1.0000
  O   O3        1.0  0.8312458077993337  0.1687534052253099  0.22824438725790944  1.0000
  O   O4        1.0  0.6687540985407093  0.33124598881325806  0.7282457990180757  1.0000
  O   O5        1.0  0.27816765830565515  0.7218323454389264  0.41409266896183544  1.0000
  O   O6        1.0  0.22183291558432924  0.7781657285837724  0.9140946556821844  1.0000
  O   O7        1.0  0.7781668600593787  0.2218324238288857  0.0859055461623015  1.0000
  O   O8        1.0  0.7218326746389393  0.2781677974457537  0.5859068411587813  1.0000
  O   O9        1.0  0.03722518082238931  0.9627748277865604  0.21553067416446933  1.0000
  O   O10       1.0  0.46277502246305596  0.5372269887651128  0.7155300556829616  1.0000
  O   O11       1.0  0.5372253104815384  0.46277315411957426  0.2844694544376623  1.0000
  O   O12       1.0  0.9627748734721278  0.037224319861913095  0.7844688359558772  1.0000
  O   O13       1.0  0.07467357478812169  0.9253255304733653  0.0676779981958404  1.0000
  O   O14       1.0  0.42532352182157485  0.5746741079520206  0.5676767703715555  1.0000
  O   O15       1.0  0.5746765324729424  0.42532503969645313  0.43232273974879115  1.0000
  O   O16       1.0  0.9253264795056564  0.07467361717549888  0.9323222036489156  1.0000
