data_image0
_chemical_formula_structural       Mn4H32C64N32
_chemical_formula_sum              "Mn4 H32 C64 N32"
_cell_length_a       9.860463849746427
_cell_length_b       10.840250646693631
_cell_length_c       14.458795472533359
_cell_angle_alpha    89.96837233926986
_cell_angle_beta     98.30860599663504
_cell_angle_gamma    90.00623889134715

_space_group_name_H-M_alt    "P 1"
_space_group_IT_number       1

loop_
  _space_group_symop_operation_xyz
  'x, y, z'

loop_
  _atom_site_type_symbol
  _atom_site_label
  _atom_site_symmetry_multiplicity
  _atom_site_fract_x
  _atom_site_fract_y
  _atom_site_fract_z
  _atom_site_occupancy
  Mn  Mn1       1.0  0.1515807396718358  0.4127787868702627  0.23660526890013495  1.0000
  Mn  Mn2       1.0  0.8487030976449007  0.9126257375796527  0.26299661551887965  1.0000
  Mn  Mn3       1.0  0.8487139045073491  0.5873236412353222  0.7631111733842814  1.0000
  Mn  Mn4       1.0  0.15155791861504037  0.08726727603075803  0.7367416521757375  1.0000
  H   H1        1.0  0.1212069945598842  0.7107828178573855  0.2579346009966059  1.0000
  H   H2        1.0  0.8787712306476578  0.21072771056342535  0.24212345297888754  1.0000
  H   H3        1.0  0.8788218369055655  0.2892484332847972  0.7421411824589581  1.0000
  H   H4        1.0  0.12123339988271911  0.7892205093164506  0.7579689727710033  1.0000
  H   H5        1.0  0.267526352958015  0.8889300518674406  0.3212474333998968  1.0000
  H   H6        1.0  0.7324981919360383  0.3889034543752672  0.1787562402451854  1.0000
  H   H7        1.0  0.7325432087312082  0.11112242552962213  0.6788094447816277  1.0000
  H   H8        1.0  0.2675621236517357  0.6110318666982765  0.8213003053394201  1.0000
  H   H9        1.0  0.5071473825754323  0.8477045892475843  0.4014897845556717  1.0000
  H   H10       1.0  0.4928705330419874  0.3477304622165961  0.09847978623913177  1.0000
  H   H11       1.0  0.49294017761333453  0.15232668910250882  0.5985200225792936  1.0000
  H   H12       1.0  0.5071973541266104  0.6522159447565272  0.9015340331814699  1.0000
  H   H13       1.0  0.6896221319175951  0.6913134673153325  0.4571879766168648  1.0000
  H   H14       1.0  0.3103579521995883  0.1913520291027737  0.04283686574468958  1.0000
  H   H15       1.0  0.3104053057278477  0.3087362409224213  0.5428675830262648  1.0000
  H   H16       1.0  0.6896568040591688  0.8085962010175507  0.9572290369990879  1.0000
  H   H17       1.0  0.7671120044041685  0.4729443710135258  0.4670309058491355  1.0000
  H   H18       1.0  0.2328836969837909  0.9730042321767912  0.03303965804649069  1.0000
  H   H19       1.0  0.23292317838336626  0.5270878049621573  0.533039371735235  1.0000
  H   H20       1.0  0.7671278047733806  0.026961523154959397  0.967031406206807  1.0000
  H   H21       1.0  0.7168905512642566  0.24817608362565124  0.43085251818524023  1.0000
  H   H22       1.0  0.283135956276503  0.7481685070069304  0.0692224168442337  1.0000
  H   H23       1.0  0.28317427115430144  0.7518699406156916  0.5691920633641061  1.0000
  H   H24       1.0  0.716896143441339  0.25177419900606424  0.9308163991627509  1.0000
  H   H25       1.0  0.5498029092211425  0.0891373079527895  0.36197148182785793  1.0000
  H   H26       1.0  0.45025858052452605  0.5891039387410616  0.13806986003368846  1.0000
  H   H27       1.0  0.45030540063768854  0.9108976519432802  0.638064198956279  1.0000
  H   H28       1.0  0.5498035055387475  0.41084522803395623  0.8619640544640815  1.0000
  H   H29       1.0  0.316484984040514  0.15758247036981035  0.2830326622599769  1.0000
  H   H30       1.0  0.6836602916067989  0.6574942240202334  0.21689631212060326  1.0000
  H   H31       1.0  0.6836325621469683  0.8424294390782735  0.7169722487023975  1.0000
  H   H32       1.0  0.3163976959677726  0.34246601256914033  0.7831371351886318  1.0000
  C   C1        1.0  0.22516135112054053  0.6960964966005819  0.29360956851601827  1.0000
  C   C2        1.0  0.7748348933019072  0.19605032759950805  0.20642620214235308  1.0000
  C   C3        1.0  0.774882096899546  0.30394859505143057  0.7064595685252968  1.0000
  C   C4        1.0  0.22518778893213204  0.803885907216092  0.7936489035922492  1.0000
  C   C5        1.0  0.3080845488659207  0.7956259195083251  0.3295268619109136  1.0000
  C   C6        1.0  0.6919274173934439  0.29560303727429743  0.17047755835057635  1.0000
  C   C7        1.0  0.691976747751731  0.20442563455641502  0.670531154335954  1.0000
  C   C8        1.0  0.3081205119277541  0.7043341276356048  0.829580349052037  1.0000
  C   C9        1.0  0.4393043236621636  0.7728143353842613  0.3740574066126498  1.0000
  C   C10       1.0  0.5607054557095026  0.27281881228020677  0.12594172793232158  1.0000
  C   C11       1.0  0.5607576280578712  0.22722615618084774  0.6259806243714863  1.0000
  C   C12       1.0  0.4393451105081922  0.7271266616379108  0.8740984903333808  1.0000
  C   C13       1.0  0.4881176846923126  0.6500926144515591  0.3819967508466816  1.0000
  C   C14       1.0  0.5118929132777835  0.1500969299565256  0.11802173869165238  1.0000
  C   C15       1.0  0.5119294697884982  0.34993956950238925  0.6180534392150036  1.0000
  C   C16       1.0  0.48814294624111204  0.8498522297091073  0.8820278792704455  1.0000
  C   C17       1.0  0.62240926508359  0.617606030456763  0.4268147860994346  1.0000
  C   C18       1.0  0.37758502335277194  0.11763390034921173  0.07321744687019556  1.0000
  C   C19       1.0  0.3776295566648997  0.38243445428386735  0.5732386077992259  1.0000
  C   C20       1.0  0.6224373348360145  0.8823152571516958  0.9268361739691711  1.0000
  C   C21       1.0  0.6652101854035948  0.49751871273655013  0.43199415969628757  1.0000
  C   C22       1.0  0.33478856352873265  0.9975450004277137  0.06805615066985378  1.0000
  C   C23       1.0  0.33482945762570177  0.5025199247554826  0.5680655538416204  1.0000
  C   C24       1.0  0.6652285584138866  0.0024060007287900007  0.9320003347908494  1.0000
  C   C25       1.0  0.5766457947149348  0.4002844087744748  0.392847152640492  1.0000
  C   C26       1.0  0.42338115762415635  0.9002736560078545  0.10718181130611976  1.0000
  C   C27       1.0  0.4234055036919671  0.5997551556324653  0.6072021223461304  1.0000
  C   C28       1.0  0.5766444778344422  0.09967089136731033  0.8928659561295618  1.0000
  C   C29       1.0  0.6145746984458285  0.2743992080018387  0.3974654234048245  1.0000
  C   C30       1.0  0.3854635504770841  0.7743879119808884  0.10257571590920378  1.0000
  C   C31       1.0  0.3854890766937729  0.7256449709994187  0.6025797315262122  1.0000
  C   C32       1.0  0.6145654301102113  0.22555756095753315  0.8974641293016601  1.0000
  C   C33       1.0  0.5214489392280512  0.1862608255468886  0.3596724987759571  1.0000
  C   C34       1.0  0.4786249074536428  0.6862222566204467  0.1403450363166243  1.0000
  C   C35       1.0  0.47863370890840423  0.8137704436295011  0.6403616555884566  1.0000
  C   C36       1.0  0.5214154574100576  0.31372690765287103  0.8596926404814551  1.0000
  C   C37       1.0  0.3916125391260792  0.2239778226476332  0.3157385103901191  1.0000
  C   C38       1.0  0.6084855096804347  0.7239140601498166  0.18421488263551564  1.0000
  C   C39       1.0  0.6084767991439363  0.776046072775266  0.6842798014305842  1.0000
  C   C40       1.0  0.3915561284603724  0.27604064185226923  0.8158153277599282  1.0000
  C   C41       1.0  0.4425005593678861  0.42920827514142007  0.3482387758266369  1.0000
  C   C42       1.0  0.5575454695788906  0.9291731925883299  0.15175333734523375  1.0000
  C   C43       1.0  0.557551989547889  0.5708239119086045  0.6518037246515219  1.0000
  C   C44       1.0  0.4424875645302747  0.07077781481241631  0.8482883500751865  1.0000
  C   C45       1.0  0.39735196433620246  0.5557491541439888  0.3431764008335989  1.0000
  C   C46       1.0  0.6026728485184022  0.05572150060587689  0.1568407802143241  1.0000
  C   C47       1.0  0.6026991984767632  0.4442885637649425  0.6568770098893566  1.0000
  C   C48       1.0  0.3973640356474347  0.9442267365821735  0.8432089541637209  1.0000
  C   C49       1.0  0.024706628534666205  0.3523460573398438  0.43169758482302706  1.0000
  C   C50       1.0  0.9751447409854634  0.8520897577833826  0.06811493922081978  1.0000
  C   C51       1.0  0.9751338330823316  0.647950927736737  0.5681948982993034  1.0000
  C   C52       1.0  0.024609009125114805  0.14765095905114833  0.9317871942239149  1.0000
  C   C53       1.0  0.0429331568189184  0.29306732161070675  0.5869462627468778  1.0000
  C   C54       1.0  0.9565094135975657  0.792690284203353  0.9128424542778504  1.0000
  C   C55       1.0  0.9567100583303156  0.7073034777351099  0.4128767900512428  1.0000
  C   C56       1.0  0.0429994487946388  0.20697942162917127  0.08696896397960069  1.0000
  C   C57       1.0  0.2356106961569964  0.4445962391942757  0.03213210425239049  1.0000
  C   C58       1.0  0.7642617523762282  0.9446304028062827  0.4679847100899862  1.0000
  C   C59       1.0  0.7644161073468749  0.5554230543043487  0.9678486766117016  1.0000
  C   C60       1.0  0.2357648474519252  0.05536490372131202  0.5320022787622634  1.0000
  C   C61       1.0  0.10413526377812592  0.453245690332679  0.8867721466924721  1.0000
  C   C62       1.0  0.8957132154794963  0.9532793086323753  0.6133742586605564  1.0000
  C   C63       1.0  0.8959130602710913  0.5469747057688538  0.11321103335458814  1.0000
  C   C64       1.0  0.10428777339092221  0.046539791022034586  0.38664099235019467  1.0000
  N   N1        1.0  0.2681369878533673  0.5797196311320931  0.3007699003921899  1.0000
  N   N2        1.0  0.731876360869215  0.07966135093631982  0.19926160485667305  1.0000
  N   N3        1.0  0.7319121709916488  0.42033007960736074  0.69928189695063  1.0000
  N   N4        1.0  0.2681511656077901  0.9202730473159806  0.8007912217072499  1.0000
  N   N5        1.0  0.3531325839249035  0.3416127025532917  0.3099200759571373  1.0000
  N   N6        1.0  0.6469565610403903  0.8415532784847817  0.19000755189335908  1.0000
  N   N7        1.0  0.646940337188667  0.6584102699613157  0.6900970656743795  1.0000
  N   N8        1.0  0.35307908732087867  0.15840234771849282  0.8100171363783701  1.0000
  N   N9        1.0  0.0540463661348127  0.37017449939147457  0.35657852606947665  1.0000
  N   N10       1.0  0.9461237718840324  0.8702844710962978  0.1432744182127834  1.0000
  N   N11       1.0  0.9459644999210327  0.629724898636731  0.6433236834453169  1.0000
  N   N12       1.0  0.05388098023047411  0.12987782479872587  0.8566574817937394  1.0000
  N   N13       1.0  0.9782173843984482  0.3373337892919821  0.5100874441601988  1.0000
  N   N14       1.0  0.021337380039511803  0.8366265777726981  0.9897163947730758  1.0000
  N   N15       1.0  0.021483972227059705  0.663480689864258  0.4898444959103472  1.0000
  N   N16       1.0  0.9782213014941165  0.16258645822964718  0.010206613102759783  1.0000
  N   N17       1.0  0.09173193068820497  0.25394135422417463  0.6606328299375192  1.0000
  N   N18       1.0  0.9076035398072334  0.7538088374071208  0.8391129330554035  1.0000
  N   N19       1.0  0.9078541014693045  0.7461056880007535  0.33908349471391824  1.0000
  N   N20       1.0  0.09187961113866547  0.24618747377499528  0.1605730542199169  1.0000
  N   N21       1.0  0.2679497275602357  0.4566849055174346  0.11370699274029047  1.0000
  N   N22       1.0  0.7319960765057587  0.9562967404380347  0.38637307429745243  1.0000
  N   N23       1.0  0.7320143733020572  0.5431138990260608  0.8863040783508254  1.0000
  N   N24       1.0  0.2680063029377777  0.0438498465258235  0.6136311976641622  1.0000
  N   N25       1.0  0.21250003866418152  0.42324231494587383  0.9433901573282099  1.0000
  N   N26       1.0  0.7870870860907928  0.9238070747216868  0.5568420582647134  1.0000
  N   N27       1.0  0.7876358497008836  0.5771026346526398  0.05655727101176208  1.0000
  N   N28       1.0  0.21298235773329566  0.07596130957034573  0.4431242413563438  1.0000
  N   N29       1.0  0.0113142544066775  0.47584396727521044  0.8280980310329864  1.0000
  N   N30       1.0  0.9886247252562724  0.9754918066977685  0.6720576145794721  1.0000
  N   N31       1.0  0.9886918627260003  0.5243450501196564  0.17191772467644023  1.0000
  N   N32       1.0  0.011326568138152004  0.0243245077537608  0.3279990417697717  1.0000
