data_image0
_chemical_formula_structural       Ca3H12C16N2O16
_chemical_formula_sum              "Ca3 H12 C16 N2 O16"
_cell_length_a       6.714180120182182
_cell_length_b       8.716134820782866
_cell_length_c       10.067171668660253
_cell_angle_alpha    108.82224997026627
_cell_angle_beta     99.25327494147712
_cell_angle_gamma    98.5484935559305

_space_group_name_H-M_alt    "P 1"
_space_group_IT_number       1

loop_
  _space_group_symop_operation_xyz
  'x, y, z'

loop_
  _atom_site_type_symbol
  _atom_site_label
  _atom_site_symmetry_multiplicity
  _atom_site_fract_x
  _atom_site_fract_y
  _atom_site_fract_z
  _atom_site_occupancy
  Ca  Ca1       1.0  0.5558814393604975  0.0555023700934214  0.32554893913462024  1.0000
  Ca  Ca2       1.0  0.44411834667047145  0.9444982836933845  0.6744520189204765  1.0000
  Ca  Ca3       1.0  1.2636283493418635e-07  0.5000000360600155  4.228609355869713e-07  1.0000
  H   H1        1.0  0.87595299984509  0.6963666797640896  0.3700837221826844  1.0000
  H   H2        1.0  0.12404490956086531  0.30363274872323837  0.6299157133989155  1.0000
  H   H3        1.0  0.7911890637593758  0.6682859550184687  0.7793647346350667  1.0000
  H   H4        1.0  0.20881222663447827  0.3317146823484052  0.22063636668576692  1.0000
  H   H5        1.0  0.45166787130475666  0.7385221591205421  0.11959265062482415  1.0000
  H   H6        1.0  0.5483330261246877  0.2614772357421131  0.8804060758130066  1.0000
  H   H7        1.0  0.4768127011003074  0.8304760660352386  0.007943798284195188  1.0000
  H   H8        1.0  0.5231870435261072  0.1695245861819572  0.9920551684203861  1.0000
  H   H9        1.0  0.021453852273680223  0.8574024203061512  0.13433426726955847  1.0000
  H   H10       1.0  0.9785489424830587  0.14259820064079068  0.8656669773170055  1.0000
  H   H11       1.0  0.781321809373864  0.7849202058304952  0.08055028685207317  1.0000
  H   H12       1.0  0.21867943961542835  0.21508042996676113  0.9194488231182519  1.0000
  C   C1        1.0  0.7445577020215809  0.4564759259615343  0.3743608151282062  1.0000
  C   C2        1.0  0.2554405589442226  0.5435247434603951  0.6256390039858958  1.0000
  C   C3        1.0  0.6482566628479277  0.32430491320272364  0.6723126801019604  1.0000
  C   C4        1.0  0.3517446275459264  0.6756957241641502  0.32768842121886627  1.0000
  C   C5        1.0  0.7081649137424435  0.4392178528561744  0.5940221036035426  1.0000
  C   C6        1.0  0.291834148466549  0.5607803182766135  0.4059770917113071  1.0000
  C   C7        1.0  0.8419806851775248  0.7054247184312458  0.5833604051202245  1.0000
  C   C8        1.0  0.15801908015116342  0.29457593457075854  0.41663955725961443  1.0000
  C   C9        1.0  0.8278174267634171  0.6266805968309157  0.4361679651760682  1.0000
  C   C10       1.0  0.17217932983950132  0.37332008901095287  0.5638317106722966  1.0000
  C   C11       1.0  0.7150113287156045  0.3618274613101917  0.21530849961404644  1.0000
  C   C12       1.0  0.2849891397327866  0.6381756735610223  0.7846922298307889  1.0000
  C   C13       1.0  0.9226863729639802  0.8901798853790196  0.6549936991371794  1.0000
  C   C14       1.0  0.07731304080486008  0.10981952668837637  0.3450058797101576  1.0000
  C   C15       1.0  0.781358560351286  0.6102910787861899  0.6642562235629015  1.0000
  C   C16       1.0  0.2186423784827198  0.38970831764607533  0.3357444942254304  1.0000
  N   N1        1.0  0.6852331784241769  0.3653924063597387  0.4517309027257782  1.0000
  N   N2        1.0  0.31476623534466336  0.6346070057076574  0.5482686761215662  1.0000
  O   O1        1.0  0.09488442257769242  0.9516227518220218  0.6387352731929853  1.0000
  O   O2        1.0  0.9051150118934287  0.04837666103017568  0.3612653013296169  1.0000
  O   O3        1.0  0.5545443244108695  0.17586785984099146  0.5955115178239156  1.0000
  O   O4        1.0  0.44545659372085555  0.8241315358064653  0.4044882042891587  1.0000
  O   O5        1.0  0.5397895477209501  0.832754780596339  0.10634187559325167  1.0000
  O   O6        1.0  0.46021170126834215  0.16724585520092455  0.8936572343770735  1.0000
  O   O7        1.0  0.6952818159977737  0.3834516980864109  0.8091916282540127  1.0000
  O   O8        1.0  0.3047191021339514  0.616547697561046  0.19080809385906863  1.0000
  O   O9        1.0  0.8086826316885478  0.9701237859656684  0.7287694417931334  1.0000
  O   O10       1.0  0.19131715434242122  0.029876867821137392  0.27123151626196323  1.0000
  O   O11       1.0  0.6145368136729416  0.2113755075549192  0.16787924896218703  1.0000
  O   O12       1.0  0.3854626207981795  0.7886239052972853  0.8321213255604081  1.0000
  O   O13       1.0  0.7901086138793545  0.4374404453125463  0.14112566739218121  1.0000
  O   O14       1.0  0.2098877911637231  0.5625589995947138  0.8588736249236818  1.0000
  O   O15       1.0  0.9168754833628868  0.7625200987612003  0.06098047512540458  1.0000
  O   O16       1.0  0.08312549687567378  0.23747929924067523  0.9390222340134358  1.0000
