data_image0
_chemical_formula_structural       Al4H44C68N4O20
_chemical_formula_sum              "Al4 H44 C68 N4 O20"
_cell_length_a       6.673969573098205
_cell_length_b       23.419350937452453
_cell_length_c       26.229270495997937
_cell_angle_alpha    78.44041096359359
_cell_angle_beta     90.13897129598466
_cell_angle_gamma    90.11973623632072

_space_group_name_H-M_alt    "P 1"
_space_group_IT_number       1

loop_
  _space_group_symop_operation_xyz
  'x, y, z'

loop_
  _atom_site_type_symbol
  _atom_site_label
  _atom_site_symmetry_multiplicity
  _atom_site_fract_x
  _atom_site_fract_y
  _atom_site_fract_z
  _atom_site_occupancy
  Al  Al1       1.0  0.7685312654918236  0.7500953311844327  0.7499413711224037  1.0000
  Al  Al2       1.0  0.23313554952352436  0.2499954153838004  0.2501333873992024  1.0000
  Al  Al3       1.0  0.26841500616689734  0.749850907075704  0.7499894045441663  1.0000
  Al  Al4       1.0  0.7332649930472499  0.25016620992050786  0.24941407841223648  1.0000
  H   H1        1.0  0.29391348483323304  0.3740159925054982  0.3406287376234189  1.0000
  H   H2        1.0  0.7049815689583028  0.6259518699414529  0.6602954398908735  1.0000
  H   H3        1.0  0.7854291758523645  0.1692604400429261  0.1220084224417448  1.0000
  H   H4        1.0  0.20735552207955274  0.8309673934140349  0.8748536148176881  1.0000
  H   H5        1.0  0.2878408956838286  0.4392699508002238  0.40530603990156777  1.0000
  H   H6        1.0  0.7080087030864349  0.5596984520484651  0.5963938808178638  1.0000
  H   H7        1.0  0.7679740647269215  0.1059803068469591  0.05560178669317389  1.0000
  H   H8        1.0  0.21450211420342674  0.8930478996292525  0.9420461899282626  1.0000
  H   H9        1.0  0.7438113595990998  0.5765590397375817  0.4991525280114216  1.0000
  H   H10       1.0  0.2503705559124897  0.42130271623041454  0.5025132185576027  1.0000
  H   H11       1.0  0.34948813698748193  0.8988208716570583  0.024551122443938297  1.0000
  H   H12       1.0  0.6297548464554269  0.09869599549563907  0.9767582023257475  1.0000
  H   H13       1.0  0.139969160573429  0.4641756919066894  0.9255489591715859  1.0000
  H   H14       1.0  0.867281569960298  0.5359531528611683  0.07428335059933029  1.0000
  H   H15       1.0  0.6177132934010389  0.036875945083707486  0.5759733214117873  1.0000
  H   H16       1.0  0.3876624278234005  0.9631923389764555  0.423692220439932  1.0000
  H   H17       1.0  0.663242650799923  0.5371422897138345  0.9787058460676049  1.0000
  H   H18       1.0  0.34396756900024184  0.4629650121860038  0.021127262226002592  1.0000
  H   H19       1.0  0.16472088066786486  0.9588304810506473  0.5167474798139436  1.0000
  H   H20       1.0  0.8404585139854748  0.04122014062781429  0.4829203457840876  1.0000
  H   H21       1.0  0.5203854795391224  0.3672640473490035  0.4423308535980084  1.0000
  H   H22       1.0  0.6369323736902219  0.41188780357231974  0.4769555055792197  1.0000
  H   H23       1.0  0.3570589721599264  0.5857928249170925  0.5235407625989906  1.0000
  H   H24       1.0  0.4750886440540541  0.6308971172443592  0.5573837006556346  1.0000
  H   H25       1.0  0.9925569488504423  0.06848116006790411  0.11430867210437157  1.0000
  H   H26       1.0  0.09387987337805734  0.03879575120087251  0.06620841272708589  1.0000
  H   H27       1.0  0.8827235446585819  0.9665980545423452  0.9341530274003061  1.0000
  H   H28       1.0  0.9942761585300348  0.9369125486576095  0.886538537460538  1.0000
  H   H29       1.0  0.6710092576292725  0.33519516197434035  0.37035151398615074  1.0000
  H   H30       1.0  0.32777985997527287  0.6637414100210038  0.6293918505376723  1.0000
  H   H31       1.0  0.1728102210036724  0.1267509488975094  0.16258353261907388  1.0000
  H   H32       1.0  0.8292498704847234  0.8691548951789374  0.8430336434713156  1.0000
  H   H33       1.0  0.7207278169337387  0.5112628270777863  0.4359807866030748  1.0000
  H   H34       1.0  0.27340922159685027  0.48661074068824933  0.5657028149681125  1.0000
  H   H35       1.0  0.3178236996320081  0.9659959801169435  0.08529933588001631  1.0000
  H   H36       1.0  0.6586118402933253  0.03186074591243935  0.915838256454613  1.0000
  H   H37       1.0  0.7918800473920129  0.4205074177241387  0.9821669503486703  1.0000
  H   H38       1.0  0.2153990788269624  0.579582357609077  0.017677886426341195  1.0000
  H   H39       1.0  0.27444845497636555  0.07675341339528069  0.5153891401330952  1.0000
  H   H40       1.0  0.7307356003484103  0.9233441482198756  0.4842961112025321  1.0000
  H   H41       1.0  0.517849278994362  0.6747986388944299  0.7735224050020475  1.0000
  H   H42       1.0  0.4836940124745583  0.3253442671239455  0.22621962063095677  1.0000
  H   H43       1.0  0.0200279390012312  0.8245159184764078  0.7243149099965079  1.0000
  H   H44       1.0  0.9810591853885101  0.17559819074702426  0.2758074164336577  1.0000
  C   C1        1.0  0.5218140068180405  0.8264978600083096  0.6724805625434696  1.0000
  C   C2        1.0  0.47983993441013706  0.1735997570689278  0.32721568516294036  1.0000
  C   C3        1.0  0.0153372908030036  0.673588682036609  0.8273393929494545  1.0000
  C   C4        1.0  0.987616601375841  0.3262976934078523  0.172327801132262  1.0000
  C   C5        1.0  0.5155215168885335  0.8122914413456641  0.8131348714467208  1.0000
  C   C6        1.0  0.4858354480135888  0.18731676459295  0.18697599129303197  1.0000
  C   C7        1.0  0.020789357037472204  0.6864574043363592  0.6876011894760976  1.0000
  C   C8        1.0  0.9795473496584325  0.3133899678959581  0.31229839380355157  1.0000
  C   C9        1.0  0.15793706251230333  0.3795786096687337  0.36202494722952844  1.0000
  C   C10       1.0  0.8402762032531969  0.619870845471425  0.6388309924084792  1.0000
  C   C11       1.0  0.6493359851986116  0.14543890579085433  0.1163589707466599  1.0000
  C   C12       1.0  0.34333684253283553  0.8536707375656506  0.8825763573912512  1.0000
  C   C13       1.0  0.15320542034988452  0.4155149055223005  0.3982500721907911  1.0000
  C   C14       1.0  0.8433397761444399  0.5833935146080905  0.6030390686902791  1.0000
  C   C15       1.0  0.638065719585967  0.11000672413695871  0.07982686899817538  1.0000
  C   C16       1.0  0.3491676375756115  0.8883366289720269  0.9197801204591087  1.0000
  C   C17       1.0  0.9783631404806529  0.4232096021114701  0.4258314914869956  1.0000
  C   C18       1.0  0.017401336378910105  0.5751643175426864  0.5753905656101495  1.0000
  C   C19       1.0  0.4658801575986332  0.07734044113302471  0.07336056311795149  1.0000
  C   C20       1.0  0.5214917582844836  0.9195073122305574  0.9288211102257762  1.0000
  C   C21       1.0  0.8014528612429644  0.393213437160732  0.4162571643985018  1.0000
  C   C22       1.0  0.19506080992542252  0.6051769362255542  0.5843256619710785  1.0000
  C   C23       1.0  0.2936768670310315  0.08353784212278009  0.10367525537372299  1.0000
  C   C24       1.0  0.699809773879338  0.9118409349999296  0.901344140732938  1.0000
  C   C25       1.0  0.8058914115516418  0.35804693024995526  0.37880097201912827  1.0000
  C   C26       1.0  0.19233678051497805  0.6408423253007456  0.6213962025489294  1.0000
  C   C27       1.0  0.304013706689645  0.12080472148984005  0.1394573219993376  1.0000
  C   C28       1.0  0.6940495283877868  0.8758768672693195  0.8643733224558047  1.0000
  C   C29       1.0  0.981623484168921  0.350974251691433  0.3520178293674547  1.0000
  C   C30       1.0  0.017398916836775403  0.64840939672046  0.6482924053568553  1.0000
  C   C31       1.0  0.47974434733488647  0.1505028649361577  0.1466751372751105  1.0000
  C   C32       1.0  0.5178493657826522  0.8480544353801988  0.85423421314416  1.0000
  C   C33       1.0  0.8408010033835398  0.5051554731187268  0.46484978333564436  1.0000
  C   C34       1.0  0.15317111558498914  0.49262843836144304  0.5368910876820436  1.0000
  C   C35       1.0  0.39139139296339936  0.980971143706576  0.047928166107943995  1.0000
  C   C36       1.0  0.5885981474355618  0.016427151543780456  0.9536679717581149  1.0000
  C   C37       1.0  0.8539813200496484  0.541946383919246  0.5003576530884432  1.0000
  C   C38       1.0  0.14000278448433795  0.4558490161788312  0.5013699771429714  1.0000
  C   C39       1.0  0.410558817756865  0.9428346222678244  0.013741780469032999  1.0000
  C   C40       1.0  0.5702127785027927  0.05452184215081254  0.9878633090730133  1.0000
  C   C41       1.0  0.009930526677763401  0.5365814719726458  0.5371608815040716  1.0000
  C   C42       1.0  0.9843592690388976  0.4613247092492401  0.4644550411758032  1.0000
  C   C43       1.0  0.5103249703324623  0.9593832981765902  0.9658427898311003  1.0000
  C   C44       1.0  0.4721727640477057  0.03771851522446211  0.036054029419091194  1.0000
  C   C45       1.0  0.07971945681752153  0.4795212215238608  0.9591252853649337  1.0000
  C   C46       1.0  0.9274772904981817  0.5205884609301137  0.04071053625624899  1.0000
  C   C47       1.0  0.5669014637979758  0.021153556284374982  0.5415782680534348  1.0000
  C   C48       1.0  0.4382735220218238  0.9789266138914955  0.45809300569654  1.0000
  C   C49       1.0  0.8853929152192779  0.4563750708328556  0.9896079416638557  1.0000
  C   C50       1.0  0.12179781927321905  0.5437392604434025  0.010214643577285198  1.0000
  C   C51       1.0  0.375215736459893  0.04213356004913748  0.5088906135678712  1.0000
  C   C52       1.0  0.6299697467326126  0.9579404324772726  0.49079117806895306  1.0000
  C   C53       1.0  0.987850503367284  0.3715301364773609  0.1262116872703558  1.0000
  C   C54       1.0  0.016240639577368703  0.6283564055022737  0.8734528621375616  1.0000
  C   C55       1.0  0.4849404693096418  0.12840479977000996  0.3734027799924178  1.0000
  C   C56       1.0  0.5182912588738304  0.871700632486416  0.6262898239765704  1.0000
  C   C57       1.0  0.19322662810835572  0.47996553595746866  0.011236726679882698  1.0000
  C   C58       1.0  0.8139251588149181  0.5201345464672543  0.9886057059681761  1.0000
  C   C59       1.0  0.6907655599871422  0.02246566624494762  0.49083876032974416  1.0000
  C   C60       1.0  0.3144124244164317  0.977620501483159  0.5088266693520183  1.0000
  C   C61       1.0  0.9991964023675098  0.4555871273633515  0.04292946619493421  1.0000
  C   C62       1.0  0.0079014171546206  0.5445110851228564  0.9569040005708018  1.0000
  C   C63       1.0  0.4990174948621232  0.04473753762601972  0.4569729136540629  1.0000
  C   C64       1.0  0.5060541426607089  0.9553587537908399  0.5426967337901517  1.0000
  C   C65       1.0  0.9921066900987585  0.4102911881676974  0.0875257842358508  1.0000
  C   C66       1.0  0.013959833040857504  0.5897138128742015  0.9122335100538449  1.0000
  C   C67       1.0  0.49184795963623884  0.08985146140232561  0.4122278962976438  1.0000
  C   C68       1.0  0.5126318098393697  0.910237905435821  0.587443075736111  1.0000
  N   N1        1.0  0.6239912474332954  0.3990175232712688  0.4423804915239842  1.0000
  N   N2        1.0  0.3716217313416195  0.5989733262336757  0.5579428044418363  1.0000
  N   N3        1.0  0.11767199549808542  0.0531199148009449  0.09974597979922349  1.0000
  N   N4        1.0  0.8802192075944077  0.9358786749610958  0.9120578925739409  1.0000
  O   O1        1.0  0.3447924781695519  0.795146350859881  0.8002328763803419  1.0000
  O   O2        1.0  0.6571853561152141  0.20539486894191583  0.1984501807094574  1.0000
  O   O3        1.0  0.8527317807224863  0.6975065400929525  0.7065162655340698  1.0000
  O   O4        1.0  0.14788909206928483  0.30294907753780353  0.2931198119879355  1.0000
  O   O5        1.0  0.6927646068055253  0.8062246477026778  0.6883884405340551  1.0000
  O   O6        1.0  0.3087294778190213  0.19445886558208522  0.31211000803222066  1.0000
  O   O7        1.0  0.18449055310723145  0.6886337082025449  0.8064230583192326  1.0000
  O   O8        1.0  0.8182995848149093  0.31159664004332654  0.1933099931066877  1.0000
  O   O9        1.0  0.6834446663628244  0.8024047969815058  0.7934440048615272  1.0000
  O   O10       1.0  0.3194794189596024  0.1969302007705808  0.2075257112366984  1.0000
  O   O11       1.0  0.1915934074620296  0.7042650247483166  0.6998108248677184  1.0000
  O   O12       1.0  0.8093132641436684  0.2952778173243829  0.30004400581498203  1.0000
  O   O13       1.0  0.844883794569462  0.6941834172777561  0.8112588244047103  1.0000
  O   O14       1.0  0.157628519797079  0.30533189272487254  0.18837498592479562  1.0000
  O   O15       1.0  0.3530244566788881  0.811219786400393  0.6934911971587212  1.0000
  O   O16       1.0  0.6476025977225107  0.18832240293819782  0.30535212860243627  1.0000
  O   O17       1.0  0.518434518286263  0.7145155374352542  0.7538506070449175  1.0000
  O   O18       1.0  0.4833571725853006  0.2855819802496812  0.24580407483649938  1.0000
  O   O19       1.0  0.018764235006138105  0.7856299594914092  0.7456985245832115  1.0000
  O   O20       1.0  0.9829208806913245  0.2143003845674088  0.2540606531230836  1.0000
