data_image0
_chemical_formula_structural       Tb2CoH32C16O20
_chemical_formula_sum              "Tb2 Co1 H32 C16 O20"
_cell_length_a       8.029995908198552
_cell_length_b       9.734337834375161
_cell_length_c       11.238832709083182
_cell_angle_alpha    111.74530558327663
_cell_angle_beta     105.66250394597925
_cell_angle_gamma    92.5269007786994

_space_group_name_H-M_alt    "P 1"
_space_group_IT_number       1

loop_
  _space_group_symop_operation_xyz
  'x, y, z'

loop_
  _atom_site_type_symbol
  _atom_site_label
  _atom_site_symmetry_multiplicity
  _atom_site_fract_x
  _atom_site_fract_y
  _atom_site_fract_z
  _atom_site_occupancy
  Tb  Tb1       1.0  0.8999085067164784  0.0648433035947065  0.6600660242917585  1.0000
  Tb  Tb2       1.0  0.10009466788626034  0.9351514687610701  0.33992879947054166  1.0000
  Co  Co1       1.0  0.9999951917354081  2.751907509002866e-06  1.9708456661366773e-06  1.0000
  H   H1        1.0  0.5780440799196284  0.9851965921247368  0.9330495582419543  1.0000
  H   H2        1.0  0.4219463291684491  0.014816468511497795  0.06694494312304758  1.0000
  H   H3        1.0  0.4059301865621804  0.0473095011365388  0.8328278281646035  1.0000
  H   H4        1.0  0.5940618372724985  0.9526979680116412  0.16715897170855232  1.0000
  H   H5        1.0  0.5833097738085371  0.17768712966864803  0.9672345188335781  1.0000
  H   H6        1.0  0.4166779903022259  0.8223249045111628  0.03275464384329741  1.0000
  H   H7        1.0  0.28940348775349617  0.6955919400414458  0.6700839563853122  1.0000
  H   H8        1.0  0.7106193129221197  0.3044201862963192  0.32994553352357053  1.0000
  H   H9        1.0  0.06693444858490952  0.6096276293230575  0.6045111394540682  1.0000
  H   H10       1.0  0.9330988628894303  0.3903709304379391  0.3955028161372736  1.0000
  H   H11       1.0  0.19817670347786281  0.6137133847449975  0.7624995537391257  1.0000
  H   H12       1.0  0.8018369631974309  0.3862911203010526  0.23751842810602142  1.0000
  H   H13       1.0  0.2787405299746337  0.3813897364744959  0.7689636336337458  1.0000
  H   H14       1.0  0.721263726634021  0.6186038989553568  0.23103015937915936  1.0000
  H   H15       1.0  0.3925170339754374  0.43498615571421334  0.6694207075897296  1.0000
  H   H16       1.0  0.607486998197082  0.565013071924369  0.3305784091412319  1.0000
  H   H17       1.0  0.4604239087588623  0.2964805323480988  0.7303179911932317  1.0000
  H   H18       1.0  0.5395810337144482  0.7035164553738156  0.26967792142500707  1.0000
  H   H19       1.0  0.39500852891303834  0.4164978789908388  0.9906446034200087  1.0000
  H   H20       1.0  0.6049732476329908  0.5835062761403408  0.009352320779697686  1.0000
  H   H21       1.0  0.44466175711630035  0.3522274319400722  0.12533297442247  1.0000
  H   H22       1.0  0.555332676614931  0.6477686462968462  0.8746595447933456  1.0000
  H   H23       1.0  0.2849710391146587  0.4710156398187451  0.11450358220402283  1.0000
  H   H24       1.0  0.715019258790825  0.5289815045910089  0.8855017640842175  1.0000
  H   H25       1.0  0.7653766961035728  0.307739507897061  0.6224778135311553  1.0000
  H   H26       1.0  0.23462165188469436  0.6922642753885029  0.37752692387424247  1.0000
  H   H27       1.0  0.9314736053305096  0.3980468489076685  0.7496855443200515  1.0000
  H   H28       1.0  0.06852605005561678  0.6019512649141561  0.2503194124658847  1.0000
  H   H29       1.0  0.5980463070065268  0.0507281139938627  0.41820610186462653  1.0000
  H   H30       1.0  0.40195260787229603  0.9492712233935452  0.5817910847013863  1.0000
  H   H31       1.0  0.7790754476438834  0.10423836795011  0.4012780874586568  1.0000
  H   H32       1.0  0.2209240009314541  0.8957575745460887  0.5987190022128956  1.0000
  C   C1        1.0  0.6562283954964343  0.054613951189068595  0.7961476329152859  1.0000
  C   C2        1.0  0.3437681641284839  0.9453922012519629  0.2038494849226565  1.0000
  C   C3        1.0  0.5460368630991111  0.06495917574304849  0.8860219663351642  1.0000
  C   C4        1.0  0.4539568944562689  0.9350505001073086  0.11396680249086422  1.0000
  C   C5        1.0  0.11511899577065061  0.8230602123448704  0.7679004564431366  1.0000
  C   C6        1.0  0.8848878726212631  0.17693550054835328  0.2321061292028119  1.0000
  C   C7        1.0  0.1972007473627784  0.244542401782283  0.9714533651305217  1.0000
  C   C8        1.0  0.8027926931550338  0.755450246186882  0.028544955352344744  1.0000
  C   C9        1.0  0.17237950461944956  0.6764637160184463  0.6982504042722651  1.0000
  C   C10       1.0  0.8276353816170144  0.3235407464284563  0.3017696002837482  1.0000
  C   C11       1.0  0.3452975185242906  0.3431788221915326  0.6921089749329922  1.0000
  C   C12       1.0  0.654705930233149  0.6568170791468829  0.30788538190184056  1.0000
  C   C13       1.0  0.2307844648946187  0.21948956860401841  0.5656167454389447  1.0000
  C   C14       1.0  0.769219498022359  0.7805085820357149  0.4343775576378945  1.0000
  C   C15       1.0  0.3409380071414745  0.37851744802021875  0.05495042888638582  1.0000
  C   C16       1.0  0.65905015994624  0.6214809192344363  0.9450495249557349  1.0000
  O   O1        1.0  0.09733985747024579  0.1423985578721911  0.5683031175647599  1.0000
  O   O2        1.0  0.9026626458807314  0.8575985150480108  0.43168874963174614  1.0000
  O   O3        1.0  0.8166536320561022  0.038322745268203576  0.8342043805504673  1.0000
  O   O4        1.0  0.18334555300916114  0.9616900778217713  0.16579811911208242  1.0000
  O   O5        1.0  0.26962775194538574  0.1848100013392369  0.45752644259410863  1.0000
  O   O6        1.0  0.7303762451214552  0.8151881579644638  0.5424669803857965  1.0000
  O   O7        1.0  0.10831610034160376  0.9187492627349414  0.7132205432160531  1.0000
  O   O8        1.0  0.891679470993985  0.08124216238932999  0.28678316971294027  1.0000
  O   O9        1.0  0.5961008891881932  0.06614095781586829  0.6828322680013129  1.0000
  O   O10       1.0  0.40390504649852227  0.9338594601737923  0.31715784334987507  1.0000
  O   O11       1.0  0.184521051054169  0.1515282147078594  0.02521788977278309  1.0000
  O   O12       1.0  0.8154610542892016  0.8484724935483143  0.9747842181140454  1.0000
  O   O13       1.0  0.10155597596529728  0.23761397439209023  0.8580974251200146  1.0000
  O   O14       1.0  0.8984498963457738  0.7623751292206292  0.14189524024902755  1.0000
  O   O15       1.0  0.0774299909692573  0.839355254850922  0.8739562196202327  1.0000
  O   O16       1.0  0.9225591215249267  0.1606419408219395  0.1260462238602145  1.0000
  O   O17       1.0  0.8255345606200561  0.3250970865273997  0.716714265718508  1.0000
  O   O18       1.0  0.17446725877788796  0.6748987534425768  0.2832886295686378  1.0000
  O   O19       1.0  0.7162576426742575  0.11415110714510492  0.46912205350610486  1.0000
  O   O20       1.0  0.2837423200606111  0.8858470846524114  0.5308749824074537  1.0000
