data_image0
_chemical_formula_structural       Al4H16C68N4Cl16O28
_chemical_formula_sum              "Al4 H16 C68 N4 Cl16 O28"
_cell_length_a       6.638172137890567
_cell_length_b       21.56621649794781
_cell_length_c       24.29053777821907
_cell_angle_alpha    99.03055430317771
_cell_angle_beta     90.00419100381394
_cell_angle_gamma    90.00847816118751

_space_group_name_H-M_alt    "P 1"
_space_group_IT_number       1

loop_
  _space_group_symop_operation_xyz
  'x, y, z'

loop_
  _atom_site_type_symbol
  _atom_site_label
  _atom_site_symmetry_multiplicity
  _atom_site_fract_x
  _atom_site_fract_y
  _atom_site_fract_z
  _atom_site_occupancy
  Al  Al1       1.0  0.20060778126557471  0.24930783223730665  0.7483275747428664  1.0000
  Al  Al2       1.0  0.7927921158417771  0.7508184517714155  0.251231391333512  1.0000
  Al  Al3       1.0  0.700631841058758  0.2506698127477449  0.7516407449537325  1.0000
  Al  Al4       1.0  0.29277865415355814  0.7491817364047861  0.24876030236359983  1.0000
  H   H1        1.0  0.3198276738347018  0.5921100783250495  0.33652641345086215  1.0000
  H   H2        1.0  0.6738000476085162  0.4088184253812699  0.663925581541264  1.0000
  H   H3        1.0  0.8198845193970499  0.9079295967410275  0.16348046786179543  1.0000
  H   H4        1.0  0.17362959903112338  0.09119667317619935  0.8360950134877145  1.0000
  H   H5        1.0  0.7622730469152756  0.6794334149056097  0.39801060343906863  1.0000
  H   H6        1.0  0.23056362415305637  0.3208874902227237  0.602404102328066  1.0000
  H   H7        1.0  0.26217096841979526  0.8205979227765852  0.1020066026846749  1.0000
  H   H8        1.0  0.7305418905881635  0.17913939076060365  0.8975736248137383  1.0000
  H   H9        1.0  0.785356484513464  0.6460470879189445  0.9675485865337026  1.0000
  H   H10       1.0  0.2873499928916914  0.3652443740332387  0.022727058364587497  1.0000
  H   H11       1.0  0.2878033041165509  0.8537237477444747  0.5326765932159391  1.0000
  H   H12       1.0  0.7855583242037908  0.13504559851369896  0.47697162105657054  1.0000
  H   H13       1.0  0.4474504115118591  0.3329906997135696  0.7618647625884807  1.0000
  H   H14       1.0  0.5464615283262333  0.6670810772689536  0.23682330132935192  1.0000
  H   H15       1.0  0.9473754104885114  0.16697991784521102  0.7382640622593829  1.0000
  H   H16       1.0  0.046518797896560195  0.8329365782006021  0.26298829187138756  1.0000
  C   C1        1.0  0.4521795529118505  0.16979127878153832  0.668157506378087  1.0000
  C   C2        1.0  0.5399157433484375  0.8300926583634479  0.3316706279402838  1.0000
  C   C3        1.0  0.9522015915097197  0.33020238201656593  0.8318054677361462  1.0000
  C   C4        1.0  0.0398501200787393  0.6698922702393375  0.16832054210713215  1.0000
  C   C5        1.0  0.44974929056942864  0.17927870331845241  0.818029029186569  1.0000
  C   C6        1.0  0.5435946978576209  0.8202019770367033  0.18155773878989123  1.0000
  C   C7        1.0  0.9498308326967757  0.32070510022575144  0.6819468239130799  1.0000
  C   C8        1.0  0.04348644580817048  0.6798256732142393  0.3184459789105177  1.0000
  C   C9        1.0  0.18102464496193696  0.554890583384328  0.4046987580516942  1.0000
  C   C10       1.0  0.8129494813065392  0.4457909664121902  0.5956918038927342  1.0000
  C   C11       1.0  0.6809996635515245  0.9451582665442121  0.09531776588615772  1.0000
  C   C12       1.0  0.3128308945584165  0.0542490955094053  0.9043337117586604  1.0000
  C   C13       1.0  0.19426378683714765  0.5954847521687228  0.3656576064469378  1.0000
  C   C14       1.0  0.7991198065001226  0.4051754551248338  0.6347121252317649  1.0000
  C   C15       1.0  0.694264803226254  0.9045555010760677  0.13435715451102231  1.0000
  C   C16       1.0  0.29897824536477197  0.09485012608976011  0.8653080767983639  1.0000
  C   C17       1.0  0.0411623427556265  0.6394806762250412  0.36292459358392654  1.0000
  C   C18       1.0  0.9515658948661991  0.3609881206619434  0.6374249089425704  1.0000
  C   C19       1.0  0.5411659875180561  0.8605481498930418  0.13708365306487744  1.0000
  C   C20       1.0  0.45147754155837555  0.13902469079736332  0.8625676306358656  1.0000
  C   C21       1.0  0.8801565037804904  0.6449376505624755  0.40062321729628547  1.0000
  C   C22       1.0  0.11279767485562786  0.355422137296742  0.5997572592835781  1.0000
  C   C23       1.0  0.3800873634670267  0.8550936997552865  0.09939635051790671  1.0000
  C   C24       1.0  0.6127640845588758  0.14460299665131526  0.9002343713547633  1.0000
  C   C25       1.0  0.873266351942725  0.6065433939562155  0.4413956476650683  1.0000
  C   C26       1.0  0.12043655449843979  0.39388371835991626  0.5590477210035374  1.0000
  C   C27       1.0  0.3732041524410619  0.893509851950185  0.058631238780414215  1.0000
  C   C28       1.0  0.620403516460925  0.10616823494019913  0.9409574022773627  1.0000
  C   C29       1.0  0.020612578645362593  0.5592080688358082  0.4438848747652316  1.0000
  C   C30       1.0  0.9735558478961293  0.44133773300755763  0.5565479470570338  1.0000
  C   C31       1.0  0.5205538275027023  0.9408465399157039  0.05613995294222461  1.0000
  C   C32       1.0  0.4734921851911196  0.058705333277821146  0.9434767648694021  1.0000
  C   C33       1.0  0.005984420960004398  0.5181510147386775  0.48323003866823205  1.0000
  C   C34       1.0  0.9887655114108325  0.4824359235890299  0.5172644509603899  1.0000
  C   C35       1.0  0.5059299576271954  0.9819061034757721  0.016796526259824408  1.0000
  C   C36       1.0  0.4887171044914068  0.017606421316443726  0.9827606203876657  1.0000
  C   C37       1.0  0.07005527540133728  0.37093654003915344  0.929192396944089  1.0000
  C   C38       1.0  0.9507747541126504  0.6341304189717222  0.06744592560603022  1.0000
  C   C39       1.0  0.5694843151726018  0.12916263988928736  0.5707039132405428  1.0000
  C   C40       1.0  0.4515609160029257  0.8657948761156934  0.4326079524993461  1.0000
  C   C41       1.0  0.9640756195460866  0.38126370140572163  0.8817558694369014  1.0000
  C   C42       1.0  0.036139814703169286  0.6209266519288975  0.11680905503406792  1.0000
  C   C43       1.0  0.4639807232997624  0.11876024078908645  0.6181948428220353  1.0000
  C   C44       1.0  0.5362686021380937  0.8790589497199763  0.3831841122339057  1.0000
  C   C45       1.0  0.8762975769726891  0.4401969526178321  0.880176871737639  1.0000
  C   C46       1.0  0.11985938693524638  0.5615623774672827  0.1183376081413172  1.0000
  C   C47       1.0  0.3766442849579121  0.05977415089430593  0.6198039380924741  1.0000
  C   C48       1.0  0.6193509828677576  0.9385024276537168  0.38158697733955904  1.0000
  C   C49       1.0  0.9054404779412335  0.49131328271175806  0.9238042516600873  1.0000
  C   C50       1.0  0.13222865215294624  0.5158108652411711  0.06999899052738102  1.0000
  C   C51       1.0  0.40618320595760327  0.008659821912317523  0.5762072664767929  1.0000
  C   C52       1.0  0.6316210373537883  0.9843001112565234  0.4298878944287098  1.0000
  C   C53       1.0  0.009550538178544298  0.4795777921221713  0.9730651081006629  1.0000
  C   C54       1.0  0.028045139756215993  0.5276210982342847  0.020897209507900503  1.0000
  C   C55       1.0  0.5096185564185092  0.020461595085436126  0.5268682062685458  1.0000
  C   C56       1.0  0.5281193520835643  0.9724055650447527  0.47905236093493647  1.0000
  C   C57       1.0  0.0928631411109535  0.41886132392014036  0.9754861070329498  1.0000
  C   C58       1.0  0.9379005008225646  0.5875880108283198  0.019704497925054902  1.0000
  C   C59       1.0  0.5921769301410079  0.08126368246300333  0.5243861123476635  1.0000
  C   C60       1.0  0.43866301625956783  0.9123480464758204  0.48034239389550504  1.0000
  C   C61       1.0  0.8339935590124055  0.5541303637273245  0.9240532146691791  1.0000
  C   C62       1.0  0.23365271043554964  0.45668126193672975  0.06655143352056571  1.0000
  C   C63       1.0  0.33563557199672533  0.9457515758296253  0.5760716669669962  1.0000
  C   C64       1.0  0.7323873284894444  0.04354121517011582  0.4332436216776189  1.0000
  C   C65       1.0  0.8440832910747956  0.5994353553393595  0.9698930851697798  1.0000
  C   C66       1.0  0.2085842549143067  0.4094886103581103  0.022748893214704007  1.0000
  C   C67       1.0  0.3457050016760022  0.9004294509788052  0.5302478960042337  1.0000
  C   C68       1.0  0.7072627471206585  0.09073279688850994  0.477030145256407  1.0000
  N   N1        1.0  0.7654085782576627  0.5776538519881526  0.8731046216256503  1.0000
  N   N2        1.0  0.3969145751954172  0.44622596238500717  0.10553145337237883  1.0000
  N   N3        1.0  0.26868475334686076  0.9221738393655842  0.62715255650609  1.0000
  N   N4        1.0  0.8951881266284826  0.05409240067720593  0.39416936120193213  1.0000
  Cl  Cl1       1.0  0.361177800904933  0.4976532295545084  0.40513878020416894  1.0000
  Cl  Cl2       1.0  0.6335812282872268  0.5031892864787508  0.5952833026457683  1.0000
  Cl  Cl3       1.0  0.8612415387477694  0.0024062888440923086  0.09487377554172843  1.0000
  Cl  Cl4       1.0  0.13339492085376747  0.9968485087798271  0.9047645357412436  1.0000
  Cl  Cl5       1.0  0.6815532892219948  0.6161684125900706  0.4896134225002983  1.0000
  Cl  Cl6       1.0  0.312661824025369  0.38424525631628376  0.510970472346287  1.0000
  Cl  Cl7       1.0  0.18145020363139247  0.883873691526226  0.010409374267140902  1.0000
  Cl  Cl8       1.0  0.8126410186932701  0.11583354877742386  0.9890383183317655  1.0000
  Cl  Cl9       1.0  0.16733515165501697  0.29731767122631686  0.9319461264651779  1.0000
  Cl  Cl10      1.0  0.8593491984991741  0.7085432971554299  0.06525217289418352  1.0000
  Cl  Cl11      1.0  0.6664024918220549  0.20284046473329204  0.567944486333417  1.0000
  Cl  Cl12      1.0  0.3609363419340567  0.7912929823993409  0.43486636561328146  1.0000
  Cl  Cl13      1.0  0.726486433777211  0.4482380378640088  0.8238057192064262  1.0000
  Cl  Cl14      1.0  0.18985198259998265  0.5440386543610601  0.18245010541838982  1.0000
  Cl  Cl15      1.0  0.2269060732553498  0.05163880063747685  0.6761687447732572  1.0000
  Cl  Cl16      1.0  0.6884644468059375  0.9560465724472492  0.31740438504418483  1.0000
  O   O1        1.0  0.6211756691916931  0.19737300219173193  0.8034004652602108  1.0000
  O   O2        1.0  0.3725570632652263  0.8021922114164116  0.19658271611598374  1.0000
  O   O3        1.0  0.12124610934263556  0.30253549324928747  0.6965097725520267  1.0000
  O   O4        1.0  0.8724672843262552  0.6979169615346593  0.30350579815757334  1.0000
  O   O5        1.0  0.27985991892317225  0.19045787020565544  0.6835944455998089  1.0000
  O   O6        1.0  0.7124931479582697  0.8109004359626797  0.3147177974213805  1.0000
  O   O7        1.0  0.7798645892025532  0.3094584791797176  0.8164337616366668  1.0000
  O   O8        1.0  0.21249728342142754  0.6891814161481663  0.18520103705260035  1.0000
  O   O9        1.0  0.2803414702938625  0.19173817723794437  0.797466739559205  1.0000
  O   O10       1.0  0.713730007960514  0.8076401513074742  0.20150892842644202  1.0000
  O   O11       1.0  0.7804722317574145  0.3083111967239277  0.7025792638537354  1.0000
  O   O12       1.0  0.21356071404513693  0.6922964383122903  0.29839591549392713  1.0000
  O   O13       1.0  0.11980793187786527  0.3136855465465019  0.8091726359334502  1.0000
  O   O14       1.0  0.8713323558083557  0.686889359960894  0.18990634575937554  1.0000
  O   O15       1.0  0.6198345059963727  0.186365973191343  0.690739081311321  1.0000
  O   O16       1.0  0.3712921730358899  0.8130021618519764  0.3101631981329831  1.0000
  O   O17       1.0  0.4500807160192152  0.28759287016294627  0.7538344702987417  1.0000
  O   O18       1.0  0.5435798749567694  0.7123671264857379  0.24655061867747466  1.0000
  O   O19       1.0  0.9500387106269057  0.21238484420466366  0.7461409788475637  1.0000
  O   O20       1.0  0.0436157469301293  0.7876340590623772  0.25342686254096247  1.0000
  O   O21       1.0  0.5925746105872206  0.5990130590549684  0.873123134744944  1.0000
  O   O22       1.0  0.8924182076367159  0.5772088268337683  0.8358313626494438  1.0000
  O   O23       1.0  0.3932062066322499  0.39746860987185784  0.12621789809194442  1.0000
  O   O24       1.0  0.5328643422263184  0.486257875016186  0.11157253467909813  1.0000
  O   O25       1.0  0.09666461257664587  0.9002028813276511  0.6273045048933386  1.0000
  O   O26       1.0  0.39626192281689737  0.923205285320478  0.6643627197108091  1.0000
  O   O27       1.0  0.8908671653981199  0.10282466673633912  0.3734549148146585  1.0000
  O   O28       1.0  0.03136481098060529  0.01414966913025492  0.3880724926175533  1.0000
