data_image0
_chemical_formula_structural       Na4P2H26C12O20
_chemical_formula_sum              "Na4 P2 H26 C12 O20"
_cell_length_a       6.2957080265442995
_cell_length_b       8.576166280750172
_cell_length_c       11.376839041301068
_cell_angle_alpha    90.70389400931357
_cell_angle_beta     89.33979836502922
_cell_angle_gamma    94.44159386053784

_space_group_name_H-M_alt    "P 1"
_space_group_IT_number       1

loop_
  _space_group_symop_operation_xyz
  'x, y, z'

loop_
  _atom_site_type_symbol
  _atom_site_label
  _atom_site_symmetry_multiplicity
  _atom_site_fract_x
  _atom_site_fract_y
  _atom_site_fract_z
  _atom_site_occupancy
  Na  Na1       1.0  0.850709131241771  0.6286984047452646  0.1483851753213656  1.0000
  Na  Na2       1.0  0.14928835738719215  0.3713006872074871  0.8516142619388204  1.0000
  Na  Na3       1.0  0.8021992573241903  0.8569317651527797  0.3946794607259888  1.0000
  Na  Na4       1.0  0.19779833216937695  0.14306848175162654  0.605320876371543  1.0000
  P   P1        1.0  0.3422753684724286  0.7237184413126201  0.22743828367377006  1.0000
  P   P2        1.0  0.6577206769138186  0.2762818350651486  0.77256116257373  1.0000
  H   H1        1.0  0.2716326181075742  0.1107235462108065  0.09118720077582758  1.0000
  H   H2        1.0  0.7283622113748008  0.8892791129640897  0.9088105180205304  1.0000
  H   H3        1.0  0.6235729870021486  0.2881019747297628  0.1598555848910763  1.0000
  H   H4        1.0  0.3764245859429636  0.7118971461699601  0.8401420948519129  1.0000
  H   H5        1.0  0.6916316463266979  0.3426173605184317  0.029299938556015096  1.0000
  H   H6        1.0  0.3083661117991737  0.6573829442799166  0.9706968835071236  1.0000
  H   H7        1.0  0.9936514231467372  0.6767323620279201  0.9135155217178121  1.0000
  H   H8        1.0  0.0063461076402973  0.3232667443983104  0.08648303678377539  1.0000
  H   H9        1.0  0.7912917166119939  0.5602840096547509  0.9118085131471075  1.0000
  H   H10       1.0  0.2087056455427501  0.4397150388775373  0.08819356038888058  1.0000
  H   H11       1.0  0.2599288925538303  0.3934642436187231  0.273434424260671  1.0000
  H   H12       1.0  0.7400704262278097  0.606537157710946  0.7265659460070566  1.0000
  H   H13       1.0  0.4979558245846079  0.9999638928951596  0.10704658383334478  1.0000
  H   H14       1.0  0.502040734185833  3.992070500660335e-05  0.8929511681332013  1.0000
  H   H15       1.0  0.27237482117605083  0.9171835684726588  0.02935029434481609  1.0000
  H   H16       1.0  0.7276212242102034  0.0828167079051028  0.9706491519026766  1.0000
  H   H17       1.0  0.48520494190859853  0.46415351284171885  0.3579020630196296  1.0000
  H   H18       1.0  0.5147912043422593  0.5358479184876969  0.6420982830652164  1.0000
  H   H19       1.0  0.9474468592312703  0.9842867795986905  0.1731958770377346  1.0000
  H   H20       1.0  0.052548815793471704  0.015711128981820404  0.8268052845694597  1.0000
  H   H21       1.0  0.5106139296931714  0.15334240325469037  0.40933984912707894  1.0000
  H   H22       1.0  0.4893909347204897  0.846653062002794  0.5906622216298557  1.0000
  H   H23       1.0  0.24592581089851248  0.3876580354099488  0.42900556502161885  1.0000
  H   H24       1.0  0.7540739204027104  0.6123457481904638  0.570992211127809  1.0000
  H   H25       1.0  0.9384399120882918  0.5092147902610121  0.38732722642372847  1.0000
  H   H26       1.0  0.06155891891877732  0.4907819623150616  0.6126713020117974  1.0000
  C   C1        1.0  0.22494416803836975  0.6184685911121975  0.3588176769447884  1.0000
  C   C2        1.0  0.7750582224094488  0.38153162526606366  0.6411818176684676  1.0000
  C   C3        1.0  0.2857978412305897  0.022691163003621298  0.32480702361154806  1.0000
  C   C4        1.0  0.7142214386395198  0.9773159778206877  0.6751892033542217  1.0000
  C   C5        1.0  0.23080395641283508  0.9215064738932955  0.216518212305715  1.0000
  C   C6        1.0  0.7691923494091526  0.0784972528659509  0.7834848122124285  1.0000
  C   C7        1.0  0.287391751951418  0.693506192341836  0.4789933387251039  1.0000
  C   C8        1.0  0.7125886951714122  0.30648704327560244  0.5210155385715111  1.0000
  C   C9        1.0  0.32411552273021016  0.9926679671597823  0.10382160743881029  1.0000
  C   C10       1.0  0.6758823528087133  0.007334618594903501  0.8961787718162242  1.0000
  C   C11       1.0  0.31082790755740314  0.4558603677709954  0.3542469930303653  1.0000
  C   C12       1.0  0.6891618514738126  0.5441411090844427  0.645754183447316  1.0000
  O   O1        1.0  0.002986708308540622  0.892414722513216  0.20782818021214666  1.0000
  O   O2        1.0  0.997010855575411  0.10758663592238091  0.7921756929985406  1.0000
  O   O3        1.0  0.5808277569316473  0.7479455968433798  0.2367039100585373  1.0000
  O   O4        1.0  0.4191745657484772  0.2520557165925936  0.763299999426472  1.0000
  O   O5        1.0  0.4578986060055216  0.7865253645389599  0.4827457998306456  1.0000
  O   O6        1.0  0.5421080133058283  0.2134701436125894  0.5172527679833365  1.0000
  O   O7        1.0  0.2506845733189067  0.6335589189282161  0.12024283502549339  1.0000
  O   O8        1.0  0.7493162308635207  0.36644131244992195  0.8797566474963217  1.0000
  O   O9        1.0  0.478396631839118  0.0931793294748147  0.32281225239336203  1.0000
  O   O10       1.0  0.521606747173756  0.9068173057342008  0.6771907061094851  1.0000
  O   O11       1.0  0.9972965887214328  0.6077233136228911  0.34725652936745627  1.0000
  O   O12       1.0  0.0027051618679720998  0.39227332211251553  0.6527472958025484  1.0000
  O   O13       1.0  0.1541764724013532  0.03226715873273629  0.406384398218087  1.0000
  O   O14       1.0  0.8458246765329634  0.9677365519738572  0.5936169050571819  1.0000
  O   O15       1.0  0.1739075167276596  0.6578135391343168  0.5672744300268349  1.0000
  O   O16       1.0  0.8261122729941023  0.3421831342312629  0.43271722552863406  1.0000
  O   O17       1.0  0.7274412811725596  0.3530845180836195  0.11437832189118069  1.0000
  O   O18       1.0  0.27255647695330515  0.6469157867147287  0.8856185001719578  1.0000
  O   O19       1.0  0.8446106511347437  0.6653105743353294  0.94216852896011  1.0000
  O   O20       1.0  0.1553884824661438  0.3346896430957074  0.057832698987461094  1.0000
