data_image0
_chemical_formula_structural       Zn4H22C28N18O8
_chemical_formula_sum              "Zn4 H22 C28 N18 O8"
_cell_length_a       7.7745382893130435
_cell_length_b       10.192260985663825
_cell_length_c       13.372961319282256
_cell_angle_alpha    110.84051959805848
_cell_angle_beta     105.55418591673956
_cell_angle_gamma    93.57765959513426

_space_group_name_H-M_alt    "P 1"
_space_group_IT_number       1

loop_
  _space_group_symop_operation_xyz
  'x, y, z'

loop_
  _atom_site_type_symbol
  _atom_site_label
  _atom_site_symmetry_multiplicity
  _atom_site_fract_x
  _atom_site_fract_y
  _atom_site_fract_z
  _atom_site_occupancy
  Zn  Zn1       1.0  0.6284873949398673  0.8775693955737008  0.2557095843948859  1.0000
  Zn  Zn2       1.0  0.37151268610442406  0.12243062741854518  0.7442883148162239  1.0000
  Zn  Zn3       1.0  0.9999992085954618  0.5000000625374099  0.49999936966308683  1.0000
  Zn  Zn4       1.0  0.4999985898303335  0.4999994842917631  0.49999896069793703  1.0000
  H   H1        1.0  0.036783085220754706  0.2956167672917119  0.07902431118669992  1.0000
  H   H2        1.0  0.9632185867001581  0.7043843604896196  0.9209763679717895  1.0000
  H   H3        1.0  0.8289007798546918  0.3508545083675401  0.20545194531613484  1.0000
  H   H4        1.0  0.17109593180862956  0.649142340415075  0.7945460938745799  1.0000
  H   H5        1.0  0.37219904183344715  0.36694286836142714  0.20289257623424822  1.0000
  H   H6        1.0  0.6278009079713911  0.63306252356724  0.7971089588172974  1.0000
  H   H7        1.0  0.9324925746856467  0.1503439727400107  0.36943260883612794  1.0000
  H   H8        1.0  0.06750886632798363  0.8496561014921368  0.630568505284913  1.0000
  H   H9        1.0  0.3881430520069103  0.140143664150159  0.35843674804598186  1.0000
  H   H10       1.0  0.6118568043129002  0.8598553179954391  0.6415623382579341  1.0000
  H   H11       1.0  0.9778867347447932  0.7370072651333929  0.3731997994647786  1.0000
  H   H12       1.0  0.022111536881183693  0.2629906249256493  0.6267972590220198  1.0000
  H   H13       1.0  0.4459242939916379  0.7385537117557776  0.3863505300884001  1.0000
  H   H14       1.0  0.5540757870526535  0.26144631123647605  0.6136473691227169  1.0000
  H   H15       1.0  0.15137634066429945  0.9321551861041119  0.15912396620665709  1.0000
  H   H16       1.0  0.848626878853679  0.06784695754858922  0.8408742279873992  1.0000
  H   H17       1.0  0.6677221654573914  0.004265999162086605  0.9508844768035729  1.0000
  H   H18       1.0  0.3322791072200388  0.9957393677912875  0.04911576037634542  1.0000
  H   H19       1.0  0.023113250967206466  0.7219425499369904  0.16470635965182373  1.0000
  H   H20       1.0  0.9768865304159393  0.27805006053313264  0.8352925342952491  1.0000
  H   H21       1.0  0.2800958506764956  0.4317908563773329  0.9526525831882895  1.0000
  H   H22       1.0  0.7199035376459619  0.5682060059673615  0.04734662091046719  1.0000
  C   C1        1.0  0.9758451337441018  0.3686552515117398  0.23412486838475396  1.0000
  C   C2        1.0  0.024153381154739948  0.631343717501551  0.7658732594000173  1.0000
  C   C3        1.0  0.25532649320084033  0.37690597913175594  0.2329733798096002  1.0000
  C   C4        1.0  0.7446692199821995  0.6230983579584047  0.7670279710378125  1.0000
  C   C5        1.0  0.8067340729492685  0.18365925091024593  0.3803302393654136  1.0000
  C   C6        1.0  0.19326578955332957  0.8163397439378812  0.6196695990687646  1.0000
  C   C7        1.0  0.5301989754930645  0.1778418710101022  0.37400812826359703  1.0000
  C   C8        1.0  0.4697997826786349  0.8221581769574372  0.6259910688191399  1.0000
  C   C9        1.0  0.8515297225121686  0.7141521733100616  0.3886996004933039  1.0000
  C   C10       1.0  0.14846854293102038  0.28584570404644444  0.6112967058632394  1.0000
  C   C11       1.0  0.5823072056075702  0.7155059223201122  0.3963063498544558  1.0000
  C   C12       1.0  0.4176926321638561  0.2844930217178856  0.6036904800586882  1.0000
  C   C13       1.0  0.7881516517166958  0.9269166655614637  0.1270075193005127  1.0000
  C   C14       1.0  0.21185186053649122  0.073086658665737  0.8729977612335774  1.0000
  C   C15       1.0  0.8983095898013717  0.964628685633031  0.0617295007835566  1.0000
  C   C16       1.0  0.10169948194619852  0.035375668457383824  0.9382746660830323  1.0000
  C   C17       1.0  0.08563351631127597  0.9632761042563658  0.09018063682719205  1.0000
  C   C18       1.0  0.9143708137203959  0.036724998979451605  0.9098189508485606  1.0000
  C   C19       1.0  0.812947727176045  0.0018352031978921034  0.9713139603773371  1.0000
  C   C20       1.0  0.1870584122739344  0.9981680329711365  0.028686468022733842  1.0000
  C   C21       1.0  0.012614781029178245  0.6244734060012503  0.09272504065575757  1.0000
  C   C22       1.0  0.9873844072999702  0.3755224663069114  0.9072783590568393  1.0000
  C   C23       1.0  0.1566663298980089  0.46035571939574293  0.9726250054346155  1.0000
  C   C24       1.0  0.8433353853024528  0.5396454973033188  0.027380938635680318  1.0000
  C   C25       1.0  0.16959263417542297  0.5854368320105081  0.06570811632269626  1.0000
  C   C26       1.0  0.8304086006621034  0.41456223948258497  0.9342964412819158  1.0000
  C   C27       1.0  0.3521038131914125  0.6759701339800444  0.1347354105662362  1.0000
  C   C28       1.0  0.647893160293151  0.32402783186441303  0.8652659543132232  1.0000
  N   N1        1.0  0.0812358423734665  0.4238301796340735  0.3400435472802813  1.0000
  N   N2        1.0  0.9187618300157183  0.5761709595604786  0.6599572648417935  1.0000
  N   N3        1.0  0.2584926264619938  0.4291598033894175  0.3393432341197453  1.0000
  N   N4        1.0  0.7415057695629841  0.5708445599653446  0.6606600337659644  1.0000
  N   N5        1.0  0.08050954431650578  0.3377616174023927  0.16509593061100963  1.0000
  N   N6        1.0  0.9194897004009163  0.6622405884736509  0.8349054050676586  1.0000
  N   N7        1.0  0.7871999236925549  0.3184782911079367  0.4279760844289982  1.0000
  N   N8        1.0  0.21279860357186922  0.6815207033104187  0.5720235476162827  1.0000
  N   N9        1.0  0.6086468679130449  0.3150499753667617  0.42406013926625985  1.0000
  N   N10       1.0  0.39135164698578967  0.6849489936465291  0.5759379885185113  1.0000
  N   N11       1.0  0.6495349103663058  0.0918658648929735  0.3455481474291133  1.0000
  N   N12       1.0  0.35046495213629225  0.9081331299551612  0.654451691005065  1.0000
  N   N13       1.0  0.820717659807194  0.6208895487812853  0.43387575406210743  1.0000
  N   N14       1.0  0.1792821903298218  0.37910942066177705  0.5661225801115537  1.0000
  N   N15       1.0  0.6464966436558583  0.6219501946141152  0.43865505088207624  1.0000
  N   N16       1.0  0.35350344975402254  0.37804985378319605  0.5613443525895505  1.0000
  N   N17       1.0  0.7060741297560539  0.7762825690579689  0.3643698068998162  1.0000
  N   N18       1.0  0.2939241418699227  0.22371532100107325  0.635627251586982  1.0000
  O   O1        1.0  0.8713912349475093  0.9076895741609474  0.21693283019935442  1.0000
  O   O2        1.0  0.12862048872802492  0.0923147426814239  0.7830694930542492  1.0000
  O   O3        1.0  0.6174605745407361  0.916421329859027  0.09433719850991906  1.0000
  O   O4        1.0  0.38253766551361684  0.0835883516220264  0.9056666966951994  1.0000
  O   O5        1.0  0.35609334395491743  0.8018829357449777  0.20749349659419655  1.0000
  O   O6        1.0  0.6439046967637837  0.19811390076488072  0.7925039968551532  1.0000
  O   O7        1.0  0.4932319086294754  0.6293029865497743  0.12038986247881672  1.0000
  O   O8        1.0  0.5067666124521537  0.3706959951660522  0.8796090174362095  1.0000
