data_image0
_chemical_formula_structural       Cd2H34C36N10O10
_chemical_formula_sum              "Cd2 H34 C36 N10 O10"
_cell_length_a       8.541630876937019
_cell_length_b       11.153957122862048
_cell_length_c       11.15385969716081
_cell_angle_alpha    100.82985474315585
_cell_angle_beta     99.22782321752905
_cell_angle_gamma    99.228850472542

_space_group_name_H-M_alt    "P 1"
_space_group_IT_number       1

loop_
  _space_group_symop_operation_xyz
  'x, y, z'

loop_
  _atom_site_type_symbol
  _atom_site_label
  _atom_site_symmetry_multiplicity
  _atom_site_fract_x
  _atom_site_fract_y
  _atom_site_fract_z
  _atom_site_occupancy
  Cd  Cd1       1.0  0.18777314564047742  0.050571765629754885  0.4379282521438698  1.0000
  Cd  Cd2       1.0  0.6877734654744503  0.43792093036575597  0.05057854062562938  1.0000
  H   H1        1.0  0.6350468967419759  0.20144185991883024  0.7373944524230682  1.0000
  H   H2        1.0  0.13504270778740585  0.7373875848920689  0.20143778651765842  1.0000
  H   H3        1.0  0.4749546919779562  0.09369835796896808  0.6307802346589213  1.0000
  H   H4        1.0  0.9749524347262836  0.6307728800417038  0.0936997872548844  1.0000
  H   H5        1.0  0.9155895386358992  0.8474638789422356  0.4279368830758516  1.0000
  H   H6        1.0  0.4155958471388886  0.4279476822341763  0.8474738487727723  1.0000
  H   H7        1.0  0.9703894139202449  0.836327084845706  0.2980714805819177  1.0000
  H   H8        1.0  0.4703809721382015  0.2980760256007357  0.836322877800619  1.0000
  H   H9        1.0  0.4244280974305283  0.6971696143318906  0.340423399930053  1.0000
  H   H10       1.0  0.9244172391385705  0.34042901231077144  0.6971783068848512  1.0000
  H   H11       1.0  0.5984824605530861  0.816167025687207  0.3953201403360893  1.0000
  H   H12       1.0  0.09847573111362344  0.395332870435922  0.8161681894293624  1.0000
  H   H13       1.0  0.4048781724231603  0.7622950790234879  0.12742245070072034  1.0000
  H   H14       1.0  0.9048879543388255  0.12743783505270298  0.7623006965509237  1.0000
  H   H15       1.0  0.604702553564529  0.8464510022016679  0.18146775871091586  1.0000
  H   H16       1.0  0.10470493646801059  0.18148407586364357  0.8464651082154405  1.0000
  H   H17       1.0  0.4963608926273224  0.4895153200147673  0.3748234807712052  1.0000
  H   H18       1.0  0.99637299485633  0.3748259256579515  0.4895255861905883  1.0000
  H   H19       1.0  0.34626224473326056  0.42728719325892667  0.2134196843296579  1.0000
  H   H20       1.0  0.8462689539196335  0.21341813807249815  0.427306825267607  1.0000
  H   H21       1.0  0.12917351656500387  0.3550155679317654  0.027742646801435487  1.0000
  H   H22       1.0  0.6291776404714612  0.027740234789852998  0.355027873998374  1.0000
  H   H23       1.0  0.9289275499197774  0.15526898136082679  0.0052233114912070226  1.0000
  H   H24       1.0  0.428942127004298  0.0052163915188075  0.15527159116639674  1.0000
  H   H25       1.0  0.9636188186057167  0.03619284478071449  0.17511333636568344  1.0000
  H   H26       1.0  0.4636375628819493  0.17511273514232067  0.036201494505100094  1.0000
  H   H27       1.0  0.7014889664176637  0.6223665290017023  0.4029519016791669  1.0000
  H   H28       1.0  0.2014828234559616  0.40297453418939005  0.6223883629938032  1.0000
  H   H29       1.0  0.8174156843029295  0.5536158171027095  0.7727186304798793  1.0000
  H   H30       1.0  0.31742744063271294  0.7727276153571907  0.5536074554381615  1.0000
  H   H31       1.0  0.014652247442121628  0.7568187662384599  0.8310338256107174  1.0000
  H   H32       1.0  0.5146762549310891  0.8310573420059981  0.7568124793506927  1.0000
  H   H33       1.0  0.041259606116582845  0.8857385639580715  0.6696521537243358  1.0000
  H   H34       1.0  0.5412881782304312  0.6696759828677799  0.8857419623919685  1.0000
  C   C1        1.0  0.374197461922236  0.8762350801166646  0.35493961741207875  1.0000
  C   C2        1.0  0.8742024115428607  0.35495217658942824  0.8762422472017309  1.0000
  C   C3        1.0  0.4855902649517672  0.7865828213510891  0.3256795819955798  1.0000
  C   C4        1.0  0.9855964020856478  0.3256837029721993  0.7865845296902167  1.0000
  C   C5        1.0  0.5179161660531619  0.7679161366210038  0.19363946958520023  1.0000
  C   C6        1.0  0.017925272571034188  0.19364832128686518  0.7679181775658112  1.0000
  C   C7        1.0  0.5788084862440995  0.6495457387896906  0.1516129739803702  1.0000
  C   C8        1.0  0.0787987270609847  0.15161801950378617  0.6495455395472335  1.0000
  C   C9        1.0  0.5288362632896052  0.2629132992781961  0.5871043630299013  1.0000
  C   C10       1.0  0.028833002538775042  0.5871077535706347  0.2629218127859758  1.0000
  C   C11       1.0  0.6238106206957  0.4522984730349292  0.5450489880341324  1.0000
  C   C12       1.0  0.12381479195593663  0.5450526408370846  0.4523001402729818  1.0000
  C   C13       1.0  0.5049255000418853  0.4244781130252306  0.4357290030528632  1.0000
  C   C14       1.0  0.004914915332029963  0.43574086795693023  0.4244939102192475  1.0000
  C   C15       1.0  0.3980403985025945  0.31008736492104555  0.4090652581023592  1.0000
  C   C16       1.0  0.8980670167084739  0.40905121284848167  0.3100839025657934  1.0000
  C   C17       1.0  0.2683029152560223  0.2710969411887588  0.2955129490026139  1.0000
  C   C18       1.0  0.7682959721071613  0.29551566035489424  0.2711029396497366  1.0000
  C   C19       1.0  0.2587833778119517  0.3418134059698302  0.20423732606058562  1.0000
  C   C20       1.0  0.7587951322102456  0.20425154080911767  0.34183052237105477  1.0000
  C   C21       1.0  0.13709737887244697  0.299985322492887  0.0985905585768236  1.0000
  C   C22       1.0  0.6371312753164561  0.0985771233184494  0.29998493385585334  1.0000
  C   C23       1.0  0.027737636295391582  0.18884506002344636  0.08550887092932413  1.0000
  C   C24       1.0  0.5277429510934654  0.08550919886495481  0.18887339311867632  1.0000
  C   C25       1.0  0.045691712022460286  0.12345009338193338  0.17993143137150014  1.0000
  C   C26       1.0  0.5457075482633515  0.17992068289697016  0.12344697527020541  1.0000
  C   C27       1.0  0.7660350528064158  0.6497292334097792  0.4997111220013722  1.0000
  C   C28       1.0  0.2660434153406399  0.4997275169682495  0.6497430687098034  1.0000
  C   C29       1.0  0.7410846281065845  0.5721707492223088  0.5832898920739498  1.0000
  C   C30       1.0  0.2410836426849059  0.583298659873982  0.5721778033409706  1.0000
  C   C31       1.0  0.8320928230655652  0.6114262134221633  0.7050510428320182  1.0000
  C   C32       1.0  0.3320960847650198  0.7050638338751583  0.6114240500894043  1.0000
  C   C33       1.0  0.9413627465865844  0.7244598000316599  0.7374046078528027  1.0000
  C   C34       1.0  0.44138394160012234  0.7374176574098356  0.7244476263366836  1.0000
  C   C35       1.0  0.9573669949597347  0.7961170701220439  0.648535993637488  1.0000
  C   C36       1.0  0.45737877484769035  0.648560588449719  0.7961254981751796  1.0000
  N   N1        1.0  0.539453069858098  0.18206731852554006  0.6629682270197322  1.0000
  N   N2        1.0  0.03944607608787713  0.6629612897325147  0.182066854361068  1.0000
  N   N3        1.0  0.4085419756618691  0.23002124889700323  0.4847788716270928  1.0000
  N   N4        1.0  0.90853771873401  0.4847825532207181  0.2300362254014701  1.0000
  N   N5        1.0  0.6367191579672424  0.3719371734526574  0.6199454377681661  1.0000
  N   N6        1.0  0.13671691174390324  0.6199548632902747  0.3719410769771301  1.0000
  N   N7        1.0  0.16243088292197433  0.16346155574818508  0.2821587751607311  1.0000
  N   N8        1.0  0.662428997584428  0.2821556893258829  0.16346382723057223  1.0000
  N   N9        1.0  0.8709522311158795  0.7590951434652168  0.5312840714323245  1.0000
  N   N10       1.0  0.370967200021056  0.5312976706229479  0.7591054626073729  1.0000
  O   O1        1.0  0.39102544913696136  0.9344905920592267  0.4680503722989259  1.0000
  O   O2        1.0  0.8910301703524299  0.4680542830865803  0.9345110569848958  1.0000
  O   O3        1.0  0.26522943872101473  0.8888945898466147  0.2681177488929123  1.0000
  O   O4        1.0  0.7652323906190831  0.2681317297916408  0.888904872163117  1.0000
  O   O5        1.0  0.6571881850366098  0.6450744336286576  0.06271469339245068  1.0000
  O   O6        1.0  0.15719338677694594  0.06272996941961399  0.6450924719013644  1.0000
  O   O7        1.0  0.5476478298438607  0.5578304465487703  0.20258081293272312  1.0000
  O   O8        1.0  0.04766248012217029  0.20260256303436816  0.557842121365681  1.0000
  O   O9        1.0  0.9450036652593141  0.8973687341938681  0.36378291297870646  1.0000
  O   O10       1.0  0.4450021496484027  0.36378542430766453  0.8973688244296056  1.0000
