data_image0
_chemical_formula_structural       Cu4H20C24N4Cl4O4
_chemical_formula_sum              "Cu4 H20 C24 N4 Cl4 O4"
_cell_length_a       3.7364269389156313
_cell_length_b       13.026358609015928
_cell_length_c       14.461869519855352
_cell_angle_alpha    108.50940452593734
_cell_angle_beta     89.99744568072235
_cell_angle_gamma    89.99839302178744

_space_group_name_H-M_alt    "P 1"
_space_group_IT_number       1

loop_
  _space_group_symop_operation_xyz
  'x, y, z'

loop_
  _atom_site_type_symbol
  _atom_site_label
  _atom_site_symmetry_multiplicity
  _atom_site_fract_x
  _atom_site_fract_y
  _atom_site_fract_z
  _atom_site_occupancy
  Cu  Cu1       1.0  0.9195681394825356  0.5733997593383507  0.8256734706731665  1.0000
  Cu  Cu2       1.0  0.4195621550751695  0.42657951247547754  0.6743304079695351  1.0000
  Cu  Cu3       1.0  0.0804635853331561  0.42657535698783294  0.17433300867003967  1.0000
  Cu  Cu4       1.0  0.5804454815840784  0.5734338985704213  0.32567013534558253  1.0000
  H   H1        1.0  0.7680269666443208  0.7405493115910603  0.7900719408174697  1.0000
  H   H2        1.0  0.26819897155188943  0.2594250356464798  0.7099237730556923  1.0000
  H   H3        1.0  0.23183882465047387  0.25942259782417665  0.2099315141732775  1.0000
  H   H4        1.0  0.7318621927051508  0.7405958194600758  0.2900679122651227  1.0000
  H   H5        1.0  0.6933239577548136  0.9585378672386614  0.038335871493991765  1.0000
  H   H6        1.0  0.1932820169721623  0.04146747851780932  0.46165178728967504  1.0000
  H   H7        1.0  0.30670776678812217  0.041447022610292115  0.9616693559328199  1.0000
  H   H8        1.0  0.8067149149230985  0.9585533969448932  0.5383385213520171  1.0000
  H   H9        1.0  0.9511643511796136  0.9311528004897485  0.1894534809193758  1.0000
  H   H10       1.0  0.4510759546742592  0.06885374546263281  0.31052075684663555  1.0000
  H   H11       1.0  0.0488245526471616  0.06881996720650115  0.8105467702220254  1.0000
  H   H12       1.0  0.5489102718152027  0.9311679495097211  0.6894691032590147  1.0000
  H   H13       1.0  0.222843330983018  0.750258561285243  0.17545445860186976  1.0000
  H   H14       1.0  0.7227735658393185  0.24975447250083252  0.32453309420923665  1.0000
  H   H15       1.0  0.7771803647075474  0.24972227123259222  0.824550257648184  1.0000
  H   H16       1.0  0.27719927764069047  0.7502752081263397  0.6754667399958196  1.0000
  H   H17       1.0  0.2273521605868183  0.6057419174724287  0.015198080520782795  1.0000
  H   H18       1.0  0.7273322224128903  0.3942489444716203  0.4848001401712666  1.0000
  H   H19       1.0  0.7726768885080447  0.3942390243502771  0.9847990613208426  1.0000
  H   H20       1.0  0.2726486500476425  0.6057733612222195  0.5152037315165431  1.0000
  C   C1        1.0  0.8299382313786766  0.7968600379435955  0.9482372322260917  1.0000
  C   C2        1.0  0.3300021559628092  0.20312074877691808  0.5517548990961532  1.0000
  C   C3        1.0  0.1700426422004355  0.20311990587783416  0.05177275301170434  1.0000
  C   C4        1.0  0.669997452712458  0.796892831315326  0.44823393843653064  1.0000
  C   C5        1.0  0.6907865762113089  0.8082310986270045  0.8566118165070904  1.0000
  C   C6        1.0  0.1909013468970855  0.19175249706151484  0.6433867603430201  1.0000
  C   C7        1.0  0.3091514754457164  0.1917537123918791  0.14339892024960932  1.0000
  C   C8        1.0  0.8091196717833212  0.8082666797196155  0.35660857682456293  1.0000
  C   C9        1.0  0.815406415351042  0.881924992114051  0.036025007063095464  1.0000
  C   C10       1.0  0.3154061285089682  0.11806882264727389  0.46395864042891344  1.0000
  C   C11       1.0  0.18459319248624687  0.11805818952884553  0.9639859378875003  1.0000
  C   C12       1.0  0.6846041855899969  0.8819455767961846  0.5360297484081331  1.0000
  C   C13       1.0  0.9574039276905636  0.8667724303974609  0.11962731183824375  1.0000
  C   C14       1.0  0.45736171285820143  0.13323475283186073  0.3803525811588245  1.0000
  C   C15       1.0  0.042609062222282994  0.13321570749064904  0.8803781870017106  1.0000
  C   C16       1.0  0.5426405716356157  0.8667877415712868  0.6196382073691995  1.0000
  C   C17       1.0  0.106855355270028  0.7663238342474801  0.11246588078346793  1.0000
  C   C18       1.0  0.6068314082970047  0.23367715453463944  0.387519321459564  1.0000
  C   C19       1.0  0.8931603111597326  0.23366187515074438  0.8875388981471914  1.0000
  C   C20       1.0  0.39317890496865004  0.7663420223257236  0.6124760157878202  1.0000
  C   C21       1.0  0.11144079213563168  0.6847697954127343  0.0227626010447964  1.0000
  C   C22       1.0  0.6114312171964257  0.31522293109249233  0.47722701888995545  1.0000
  C   C23       1.0  0.8885855800525135  0.3152184218996084  0.9772373890637455  1.0000
  C   C24       1.0  0.38854965606985553  0.6847978649657807  0.5227687985030942  1.0000
  N   N1        1.0  0.9769575771887418  0.6988658217008351  0.9410588827096902  1.0000
  N   N2        1.0  0.4770016735770639  0.3011119797349053  0.5589308170358507  1.0000
  N   N3        1.0  0.023031326538173896  0.30110938440591184  0.05894139974208914  1.0000
  N   N4        1.0  0.522984553085287  0.6989023801251762  0.4410603262965724  1.0000
  Cl  Cl1       1.0  0.45193477908743757  0.4576148569273288  0.8403828172697702  1.0000
  Cl  Cl2       1.0  0.9519391878523392  0.5423656243340815  0.659616238647786  1.0000
  Cl  Cl3       1.0  0.5480568013271351  0.5423677637951486  0.15961067330363232  1.0000
  Cl  Cl4       1.0  0.0480845065399436  0.45764690752010045  0.3403888846372213  1.0000
  O   O1        1.0  0.4997057872859187  0.883226035629839  0.8515924817623315  1.0000
  O   O2        1.0  0.9997996488175217  0.11675688643719444  0.6484130183822928  1.0000
  O   O3        1.0  0.5002697324715228  0.11676191366780132  0.14842610035710632  1.0000
  O   O4        1.0  0.00024010461144289996  0.8832525166825326  0.35158357056203493  1.0000
