data_image0
_chemical_formula_structural       Nd2H28C14N20Cl2O12
_chemical_formula_sum              "Nd2 H28 C14 N20 Cl2 O12"
_cell_length_a       8.850850321124513
_cell_length_b       10.119282133831307
_cell_length_c       10.0688575480568
_cell_angle_alpha    65.43224633560017
_cell_angle_beta     70.73421280385287
_cell_angle_gamma    85.06710420904784

_space_group_name_H-M_alt    "P 1"
_space_group_IT_number       1

loop_
  _space_group_symop_operation_xyz
  'x, y, z'

loop_
  _atom_site_type_symbol
  _atom_site_label
  _atom_site_symmetry_multiplicity
  _atom_site_fract_x
  _atom_site_fract_y
  _atom_site_fract_z
  _atom_site_occupancy
  Nd  Nd1       1.0  0.8906709407923543  0.44098695678182764  0.3227257543701043  1.0000
  Nd  Nd2       1.0  0.1093290694382958  0.5590138594666882  0.6772749110492526  1.0000
  H   H1        1.0  0.7796813313424947  0.39435309778955485  0.6627280660960367  1.0000
  H   H2        1.0  0.22031987607332573  0.6056477236221695  0.3372722481679347  1.0000
  H   H3        1.0  0.628999534648564  0.4308332602513545  0.6087962161813323  1.0000
  H   H4        1.0  0.3710004097682997  0.5691664674940212  0.3912049249511826  1.0000
  H   H5        1.0  0.1584501407469148  0.681959633400993  0.13217336868125082  1.0000
  H   H6        1.0  0.8415498014181395  0.31804009237071534  0.8678267807709261  1.0000
  H   H7        1.0  0.5802456451577456  0.7239087673218524  0.1786035697546423  1.0000
  H   H8        1.0  0.41975429700730865  0.2760909584498634  0.8213965796975274  1.0000
  H   H9        1.0  0.4697991409428255  0.8428115051062548  0.2535473898271975  1.0000
  H   H10       1.0  0.5302008012222287  0.1571882206654607  0.7464527596249795  1.0000
  H   H11       1.0  0.44656226392644544  0.8654683827940489  0.7874969489104302  1.0000
  H   H12       1.0  0.5534377440523883  0.1345324314807996  0.21250272482859606  1.0000
  H   H13       1.0  0.5059334865023571  0.7541294611569497  0.6852283887448181  1.0000
  H   H14       1.0  0.494066455662697  0.24587026461475864  0.3147717607073588  1.0000
  H   H15       1.0  0.8950471107637625  0.8892371566968434  0.7499618034708537  1.0000
  H   H16       1.0  0.10495283140129172  0.11076256907486479  0.2500383459813236  1.0000
  H   H17       1.0  0.7084112656419421  0.7907738504453687  0.8745791516255892  1.0000
  H   H18       1.0  0.29158861296114946  0.20922478879687392  0.12542246522006908  1.0000
  H   H19       1.0  0.8113076578891024  0.8908084609202264  0.272269759197492  1.0000
  H   H20       1.0  0.1886923500897382  0.10919235335462221  0.7277299145415341  1.0000
  H   H21       1.0  0.6452370435897166  0.7815315373032306  0.4287282972011964  1.0000
  H   H22       1.0  0.3547641615742947  0.2184692821348264  0.5712710253824369  1.0000
  H   H23       1.0  0.4101019383480703  0.6073113742998331  0.05597981111463218  1.0000
  H   H24       1.0  0.5898980038169909  0.39268835147187525  0.944020338337545  1.0000
  H   H25       1.0  0.28286067667489334  0.5405625786921178  0.9876077992870619  1.0000
  H   H26       1.0  0.7171380683049903  0.4594371419163892  0.012392701320500375  1.0000
  H   H27       1.0  0.3318476264651196  0.4229032277742989  0.15751453347141353  1.0000
  H   H28       1.0  0.6681523156999417  0.5770964979974096  0.8424856159807633  1.0000
  C   C1        1.0  0.9084915279721528  0.7030688854139059  0.9538067130488131  1.0000
  C   C2        1.0  0.0915083483791292  0.2969297518546696  0.046193912116514496  1.0000
  C   C3        1.0  0.8214261995503875  0.8324904573839191  0.8708296443210841  1.0000
  C   C4        1.0  0.17857367680089448  0.16750817988465636  0.12917098084424336  1.0000
  C   C5        1.0  0.6663413909810814  0.9352824559751413  0.06591361909028848  1.0000
  C   C6        1.0  0.3336586192495616  0.06471836027337469  0.9340870463290757  1.0000
  C   C7        1.0  0.8760313926772625  0.7236455172527626  0.45615790845517523  1.0000
  C   C8        1.0  0.12396987604871867  0.2763563887147669  0.5438399467349697  1.0000
  C   C9        1.0  0.761089781388023  0.8372641341018722  0.39818735559620694  1.0000
  C   C10       1.0  0.2389114237759884  0.16273668533618493  0.6018119669874269  1.0000
  C   C11       1.0  0.6326312567599786  0.950620326023362  0.589385135354114  1.0000
  C   C12       1.0  0.3673674882199052  0.0493793945851451  0.4106153652534559  1.0000
  C   C13       1.0  0.3060365606341335  0.5341164842694611  0.09074813748005539  1.0000
  C   C14       1.0  0.6939633837827373  0.46588324347592186  0.9092530036524522  1.0000
  N   N1        1.0  0.7849290454881979  0.9378450069731487  0.9376345740431873  1.0000
  N   N2        1.0  0.21507089667686324  0.06215471879856691  0.0623655754089896  1.0000
  N   N3        1.0  0.8739322314944927  0.06595992158364081  0.8683686312289398  1.0000
  N   N4        1.0  0.1260677106705685  0.9340398041880746  0.13163151822323013  1.0000
  N   N5        1.0  0.809104929015355  0.13768347152840482  0.9512971322776524  1.0000
  N   N6        1.0  0.19089501540150877  0.8623162562169712  0.04870400885485545  1.0000
  N   N7        1.0  0.6813925856566954  0.0626077923911055  0.07440099289897258  1.0000
  N   N8        1.0  0.3186073587601684  0.9373919353542706  0.9256001482335348  1.0000
  N   N9        1.0  0.5516429849697104  0.828413664247492  0.16088389347066814  1.0000
  N   N10       1.0  0.44835689138157153  0.17158497302108341  0.8391167316946592  1.0000
  N   N11       1.0  0.735054975809085  0.9496131439326875  0.4551414984149389  1.0000
  N   N12       1.0  0.264945034421558  0.0503876723158285  0.5448591670044253  1.0000
  N   N13       1.0  0.8180806980743753  0.080907893932114  0.36963398383650753  1.0000
  N   N14       1.0  0.1819193099044654  0.9190929203427345  0.6303656899025185  1.0000
  N   N15       1.0  0.7665999133866777  0.15745492479371853  0.4497077949194264  1.0000
  N   N16       1.0  0.23340003103018597  0.8425448029516573  0.5502933462130813  1.0000
  N   N17       1.0  0.6516628778658315  0.08252483191937901  0.5866317961984463  1.0000
  N   N18       1.0  0.3483358693658546  0.9174748906627885  0.4133696960894539  1.0000
  N   N19       1.0  0.5335372297551332  0.8389715128840295  0.7052768791205962  1.0000
  N   N20       1.0  0.46646145166278064  0.16102712119500504  0.2947250888804547  1.0000
  Cl  Cl1       1.0  0.569128205442567  0.4520914466896073  0.32188180813314204  1.0000
  Cl  Cl2       1.0  0.43087180253626656  0.5479093675852412  0.6781178656058842  1.0000
  O   O1        1.0  0.8768804857279303  0.663237924941626  0.09720702381583393  1.0000
  O   O2        1.0  0.1231207897534645  0.3367639869468988  0.9027938064153176  1.0000
  O   O3        1.0  0.0013500667155100033  0.6436898103183142  0.8715778079172979  1.0000
  O   O4        1.0  0.9986498777013536  0.35630991742706186  0.12842333321520988  1.0000
  O   O5        1.0  0.9112403934359891  0.6342906451009966  0.3938743615890985  1.0000
  O   O6        1.0  0.08875954647726299  0.3657090786970586  0.6061247961827405  1.0000
  O   O7        1.0  0.9265758377471303  0.724535176383398  0.5594884814740337  1.0000
  O   O8        1.0  0.0734241702317107  0.2754656378914505  0.44051119226498514  1.0000
  O   O9        1.0  0.7269318607081344  0.3754033594899511  0.598842906726496  1.0000
  O   O10       1.0  0.273069346707679  0.6245974619217662  0.4011574075374754  1.0000
  O   O11       1.0  0.16823110316414613  0.5733807038066702  0.1894645895083898  1.0000
  O   O12       1.0  0.8317689048146876  0.4266201104681784  0.8105350842306366  1.0000
