data_image0
_chemical_formula_structural       Cd2H18C20N2O16
_chemical_formula_sum              "Cd2 H18 C20 N2 O16"
_cell_length_a       4.985433445917231
_cell_length_b       11.049765229669289
_cell_length_c       11.832388691135705
_cell_angle_alpha    113.79644575869807
_cell_angle_beta     92.55001119578135
_cell_angle_gamma    92.05339547985857

_space_group_name_H-M_alt    "P 1"
_space_group_IT_number       1

loop_
  _space_group_symop_operation_xyz
  'x, y, z'

loop_
  _atom_site_type_symbol
  _atom_site_label
  _atom_site_symmetry_multiplicity
  _atom_site_fract_x
  _atom_site_fract_y
  _atom_site_fract_z
  _atom_site_occupancy
  Cd  Cd1       1.0  0.5416296902530676  0.12101724949257432  0.7792563034508929  1.0000
  Cd  Cd2       1.0  0.4583665705622766  0.8789828817434401  0.22074546459495542  1.0000
  H   H1        1.0  0.016287545402384803  0.045037497604205605  0.6386105875451307  1.0000
  H   H2        1.0  0.9837107233456451  0.9549626349639128  0.36139122498206416  1.0000
  H   H3        1.0  0.7877703100243423  0.07123312283875552  0.5565896642232531  1.0000
  H   H4        1.0  0.21222807437560934  0.9287680005286562  0.44341252326292846  1.0000
  H   H5        1.0  0.03270930060541132  0.43049634451933394  0.059590825108628676  1.0000
  H   H6        1.0  0.9672889124363522  0.5695027947431158  0.9404072321831406  1.0000
  H   H7        1.0  0.593951562978191  0.567153088467741  0.3924029997264639  1.0000
  H   H8        1.0  0.40604862802342734  0.4328460533800112  0.6075967921848644  1.0000
  H   H9        1.0  0.05279276702302841  0.21586684295020586  0.2782108666426311  1.0000
  H   H10       1.0  0.9472095625496166  0.7841332904023588  0.7217884996399135  1.0000
  H   H11       1.0  0.2764813516543967  0.15367349079036072  0.115640428651318  1.0000
  H   H12       1.0  0.7235148234818568  0.8463256483931617  0.8843592742973314  1.0000
  H   H13       1.0  0.37655793768645657  0.2718612048724013  0.05629349025322481  1.0000
  H   H14       1.0  0.6234422683015808  0.7281379363487589  0.9437054565889866  1.0000
  H   H15       1.0  0.7439525036360664  0.2890113536136738  0.572922319761723  1.0000
  H   H16       1.0  0.25605784268089593  0.7109887856939354  0.42707806951529653  1.0000
  H   H17       1.0  0.014272826140931704  0.2519498490339132  0.4733710399593676  1.0000
  H   H18       1.0  0.985729432739035  0.7480492916395676  0.526625416156854  1.0000
  C   C1        1.0  0.9649161089608922  0.4244939129364554  0.14368167531806367  1.0000
  C   C2        1.0  0.035084097027137835  0.5755052282847047  0.856317271524155  1.0000
  C   C3        1.0  0.7990546914678378  0.514774131306183  0.22357183030441513  1.0000
  C   C4        1.0  0.20094149865482797  0.4852250072507474  0.7764270275751244  1.0000
  C   C5        1.0  0.7234814903215964  0.4982796688146109  0.32842898242018487  1.0000
  C   C6        1.0  0.27651683837209623  0.5017204612471249  0.671569449830571  1.0000
  C   C7        1.0  0.8131916142641346  0.39194068622193623  0.3524492242176152  1.0000
  C   C8        1.0  0.18680870737581765  0.60805944579851  0.6475500975835898  1.0000
  C   C9        1.0  0.9748158602430619  0.30212739060429084  0.2688698122421371  1.0000
  C   C10       1.0  0.02518457704881882  0.6978737322154561  0.7311298845180547  1.0000
  C   C11       1.0  0.203309427584486  0.22170332362916417  0.07631572789211565  1.0000
  C   C12       1.0  0.7966888711363751  0.7782968076857699  0.9236843944968599  1.0000
  C   C13       1.0  0.03527535081003921  0.14475043787769692  0.9540209660717097  1.0000
  C   C14       1.0  0.9647267474587551  0.8552477138762811  0.04597765029285485  1.0000
  C   C15       1.0  0.6992850800029657  0.6270922939821942  0.19356406091295492  1.0000
  C   C16       1.0  0.3007130024004638  0.372905855107554  0.8064344664889306  1.0000
  C   C17       1.0  0.7978572438899931  0.2689877934860405  0.4782274858907059  1.0000
  C   C18       1.0  0.20214900088249985  0.7310113511048545  0.5217707493264216  1.0000
  C   C19       1.0  0.6366030777083581  0.14471347572530394  0.3884156148526614  1.0000
  C   C20       1.0  0.36339746024902553  0.8552886385203277  0.6115853019356334  1.0000
  N   N1        1.0  0.04688459253166141  0.32179518386695355  0.16825896495954853  1.0000
  N   N2        1.0  0.9531158297738004  0.6782059395793854  0.831741576869753  1.0000
  O   O1        1.0  0.8659445132825996  0.10220394533181579  0.6429425543533257  1.0000
  O   O2        1.0  0.13405387111735226  0.8977971780355961  0.35705963313285594  1.0000
  O   O3        1.0  0.15628848177669852  0.06656096098643624  0.8645323383786447  1.0000
  O   O4        1.0  0.8437097869713313  0.933439171581682  0.1354694741485502  1.0000
  O   O5        1.0  0.7857781679338203  0.16549957818821076  0.9544193492768259  1.0000
  O   O6        1.0  0.21422034710447244  0.8345025353519021  0.04558236809923948  1.0000
  O   O7        1.0  0.5590931314469502  0.7093897003709201  0.2752847648231195  1.0000
  O   O8        1.0  0.44090694390273916  0.2906084506775387  0.7247146521292152  1.0000
  O   O9        1.0  0.7558274535864129  0.6316044093366316  0.09324429927308125  1.0000
  O   O10       1.0  0.2441686208843238  0.3683937384210055  0.9067541836474645  1.0000
  O   O11       1.0  0.7387267818924173  0.38501740260095835  0.4583818358717977  1.0000
  O   O12       1.0  0.26127553269380854  0.6149827313781986  0.5416183754798569  1.0000
  O   O13       1.0  0.6938585159248803  0.038313303050749405  0.4024542263889828  1.0000
  O   O14       1.0  0.3061378755288048  0.9616878183579591  0.5975470715467567  1.0000
  O   O15       1.0  0.4668526932557242  0.14832360470463607  0.30924195553870953  1.0000
  O   O16       1.0  0.5331497219960043  0.8516775207004131  0.690759475841041  1.0000
