data_image0
_chemical_formula_structural       Zn2H28C32Cl4O14
_chemical_formula_sum              "Zn2 H28 C32 Cl4 O14"
_cell_length_a       4.894636057044032
_cell_length_b       6.652958550003294
_cell_length_c       27.726698957633953
_cell_angle_alpha    90.00007293129886
_cell_angle_beta     90.91471162004613
_cell_angle_gamma    90.00008204608915

_space_group_name_H-M_alt    "P 1"
_space_group_IT_number       1

loop_
  _space_group_symop_operation_xyz
  'x, y, z'

loop_
  _atom_site_type_symbol
  _atom_site_label
  _atom_site_symmetry_multiplicity
  _atom_site_fract_x
  _atom_site_fract_y
  _atom_site_fract_z
  _atom_site_occupancy
  Zn  Zn1       1.0  0.5097347707047746  0.8717836483220366  0.49852710086654645  1.0000
  Zn  Zn2       1.0  0.5097368904015624  0.12821954045040226  0.9985302378004591  1.0000
  H   H1        1.0  0.1627452619948357  0.5809008785212414  0.5065434620879331  1.0000
  H   H2        1.0  0.16275030195375711  0.4191008608516213  0.006545620249795501  1.0000
  H   H3        1.0  0.4555666593915007  0.4636840264089911  0.5161712848273298  1.0000
  H   H4        1.0  0.45557805331000617  0.5363135468653085  0.016174941974625802  1.0000
  H   H5        1.0  0.39667568255956814  0.7683554489437797  0.3198798681293554  1.0000
  H   H6        1.0  0.3966739500050451  0.23164066827292373  0.8198815814710373  1.0000
  H   H7        1.0  0.5209544030291795  0.06795571386619771  0.2734388729131255  1.0000
  H   H8        1.0  0.5209643226765834  0.9320417844299412  0.7734422802599852  1.0000
  H   H9        1.0  0.1106168115931538  0.23054061119959357  0.38379669468426414  1.0000
  H   H10       1.0  0.1106100275160387  0.7694660808406296  0.8838014410008768  1.0000
  H   H11       1.0  0.4163226366769024  0.4095830008139386  0.416832648818918  1.0000
  H   H12       1.0  0.416327789180194  0.5904181588861234  0.9168337725513781  1.0000
  H   H13       1.0  0.4740876926910714  0.46285089437694177  0.35419493653486  1.0000
  H   H14       1.0  0.4740906960939455  0.5371545004054212  0.8541956763972324  1.0000
  H   H15       1.0  0.2229050778754882  0.6032229908989277  0.3867345166684473  1.0000
  H   H16       1.0  0.2228995969247194  0.3967838287338523  0.886736628896543  1.0000
  H   H17       1.0  0.7178224267790939  0.6623090149807992  0.6833223216718026  1.0000
  H   H18       1.0  0.7178334177745853  0.33768519616670295  0.18332519560886607  1.0000
  H   H19       1.0  0.40037499254028563  0.507589870153538  0.7398528422416107  1.0000
  H   H20       1.0  0.4003720066976797  0.4924013175410238  0.23985535742853872  1.0000
  H   H21       1.0  0.21681422486557267  0.04422722929834319  0.6357789584014882  1.0000
  H   H22       1.0  0.21683674088536972  0.9557662301083739  0.13578025484829942  1.0000
  H   H23       1.0  0.1168649927304841  0.7305171940884988  0.5802098607413768  1.0000
  H   H24       1.0  0.1168860877956064  0.2694863928493589  0.08021058261988402  1.0000
  H   H25       1.0  0.0991151939528976  0.6603681075539001  0.6422843449159573  1.0000
  H   H26       1.0  0.099134371961469  0.33963278433473937  0.1422865246354732  1.0000
  H   H27       1.0  0.8428317669903507  0.8246396856044811  0.6156879485944629  1.0000
  H   H28       1.0  0.8428505988365703  0.1753618074349816  0.11569043775789822  1.0000
  C   C1        1.0  0.8771450421028958  0.9653073698119454  0.3976917487531325  1.0000
  C   C2        1.0  0.8771388234956347  0.0346941482694092  0.897692666170812  1.0000
  C   C3        1.0  0.6790080236608985  0.829962924559794  0.3791570443058348  1.0000
  C   C4        1.0  0.6790041149395449  0.17004130382807855  0.8791590924754119  1.0000
  C   C5        1.0  0.5520978218382382  0.8692700672588886  0.33445786057494337  1.0000
  C   C6        1.0  0.552099956505181  0.1307368038958785  0.8344602769960403  1.0000
  C   C7        1.0  0.6232759587871399  0.038450186080083916  0.30788660171046445  1.0000
  C   C8        1.0  0.6232798195637415  0.9615536091519133  0.8078892771035202  1.0000
  C   C9        1.0  0.8256497023973424  0.1678694478257299  0.3256080250447583  1.0000
  C   C10       1.0  0.8256573857809782  0.8321361462956672  0.8256103126853986  1.0000
  C   C11       1.0  0.9522504117001703  0.13115814156176242  0.36992318130898383  1.0000
  C   C12       1.0  0.9522479596891531  0.8688463105381675  0.8699250866525505  1.0000
  C   C13       1.0  0.020672431227993098  0.9329139605017291  0.4449734737199122  1.0000
  C   C14       1.0  0.020662227419670394  0.06709597204270779  0.9449718634603814  1.0000
  C   C15       1.0  0.42232536984549546  0.5274838610201159  0.3893691350976667  1.0000
  C   C16       1.0  0.4223261956579946  0.4725201653595335  0.8893698481949459  1.0000
  C   C17       1.0  0.5013560397581004  0.2686462648107195  0.6128928246107892  1.0000
  C   C18       1.0  0.5013678632451359  0.7313488603459035  0.11289473931012142  1.0000
  C   C19       1.0  0.645788466225028  0.44546394734412326  0.6261393661043825  1.0000
  C   C20       1.0  0.6458121481033671  0.5545389075596105  0.12614378993866643  1.0000
  C   C21       1.0  0.606928780823992  0.5282152042242175  0.6721590563013251  1.0000
  C   C22       1.0  0.6069461705893744  0.47177733405624184  0.172162713187987  1.0000
  C   C23       1.0  0.42698707360031557  0.4408164890538516  0.7043843891814136  1.0000
  C   C24       1.0  0.4270066931217471  0.5591730342218356  0.20438771928028396  1.0000
  C   C25       1.0  0.2847603098514995  0.2673416811326134  0.6910761055284029  1.0000
  C   C26       1.0  0.284778265958849  0.7326416173683087  0.19107804048752547  1.0000
  C   C27       1.0  0.3239844884916891  0.18117540505944874  0.6460580779773295  1.0000
  C   C28       1.0  0.324008729195576  0.8188227250096319  0.1460618628946051  1.0000
  C   C29       1.0  0.5293250022310686  0.16704774391877922  0.5651647348635649  1.0000
  C   C30       1.0  0.5293615662289071  0.8329441501340753  0.0651660393543878  1.0000
  C   C31       1.0  0.9786813206852258  0.6958774740176139  0.6095945166856328  1.0000
  C   C32       1.0  0.9787045115318805  0.3041211161060531  0.10959669857291493  1.0000
  Cl  Cl1       1.0  0.9183571991305185  0.3779684151118161  0.2923005644426909  1.0000
  Cl  Cl2       1.0  0.9183644119030134  0.622032585796838  0.7923053111323953  1.0000
  Cl  Cl3       1.0  0.061526520791488806  0.15548617684996907  0.7312152033538126  1.0000
  Cl  Cl4       1.0  0.0615304451209226  0.8445031239037135  0.23121424166417637  1.0000
  O   O1        1.0  0.35990037758019605  0.5921230446912559  0.5038203030166528  1.0000
  O   O2        1.0  0.35990333142536457  0.4078758707889137  0.003823893655507501  1.0000
  O   O3        1.0  0.2723661967575667  0.9829128988280118  0.4466110383351349  1.0000
  O   O4        1.0  0.2723578982683961  0.017091281164155696  0.9466119436471347  1.0000
  O   O5        1.0  0.90070288047783  0.8567829529112528  0.48136603699037295  1.0000
  O   O6        1.0  0.9006908061477432  0.1432265473798822  0.9813633618976851  1.0000
  O   O7        1.0  0.6302160738319742  0.6634039895524354  0.4058965971989892  1.0000
  O   O8        1.0  0.6302186410791748  0.33660333799056735  0.905898717141632  1.0000
  O   O9        1.0  0.49496773318720244  0.9744358929403703  0.5653482365794318  1.0000
  O   O10       1.0  0.4949903501607764  0.025551458526699395  0.0653499709878886  1.0000
  O   O11       1.0  0.5786627315268474  0.2618400806236211  0.5267583691078244  1.0000
  O   O12       1.0  0.5786807136908294  0.738153162278806  0.026759223838041604  1.0000
  O   O13       1.0  0.8222305508546128  0.5242304112440196  0.5940116171370635  1.0000
  O   O14       1.0  0.8222418238578229  0.4757709464086588  0.09401489476376672  1.0000
