data_image0
_chemical_formula_structural       Cu12H90C120N24
_chemical_formula_sum              "Cu12 H90 C120 N24"
_cell_length_a       30.869754331226048
_cell_length_b       34.16365075386151
_cell_length_c       34.84882885651441
_cell_angle_alpha    89.45320807543948
_cell_angle_beta     88.8986197274133
_cell_angle_gamma    89.8190356969655

_space_group_name_H-M_alt    "P 1"
_space_group_IT_number       1

loop_
  _space_group_symop_operation_xyz
  'x, y, z'

loop_
  _atom_site_type_symbol
  _atom_site_label
  _atom_site_symmetry_multiplicity
  _atom_site_fract_x
  _atom_site_fract_y
  _atom_site_fract_z
  _atom_site_occupancy
  Cu  Cu1       1.0  0.9000101809041539  0.8063991801656273  0.8043418625828165  1.0000
  Cu  Cu2       1.0  0.8263625040189879  0.8666822060522391  0.7879096056537875  1.0000
  Cu  Cu3       1.0  0.8094622707347198  0.7998050543728324  0.8495765377555173  1.0000
  Cu  Cu4       1.0  0.10965151113807538  0.7884135752091767  0.2043100313477453  1.0000
  Cu  Cu5       1.0  0.1898969735380334  0.8460907781039567  0.1967885791808754  1.0000
  Cu  Cu6       1.0  0.17595713852742986  0.7783012991433439  0.13590116666011912  1.0000
  Cu  Cu7       1.0  0.1501293252047446  0.22384514422054022  0.7813857979107226  1.0000
  Cu  Cu8       1.0  0.2217949482370827  0.15730045352276534  0.7887678161820517  1.0000
  Cu  Cu9       1.0  0.20491796263844012  0.2212990304245963  0.8551283727102117  1.0000
  Cu  Cu10      1.0  0.8493101607927684  0.2101536657729568  0.2210067521455059  1.0000
  Cu  Cu11      1.0  0.7965150250443856  0.1318334781498365  0.2231874291797951  1.0000
  Cu  Cu12      1.0  0.778633748615988  0.19756469068976662  0.15846877085596126  1.0000
  H   H1        1.0  0.9744354891444118  0.8399170108811519  0.747472270037875  1.0000
  H   H2        1.0  0.8644536289436215  0.9106665239387015  0.7139171691507542  1.0000
  H   H3        1.0  0.8254782099587602  0.7228166833307699  0.8992349582116502  1.0000
  H   H4        1.0  0.9539226175895692  0.7436397449103042  0.8511979065861439  1.0000
  H   H5        1.0  0.7631841696247649  0.9319297890474446  0.8200348153135053  1.0000
  H   H6        1.0  0.7313684156538401  0.8358505831059589  0.89748899246419  1.0000
  H   H7        1.0  0.0542773463253781  0.8319853429691053  0.2681804530468028  1.0000
  H   H8        1.0  0.17036089669871757  0.9029734464925243  0.2668794417839635  1.0000
  H   H9        1.0  0.1399087053454551  0.7015555796355173  0.0967420365023344  1.0000
  H   H10       1.0  0.04164093333683639  0.7219452879599476  0.1847703419391351  1.0000
  H   H11       1.0  0.26247656660100926  0.8959603473301457  0.15431134106852074  1.0000
  H   H12       1.0  0.23340152692079386  0.8113356332544229  0.06674706104922021  1.0000
  H   H13       1.0  0.0994444002875881  0.19391171036551924  0.7109578331098945  1.0000
  H   H14       1.0  0.19866550719708434  0.1042716388401104  0.7170801867688752  1.0000
  H   H15       1.0  0.1581569943580874  0.2865632937634146  0.9058311174634069  1.0000
  H   H16       1.0  0.07715508654391101  0.28454154681737265  0.8057244341263825  1.0000
  H   H17       1.0  0.28537850240373064  0.09962571409199944  0.8316137973017206  1.0000
  H   H18       1.0  0.2556707906817337  0.1818326622588629  0.9222994770565123  1.0000
  H   H19       1.0  0.916830022887538  0.19344445045603462  0.2860031762262452  1.0000
  H   H20       1.0  0.8404083384764361  0.0874184718746562  0.2933574621679185  1.0000
  H   H21       1.0  0.8032234863998511  0.2654259383228493  0.09872711873726561  1.0000
  H   H22       1.0  0.9031344821252034  0.2785021172994107  0.1832266086438352  1.0000
  H   H23       1.0  0.7498189155839939  0.0598936383820785  0.18504127024992556  1.0000
  H   H24       1.0  0.712680404548564  0.15311397960586254  0.1071387396920542  1.0000
  H   H25       1.0  0.525267609191637  0.0440262072656097  0.0331784358007425  1.0000
  H   H26       1.0  0.5291125191080537  0.9381518879294221  0.9674758000157483  1.0000
  H   H27       1.0  0.4728916141647233  0.020392670460481103  0.9437062560725452  1.0000
  H   H28       1.0  0.4653854519176264  0.9616308491477809  0.0532656068152022  1.0000
  H   H29       1.0  0.6482152830566579  0.9919153609607602  0.0018684033461794963  1.0000
  H   H30       1.0  0.3482515639606945  0.9919880700074586  0.9942471094704358  1.0000
  H   H31       1.0  0.09658158096139151  0.035079857224154395  0.5200433678517555  1.0000
  H   H32       1.0  0.9716127043376304  0.9797521193543517  0.5280611460106499  1.0000
  H   H33       1.0  0.092017114048069  0.9828489751522436  0.46568090443901156  1.0000
  H   H34       1.0  0.965765908120538  0.03504260457736311  0.4804261069850781  1.0000
  H   H35       1.0  0.0409704200240526  0.005724071339770401  0.6307969970867688  1.0000
  H   H36       1.0  0.016253373156764908  0.012248218309821401  0.3668370529392035  1.0000
  H   H37       1.0  0.029112792719907098  0.5095680423968715  0.0340765871543027  1.0000
  H   H38       1.0  0.9099520286820348  0.5203219651030226  0.9726618722116028  1.0000
  H   H39       1.0  0.9030750815159792  0.4608282899415954  0.020540681674738395  1.0000
  H   H40       1.0  0.0342461319175982  0.46522487159428044  0.9768710549266117  1.0000
  H   H41       1.0  0.9729850517557351  0.6233399412536471  0.014568375743479602  1.0000
  H   H42       1.0  0.9697225562410736  0.3541401078233691  0.9902329945921693  1.0000
  H   H43       1.0  0.9130368098106131  0.9296392965365214  0.6539686474207898  1.0000
  H   H44       1.0  0.0117286654623783  0.9471487790070441  0.6470991347746775  1.0000
  H   H45       1.0  0.9942173718904073  0.9011168675289556  0.6962408150674833  1.0000
  H   H46       1.0  0.9368257842647479  0.9678145147302857  0.5933634432226214  1.0000
  H   H47       1.0  0.13635420060500533  0.9311193427162366  0.3339453309778904  1.0000
  H   H48       1.0  0.040010067240878286  0.9502006860838252  0.3541976431229585  1.0000
  H   H49       1.0  0.0473310362806174  0.8999924822018883  0.310265271606788  1.0000
  H   H50       1.0  0.12278639542222439  0.9739422688248001  0.3958431792136778  1.0000
  H   H51       1.0  0.16363107182158387  0.0817595133933935  0.6471561463403006  1.0000
  H   H52       1.0  0.06475986529967767  0.07332228586990651  0.633644205136136  1.0000
  H   H53       1.0  0.08093528114383729  0.12591305677979392  0.6723472099277643  1.0000
  H   H54       1.0  0.14105673207357236  0.039133438759400015  0.586662098170244  1.0000
  H   H55       1.0  0.8839959948084226  0.07748966925345971  0.3601926275686012  1.0000
  H   H56       1.0  0.984693544280013  0.07726299270429143  0.36308255784852855  1.0000
  H   H57       1.0  0.9561825788483064  0.1283484806960971  0.3236373129997574  1.0000
  H   H58       1.0  0.9172634683285494  0.039784123707263995  0.418122982250317  1.0000
  H   H59       1.0  0.8618186179117161  0.6560338755245426  0.9274905188227507  1.0000
  H   H60       1.0  0.9556282138764303  0.6415783463029854  0.9555468903536452  1.0000
  H   H61       1.0  0.9519917141434461  0.6917575370104531  0.9116284008744913  1.0000
  H   H62       1.0  0.8750851082992739  0.5892899827899357  0.9653272724974897  1.0000
  H   H63       1.0  0.8411401872920121  0.33165560024214363  0.0667366642907794  1.0000
  H   H64       1.0  0.9400703867534759  0.34795920725321855  0.05787189632692959  1.0000
  H   H65       1.0  0.9226277223186585  0.31191145394590336  0.1127744091520739  1.0000
  H   H66       1.0  0.8636789808000955  0.39108341256719104  0.020774062573309496  1.0000
  H   H67       1.0  0.09692225160356571  0.6345500945912833  0.0867666466661419  1.0000
  H   H68       1.0  0.9974144556029145  0.6286513609154768  0.0757653396325608  1.0000
  H   H69       1.0  0.0164820861534807  0.6737594361558197  0.1235499794515107  1.0000
  H   H70       1.0  0.07108354423726838  0.574157527121443  0.0483035693665457  1.0000
  H   H71       1.0  0.108371999303742  0.3475006272413665  0.9252688091324898  1.0000
  H   H72       1.0  0.007486060244346501  0.35035237450931334  0.9274407817901819  1.0000
  H   H73       1.0  0.0375947682188595  0.31515620886350604  0.8732848882924885  1.0000
  H   H74       1.0  0.07534332132735239  0.400758436701409  0.9673651387889066  1.0000
  H   H75       1.0  0.6665678941678335  0.8810818642176984  0.91931287608962  1.0000
  H   H76       1.0  0.6643004276084027  0.9701730025984012  0.9373439652056418  1.0000
  H   H77       1.0  0.7145851391091682  0.952956394952615  0.8858827362942066  1.0000
  H   H78       1.0  0.6015361728616568  0.903212281291694  0.9584939294423762  1.0000
  H   H79       1.0  0.3433717739185339  0.0723185761389473  0.8799550206336021  1.0000
  H   H80       1.0  0.3382668461745197  0.0576136812539119  0.9682615943951801  1.0000
  H   H81       1.0  0.2944388911988796  0.1121736095449251  0.9468732960365501  1.0000
  H   H82       1.0  0.4034751736303477  0.030014095748491305  0.9062260147829946  1.0000
  H   H83       1.0  0.6547786282537656  0.10366175018934601  0.0853192507850977  1.0000
  H   H84       1.0  0.661885564304015  0.015407604259728203  0.0645221261485673  1.0000
  H   H85       1.0  0.7092909222938603  0.03525065197561621  0.11673561693720562  1.0000
  H   H86       1.0  0.5945912271101433  0.07916586056055051  0.0458197013028681  1.0000
  H   H87       1.0  0.32746795157910924  0.9140446903362759  0.10862682359014292  1.0000
  H   H88       1.0  0.33099654082114677  0.9294170224443475  0.0204245898139774  1.0000
  H   H89       1.0  0.27960889012692297  0.8785243541606462  0.04052427057247599  1.0000
  H   H90       1.0  0.3922543070766976  0.9518550295747376  0.0852932372190054  1.0000
  C   C1        1.0  0.9431435377981501  0.8539613852428971  0.7439056767409938  1.0000
  C   C2        1.0  0.9312403320933739  0.883793760718767  0.7179748063865432  1.0000
  C   C3        1.0  0.886891586632302  0.889773321070706  0.7262669555149587  1.0000
  C   C4        1.0  0.8540440722091986  0.7324205247399292  0.8831717575611151  1.0000
  C   C5        1.0  0.8972948506466878  0.7195280013987286  0.8855717276114632  1.0000
  C   C6        1.0  0.9196932980970018  0.7436356817178763  0.8589500924654061  1.0000
  C   C7        1.0  0.7599658519131863  0.9042787665098546  0.8354300819767886  1.0000
  C   C8        1.0  0.7343308189579929  0.8950996345553079  0.8681007038285244  1.0000
  C   C9        1.0  0.7430652549076485  0.8551113982121237  0.8746487876119885  1.0000
  C   C10       1.0  0.0857941429714728  0.8452754999418773  0.2630978551418224  1.0000
  C   C11       1.0  0.10398424118396578  0.8781788413656744  0.2806016828775455  1.0000
  C   C12       1.0  0.14532945538940112  0.8812053292986235  0.2630397829075335  1.0000
  C   C13       1.0  0.1205590592619288  0.7109595049162466  0.12132014594791228  1.0000
  C   C14       1.0  0.0794688934145356  0.6980039003790071  0.1341709640902806  1.0000
  C   C15       1.0  0.07001302494946061  0.7219743033252898  0.16587333085804087  1.0000
  C   C16       1.0  0.25167481841943834  0.871433866493895  0.1374444931546037  1.0000
  C   C17       1.0  0.26034037244464503  0.8627372319965899  0.09862313781117389  1.0000
  C   C18       1.0  0.2361660105234691  0.8285681741007737  0.0925916886768334  1.0000
  C   C19       1.0  0.12721386482023428  0.17553163484122083  0.7173161171000046  1.0000
  C   C20       1.0  0.13997089602263907  0.13987848374704734  0.7006168566738181  1.0000
  C   C21       1.0  0.17830718016449507  0.13008252259950842  0.7198295507996022  1.0000
  C   C22       1.0  0.14379763517751343  0.2826739568108607  0.8779427069660528  1.0000
  C   C23       1.0  0.10389029712648319  0.29651941816434413  0.8642302795772209  1.0000
  C   C24       1.0  0.1020671365835852  0.2809738666509035  0.8270523308694848  1.0000
  C   C25       1.0  0.27502736298097114  0.12399148413523159  0.8493524649405799  1.0000
  C   C26       1.0  0.2810959150579393  0.1302219524986228  0.8887871778638115  1.0000
  C   C27       1.0  0.25919620049580067  0.16571032769849128  0.8957228491899584  1.0000
  C   C28       1.0  0.8933212574747101  0.17011512261181855  0.2832730244566193  1.0000
  C   C29       1.0  0.8913168838349748  0.13361240221617274  0.3022161390304134  1.0000
  C   C30       1.0  0.8537574058994579  0.11629380068784911  0.28768281526006234  1.0000
  C   C31       1.0  0.8236829730459121  0.2646964133866805  0.12369256182834931  1.0000
  C   C32       1.0  0.8629263462920916  0.2842955559351383  0.13011386770948263  1.0000
  C   C33       1.0  0.875042617705496  0.27077803810863105  0.1666390990126985  1.0000
  C   C34       1.0  0.7444687905776776  0.08723911524321443  0.169710175947138  1.0000
  C   C35       1.0  0.7207788250578558  0.09422124638306428  0.1362152023230934  1.0000
  C   C36       1.0  0.7248351906443274  0.1348795322302081  0.1302406967124909  1.0000
  C   C37       1.0  0.5439746598462352  0.021001075182077507  0.018940723305767897  1.0000
  C   C38       1.0  0.5222343971928467  0.991070843411187  0.00020288940615390157  1.0000
  C   C39       1.0  0.5461374056817617  0.9613154279262943  0.9823454777687957  1.0000
  C   C40       1.0  0.5917541533660466  0.9618911103014437  0.9816928234081744  1.0000
  C   C41       1.0  0.6128942930562288  0.9916458613111062  0.0015225141001024957  1.0000
  C   C42       1.0  0.5895179427995031  0.021035619426363904  0.020911648467667007  1.0000
  C   C43       1.0  0.4740795622518803  0.9910953574786064  0.9987064892291712  1.0000
  C   C44       1.0  0.45338772676984723  0.0074015642736569  0.9669495420430892  1.0000
  C   C45       1.0  0.4078689205171457  0.0093416919965819  0.965643376809588  1.0000
  C   C46       1.0  0.38353095885513966  0.9916263945614788  0.9954512479507543  1.0000
  C   C47       1.0  0.40367328559925403  0.9734783834391794  0.026794425364805398  1.0000
  C   C48       1.0  0.44918170524483964  0.9748664757452162  0.028751930423538904  1.0000
  C   C49       1.0  0.07067363284951972  0.0218875692961618  0.5375114961068874  1.0000
  C   C50       1.0  0.03371263131011659  0.0075898988130659985  0.5196382566612243  1.0000
  C   C51       1.0  0.9997480820789091  0.9919477190618694  0.5421681229401187  1.0000
  C   C52       1.0  0.002667294981762298  0.9892653979301046  0.5822746061868997  1.0000
  C   C53       1.0  0.0389284060808848  0.0058540109429686  0.599600986627344  1.0000
  C   C54       1.0  0.0727483116594385  0.022792983506462902  0.5777831465565981  1.0000
  C   C55       1.0  0.029626790280566702  0.0092514677749662  0.4774255994794032  1.0000
  C   C56       1.0  0.06300026547841502  0.995604282444788  0.4531436197871628  1.0000
  C   C57       1.0  0.057705260236083716  0.9947152994591943  0.4131726734565149  1.0000
  C   C58       1.0  0.0201187412746648  0.0115085525999561  0.39786516968504054  1.0000
  C   C59       1.0  0.9868864152082537  0.0265659500593713  0.42151778918969274  1.0000
  C   C60       1.0  0.9913722813803005  0.023779073815596508  0.4614803796644935  1.0000
  C   C61       1.0  0.0037565136986827986  0.528057487938341  0.0220442938849814  1.0000
  C   C62       1.0  0.9691274536592189  0.510519194872721  0.0033376951311225923  1.0000
  C   C63       1.0  0.9359198168341436  0.5339692907226876  0.9885870403017663  1.0000
  C   C64       1.0  0.9379363231150961  0.5749975725735866  0.9909498756766836  1.0000
  C   C65       1.0  0.9717307490568031  0.5916403320601802  0.011607773049071601  1.0000
  C   C66       1.0  0.004625891833740099  0.5686939921547135  0.027719300132361  1.0000
  C   C67       1.0  0.9685407003332996  0.4675544339722677  0.9988024131626645  1.0000
  C   C68       1.0  0.9315251317054917  0.44582814241298513  0.008681511039064598  1.0000
  C   C69       1.0  0.9323564834939119  0.4047156536029419  0.007466577619695195  1.0000
  C   C70       1.0  0.9693159017242935  0.3859887984871264  0.9922203656955729  1.0000
  C   C71       1.0  0.006010679047221899  0.40743409589041596  0.9802086637886518  1.0000
  C   C72       1.0  0.0057954743350308  0.44812343661641313  0.9854140506731354  1.0000
  C   C73       1.0  0.9594761884896316  0.904232535471593  0.6911665301293866  1.0000
  C   C74       1.0  0.9473413433783692  0.9271009661561821  0.6610746014321052  1.0000
  C   C75       1.0  0.9781093191459221  0.9482904761947712  0.6376225184333606  1.0000
  C   C76       1.0  0.969591962463909  0.9684291518759168  0.6048545897288164  1.0000
  C   C77       1.0  0.0826611735262262  0.9027836342392279  0.3086167768281314  1.0000
  C   C78       1.0  0.1010676221133693  0.9284337508950671  0.3329799662496598  1.0000
  C   C79       1.0  0.0750116122859978  0.9517707265270661  0.3586248113328949  1.0000
  C   C80       1.0  0.08851841819119237  0.9737246413896586  0.38833206922222263  1.0000
  C   C81       1.0  0.11539662461179738  0.11822382320018218  0.6731397574588982  1.0000
  C   C82       1.0  0.1292108332764101  0.08940202058367669  0.6492411939730047  1.0000
  C   C83       1.0  0.09901777985168542  0.06810061673214564  0.6264875984110104  1.0000
  C   C84       1.0  0.1077523419744963  0.043269035704796004  0.5972167463753308  1.0000
  C   C85       1.0  0.9232437543573083  0.11693482678814601  0.3274155158004604  1.0000
  C   C86       1.0  0.9168501713641888  0.08805164884643091  0.353923547422511  1.0000
  C   C87       1.0  0.9521148631020254  0.07000882214773439  0.3739364683625084  1.0000
  C   C88       1.0  0.9489751970110801  0.04540376185442341  0.4045935728066965  1.0000
  C   C89       1.0  0.9166802511835641  0.6900019924413955  0.9096160442182466  1.0000
  C   C90       1.0  0.8968064464059395  0.6604648590534767  0.9294987164507376  1.0000
  C   C91       1.0  0.9214120134714745  0.6338693361161136  0.9526885957828313  1.0000
  C   C92       1.0  0.9080295585911387  0.599948464534677  0.969605616098768  1.0000
  C   C93       1.0  0.8883809779604804  0.3097884857469708  0.10538136373764219  1.0000
  C   C94       1.0  0.8753518727278262  0.33082642927251993  0.0744053765778716  1.0000
  C   C95       1.0  0.9058629899412338  0.3534604323432689  0.051782709248108495  1.0000
  C   C96       1.0  0.897171329792691  0.38207501918410003  0.025842513439748395  1.0000
  C   C97       1.0  0.0510841038123999  0.6699106532812992  0.1170390742495258  1.0000
  C   C98       1.0  0.06261456206991062  0.6407840816867961  0.0925809310259069  1.0000
  C   C99       1.0  0.030989424052407302  0.6184992966831474  0.0725788014428161  1.0000
  C   C100      1.0  0.0385673985316473  0.5870158249174154  0.0499838684790888  1.0000
  C   C101      1.0  0.07042705356609251  0.318468344724117  0.8841400715492611  1.0000
  C   C102      1.0  0.07568276125368807  0.3417187638446962  0.9150772098805788  1.0000
  C   C103      1.0  0.0399864363253997  0.35997636617292983  0.9351363881652334  1.0000
  C   C104      1.0  0.043335861593313  0.38875017873753853  0.9614113567769849  1.0000
  C   C105      1.0  0.7076927778263028  0.921788136801993  0.8902346405193384  1.0000
  C   C106      1.0  0.6756915902026464  0.9118801383917942  0.9157779344512277  1.0000
  C   C107      1.0  0.6521703485194905  0.9400672754829742  0.9384160902514793  1.0000
  C   C108      1.0  0.6157084430305416  0.9325304864378197  0.9595030006672971  1.0000
  C   C109      1.0  0.3028894761895701  0.10621449494227875  0.9168221262812608  1.0000
  C   C110      1.0  0.3326060394965679  0.07768399033089682  0.9095726443986294  1.0000
  C   C111      1.0  0.352147999446565  0.05451002356546301  0.939268529786098  1.0000
  C   C112      1.0  0.38733879332025367  0.031052856062011396  0.934469050766168  1.0000
  C   C113      1.0  0.6989458729770986  0.06572667701422572  0.1131317547405146  1.0000
  C   C114      1.0  0.667076506861946  0.07365037647341668  0.08782478723558279  1.0000
  C   C115      1.0  0.6471793410432555  0.0446412458956544  0.0644007770676254  1.0000
  C   C116      1.0  0.610867640735144  0.05069516388831371  0.043766065861888095  1.0000
  C   C117      1.0  0.28651699879052467  0.8839982961879687  0.07069980446352278  1.0000
  C   C118      1.0  0.3185276539242565  0.9096929931177586  0.0787063469259977  1.0000
  C   C119      1.0  0.34253654250552046  0.9312991755676594  0.049884855734895  1.0000
  C   C120      1.0  0.37886936684584066  0.9522996874804052  0.05640738527075229  1.0000
  N   N1        1.0  0.8737768845176888  0.8655838924625882  0.7549129355124649  1.0000
  N   N2        1.0  0.9086709496579175  0.8430875342482695  0.765722714704367  1.0000
  N   N3        1.0  0.8920573355869477  0.7686241241609011  0.8419900515237302  1.0000
  N   N4        1.0  0.851230216577676  0.7618401827927244  0.85725489582628  1.0000
  N   N5        1.0  0.7717124976301902  0.8418384428302091  0.8481040185814592  1.0000
  N   N6        1.0  0.7819512969472766  0.8723587395005625  0.8235147262180149  1.0000
  N   N7        1.0  0.15097685409910613  0.8524344249566981  0.23717855331267404  1.0000
  N   N8        1.0  0.11404976996318078  0.8299164753299024  0.23743710702554918  1.0000
  N   N9        1.0  0.1028070762037032  0.7470823822868911  0.1713938974059914  1.0000
  N   N10       1.0  0.13408057595621875  0.7404448145134597  0.14348748199397218  1.0000
  N   N11       1.0  0.21516061247973534  0.8177265474604453  0.1252307559160357  1.0000
  N   N12       1.0  0.2245362287305781  0.8445885901123946  0.1530393528536749  1.0000
  N   N13       1.0  0.18721007157280672  0.1576286897323627  0.7460139337117795  1.0000
  N   N14       1.0  0.15557189205713942  0.18605761168569052  0.7441890601338342  1.0000
  N   N15       1.0  0.13790657748901217  0.2596158227950625  0.8193625587441956  1.0000
  N   N16       1.0  0.1637017882390026  0.26039366087407256  0.8511378818734343  1.0000
  N   N17       1.0  0.24178832954257962  0.1795220798900274  0.8630997342701576  1.0000
  N   N18       1.0  0.25134549030654085  0.15339500902176442  0.8342946943577658  1.0000
  N   N19       1.0  0.8352910809920289  0.14051299862027383  0.2619223680404374  1.0000
  N   N20       1.0  0.8596720460631816  0.17414608842416615  0.2594760965659191  1.0000
  N   N21       1.0  0.8455194833213326  0.24523157781472807  0.1807219897830308  1.0000
  N   N22       1.0  0.8136900408566275  0.24121080627264754  0.1539054775528186  1.0000
  N   N23       1.0  0.7490646899755049  0.15060940374140588  0.15789261981895206  1.0000
  N   N24       1.0  0.760981078443997  0.12101509091021968  0.1826672136215777  1.0000
