data_image0
_chemical_formula_structural       Cu2H8C8Br2N4
_chemical_formula_sum              "Cu2 H8 C8 Br2 N4"
_cell_length_a       3.8755363967591507
_cell_length_b       6.405876864658434
_cell_length_c       11.703233777841504
_cell_angle_alpha    89.99847292590673
_cell_angle_beta     99.12901422527159
_cell_angle_gamma    90.00380743660901

_space_group_name_H-M_alt    "P 1"
_space_group_IT_number       1

loop_
  _space_group_symop_operation_xyz
  'x, y, z'

loop_
  _atom_site_type_symbol
  _atom_site_label
  _atom_site_symmetry_multiplicity
  _atom_site_fract_x
  _atom_site_fract_y
  _atom_site_fract_z
  _atom_site_occupancy
  Cu  Cu1       1.0  0.9999630843385602  0.2663225968697632  0.24999596313823955  1.0000
  Cu  Cu2       1.0  6.800943261000392e-06  0.7336652299776322  0.7500089999589861  1.0000
  H   H1        1.0  0.7617247502185902  0.3509406564984019  0.4742594885979016  1.0000
  H   H2        1.0  0.23828832063593805  0.35096941343754656  0.025729308317742998  1.0000
  H   H3        1.0  0.23833672743420914  0.6490487331027809  0.5257523242852216  1.0000
  H   H4        1.0  0.7616756058066938  0.6490527571037036  0.9742617021619466  1.0000
  H   H5        1.0  0.24052141716555295  0.8426725129140922  0.3408151375690736  1.0000
  H   H6        1.0  0.7594789196758283  0.8426844968812193  0.15918779016805468  1.0000
  H   H7        1.0  0.7595392321144699  0.1572809725279498  0.6591812540543813  1.0000
  H   H8        1.0  0.24048794092328757  0.1573329903660294  0.8408093398214476  1.0000
  C   C1        1.0  0.8707574078825076  0.1940990918419345  0.48623703607268  1.0000
  C   C2        1.0  0.12924205142030587  0.1941302679958525  0.013756659613278495  1.0000
  C   C3        1.0  0.1292706977722133  0.8058887357749358  0.5137843249554237  1.0000
  C   C4        1.0  0.870729071235395  0.8058934640505911  0.9862227232456461  1.0000
  C   C5        1.0  0.13196060422028213  0.914902197431836  0.41164672295229826  1.0000
  C   C6        1.0  0.8680050222277771  0.9149159091597525  0.0883450594634922  1.0000
  C   C7        1.0  0.8680509966919772  0.08507938599026232  0.5883584830502072  1.0000
  C   C8        1.0  0.1319481769325037  0.0851093834384145  0.9116403214391652  1.0000
  Br  Br1       1.0  0.5000295658812205  0.5103071455775349  0.25002473871450787  1.0000
  Br  Br2       1.0  0.49999092990481836  0.4896713153870706  0.7500005392608814  1.0000
  N   N1        1.0  0.003168580924416599  0.11112086313572432  0.3961368217005655  1.0000
  N   N2        1.0  0.9968216458301027  0.1111405858713752  0.10384730706935838  1.0000
  N   N3        1.0  0.9968548458334323  0.8888732096253803  0.6038458634922889  1.0000
  N   N4        1.0  0.003150487883964099  0.8889003174532633  0.8961509241107422  1.0000
