data_image0
_chemical_formula_structural       Zn4H52C36N4O8
_chemical_formula_sum              "Zn4 H52 C36 N4 O8"
_cell_length_a       7.467003983
_cell_length_b       9.079011604037232
_cell_length_c       16.0551
_cell_angle_alpha    90.0
_cell_angle_beta     90.0
_cell_angle_gamma    109.22203172646296

_space_group_name_H-M_alt    "P 1"
_space_group_IT_number       1

loop_
  _space_group_symop_operation_xyz
  'x, y, z'

loop_
  _atom_site_type_symbol
  _atom_site_label
  _atom_site_symmetry_multiplicity
  _atom_site_fract_x
  _atom_site_fract_y
  _atom_site_fract_z
  _atom_site_occupancy
  Zn  Zn1       1.0  0.5133610646200708  0.6948688397070129  0.8006116436521749  1.0000
  Zn  Zn2       1.0  0.4866429747051627  0.8051354859229889  0.3006097750870467  1.0000
  Zn  Zn3       1.0  0.48663879254517906  0.3051352105188343  0.19938897920287244  1.0000
  Zn  Zn4       1.0  0.5133554816249202  0.1948650648853274  0.6993889792028722  1.0000
  H   H1        1.0  0.15468686736135603  0.7144562460675203  0.8530952781359173  1.0000
  H   H2        1.0  0.8453130310683294  0.7855410807274339  0.3530959009909651  1.0000
  H   H3        1.0  0.8453169458695771  0.28554430474079606  0.146902853298954  1.0000
  H   H4        1.0  0.15467517840509976  0.21446063655339034  0.6469047218640824  1.0000
  H   H5        1.0  0.0379643385736088  0.859053344677257  0.8562463017981796  1.0000
  H   H6        1.0  0.9620368990812906  0.6409439821176904  0.3562456789431394  1.0000
  H   H7        1.0  0.9620390077122707  0.14094603965855165  0.1437524524917322  1.0000
  H   H8        1.0  0.03795806812816245  0.3590612345806577  0.643756189621989  1.0000
  H   H9        1.0  0.23697299297103314  0.8776270864279923  0.9209235694576776  1.0000
  H   H10       1.0  0.76302917857398  0.6223725733119707  0.42092294660263707  1.0000
  H   H11       1.0  0.7630339656553815  0.12237463085283201  0.0790751848322344  1.0000
  H   H12       1.0  0.23696444941025877  0.3776326433863774  0.5790782991074508  1.0000
  H   H13       1.0  0.5815385025160467  0.8658013881381664  0.6337369434011604  1.0000
  H   H14       1.0  0.4184717659902051  0.6342017710193277  0.1337406805314174  1.0000
  H   H15       1.0  0.41846163676439835  0.1341933303076104  0.3662599423236229  1.0000
  H   H16       1.0  0.5815252895047112  0.365795280371465  0.866259942323623  1.0000
  H   H17       1.0  0.8154284882909625  0.9179135474494802  0.5164701559006204  1.0000
  H   H18       1.0  0.18458975395660818  0.5820861122904903  0.0164720244657488  1.0000
  H   H19       1.0  0.1845746731650593  0.0820753386337501  0.4835279755342512  1.0000
  H   H20       1.0  0.8154046846978321  0.4179144385178334  0.983527975534251  1.0000
  H   H21       1.0  0.09311232657618261  0.8187902131059417  0.5283349216136912  1.0000
  H   H22       1.0  0.9069076602317028  0.6812071136890127  0.028329315918306  1.0000
  H   H23       1.0  0.906890834879832  0.18119867297729544  0.4716675698064775  1.0000
  H   H24       1.0  0.0930949369939285  0.3188004359543584  0.971670684081694  1.0000
  H   H25       1.0  0.1158130894133152  0.6640692995960793  0.6567483229627982  1.0000
  H   H26       1.0  0.8841881482415844  0.8359280271988752  0.15673960299219655  1.0000
  H   H27       1.0  0.8841852436968551  0.3359242523771897  0.34325790558763447  1.0000
  H   H28       1.0  0.11581666048941493  0.16407835597198786  0.8432603970078032  1.0000
  H   H29       1.0  0.860538710496897  0.6120329609978017  0.7628977708017999  1.0000
  H   H30       1.0  0.1394581041472662  0.8879666987421616  0.2628940336715431  1.0000
  H   H31       1.0  0.1394593404980854  0.3879699227555308  0.23710783489358528  1.0000
  H   H32       1.0  0.8605452421386135  0.11203268559364693  0.7371072120385449  1.0000
  H   H33       1.0  0.48033762996694673  0.5889111429369436  0.9504412927979258  1.0000
  H   H34       1.0  0.5196619247375908  0.9110920162205505  0.4504381785227096  1.0000
  H   H35       1.0  0.519668456379307  0.4110917408163886  0.049558707202074  1.0000
  H   H36       1.0  0.4803360030374791  0.0889038686977344  0.5495611986222428  1.0000
  H   H37       1.0  0.7147293755498512  0.6367633446477046  0.915618713056908  1.0000
  H   H38       1.0  0.28526971220963304  0.8632386480372818  0.4156149759266511  1.0000
  H   H39       1.0  0.2852754331811411  0.3632430385231586  0.0843787955229161  1.0000
  H   H40       1.0  0.7147260040600687  0.136758403353511  0.5843850240733488  1.0000
  H   H41       1.0  0.6851896843167395  0.8222942965210722  0.0312835173869956  1.0000
  H   H42       1.0  0.31481080427791863  0.6777111955814377  0.531281648821867  1.0000
  H   H43       1.0  0.314815062804307  0.1777085872322601  0.9687164826130044  1.0000
  H   H44       1.0  0.6851875904422117  0.3222858558093549  0.4687171054680448  1.0000
  H   H45       1.0  0.5308569174578751  0.88332530463137  0.967265853217981  1.0000
  H   H46       1.0  0.4691421703016162  0.6166766880536159  0.4672652303629405  1.0000
  H   H47       1.0  0.469148296608232  0.11667874559447  0.032735392492107  1.0000
  H   H48       1.0  0.5308562244185142  0.3833203633371768  0.5327335239269784  1.0000
  H   H49       1.0  0.7689049929877287  0.9236607574982116  0.9372106059756717  1.0000
  H   H50       1.0  0.23109502866186923  0.5763435681317901  0.4372093602655838  1.0000
  H   H51       1.0  0.23109934879821742  0.07634445920014343  0.0627893940243283  1.0000
  H   H52       1.0  0.7689033660582609  0.4236534832590024  0.5627900168793687  1.0000
  C   C1        1.0  0.3101891345192912  0.9335256155014734  0.7940143630372916  1.0000
  C   C2        1.0  0.6898102969653408  0.566470544820973  0.2940143630372916  1.0000
  C   C3        1.0  0.6898128725413741  0.06647376883433512  0.20598376839758  1.0000
  C   C4        1.0  0.3101836747440459  0.4335288395148353  0.7059875055278368  1.0000
  C   C5        1.0  0.17472274729327353  0.8391661548821006  0.8593014057838317  1.0000
  C   C6        1.0  0.8252776180814722  0.6608323383853618  0.3593007829287913  1.0000
  C   C7        1.0  0.8252810659376594  0.1608343959262157  0.1406979713611278  1.0000
  C   C8        1.0  0.1747164152378673  0.3391705453679776  0.6407004627812967  1.0000
  C   C9        1.0  0.7007975533681758  0.8217670509472939  0.6348873566654802  1.0000
  C   C10       1.0  0.2992140543632829  0.6782361082102  0.1348861109553994  1.0000
  C   C11       1.0  0.2992030528573224  0.17822883397099082  0.3651126433345198  1.0000
  C   C12       1.0  0.7007852742469609  0.3217632761256084  0.8651126433345195  1.0000
  C   C13       1.0  0.8334638477584024  0.8520906702748123  0.5706741160129809  1.0000
  C   C14       1.0  0.1665567292144488  0.6479148218276976  0.0706753617230689  1.0000
  C   C15       1.0  0.16653984225262522  0.1479028816984567  0.4293240154218907  1.0000
  C   C16       1.0  0.833445339456169  0.3520880619256417  0.9293252611319787  1.0000
  C   C17       1.0  0.9860132873857314  0.7962364671566533  0.5772620538022151  1.0000
  C   C18       1.0  0.013996919510567783  0.7037631925833168  0.0772564481068301  1.0000
  C   C19       1.0  0.013989001790129393  0.20375358539909175  0.422741060472994  1.0000
  C   C20       1.0  0.9860047438249497  0.29624202411503836  0.9227423061830817  1.0000
  C   C21       1.0  0.9991502527269558  0.7095990545426787  0.6473307547134581  1.0000
  C   C22       1.0  0.0008577426639604004  0.7904017716697993  0.14732639472815373  1.0000
  C   C23       1.0  0.000849014273328007  0.29039683037560593  0.3526729824167987  1.0000
  C   C24       1.0  0.9991465991219786  0.2096034450285487  0.8526736052718462  1.0000
  C   C25       1.0  0.8584271885822689  0.6816340426270742  0.7077968994275992  1.0000
  C   C26       1.0  0.141571432232162  0.8183667835854038  0.2077944080074232  1.0000
  C   C27       1.0  0.14157167308291468  0.3183641752362264  0.2922055919925768  1.0000
  C   C28       1.0  0.858427024097921  0.1816337672229196  0.7922043462824888  1.0000
  C   C29       1.0  0.592814313814273  0.6799169950947574  0.9172487247043009  1.0000
  C   C30       1.0  0.4071865801154787  0.8200861640627368  0.4172456104290845  1.0000
  C   C31       1.0  0.40718868874645864  0.3200882216035907  0.0827518981507467  1.0000
  C   C32       1.0  0.5928118146046517  0.1799108873280559  0.5827537667158749  1.0000
  C   C33       1.0  0.6471578837977532  0.8340826676906374  0.9657236641316445  1.0000
  C   C34       1.0  0.3528434770770589  0.6659216579393643  0.4657217955665161  1.0000
  C   C35       1.0  0.3528473302683467  0.16592138253520974  0.03427633586835548  1.0000
  C   C36       1.0  0.6471549176430715  0.3340753934514282  0.5342763358683555  1.0000
  N   N1        1.0  0.7131195653995519  0.7379548347485851  0.7024939115919577  1.0000
  N   N2        1.0  0.2868871523761101  0.7620494908814238  0.202493911591958  1.0000
  N   N3        1.0  0.2868806354908386  0.2620433831147224  0.2975067112630896  1.0000
  N   N4        1.0  0.7131131101242405  0.2379522263994076  0.7975067112630894  1.0000
  O   O1        1.0  0.44778258325968084  0.8918977110953608  0.7689089448212698  1.0000
  O   O2        1.0  0.5522164428898505  0.6081007821721016  0.2689108133863982  1.0000
  O   O3        1.0  0.5522176792406699  0.10810400618546373  0.2310873180484734  1.0000
  O   O4        1.0  0.44777840109969713  0.3918974356912059  0.7310891866136018  1.0000
  O   O5        1.0  0.28561893938743316  0.05847876626198461  0.7677473201661795  1.0000
  O   O6        1.0  0.7143797577934026  0.44151917619715425  0.2677466973111322  1.0000
  O   O7        1.0  0.7143790499975966  0.9415206180738238  0.232249565558611  1.0000
  O   O8        1.0  0.2856168923664059  0.5584802081386542  0.7322564169640771  1.0000
