data_image0
_chemical_formula_structural       Ag2H22C24N12O8
_chemical_formula_sum              "Ag2 H22 C24 N12 O8"
_cell_length_a       4.955024093710053
_cell_length_b       11.22125965888617
_cell_length_c       13.07637599977301
_cell_angle_alpha    90.00001357685737
_cell_angle_beta     89.99734153296205
_cell_angle_gamma    102.26676765480167

_space_group_name_H-M_alt    "P 1"
_space_group_IT_number       1

loop_
  _space_group_symop_operation_xyz
  'x, y, z'

loop_
  _atom_site_type_symbol
  _atom_site_label
  _atom_site_symmetry_multiplicity
  _atom_site_fract_x
  _atom_site_fract_y
  _atom_site_fract_z
  _atom_site_occupancy
  Ag  Ag1       1.0  0.324422172948978  0.5063162046967307  0.25495643855733613  1.0000
  Ag  Ag2       1.0  0.6755723171709463  0.49368370164793846  0.7549709031501237  1.0000
  H   H1        1.0  0.8985436079396294  0.626865916106773  0.13546096082870918  1.0000
  H   H2        1.0  0.1014990621676333  0.37314612931231744  0.6354636170519329  1.0000
  H   H3        1.0  0.6579963593979058  0.6165432446473316  0.9649934202919112  1.0000
  H   H4        1.0  0.34201312408199397  0.383461726423114  0.46498837732525533  1.0000
  H   H5        1.0  0.036605380070874126  0.3391104559325412  0.8726994284183361  1.0000
  H   H6        1.0  0.9633787571210346  0.6608743920701483  0.3727014113322865  1.0000
  H   H7        1.0  0.2282185665997929  0.12384526554495066  0.024710246849401995  1.0000
  H   H8        1.0  0.7716837992868262  0.8761477078411555  0.5247133592027424  1.0000
  H   H9        1.0  0.5584197098351565  0.2073044853800567  0.9864897102794215  1.0000
  H   H10       1.0  0.4415322027346847  0.792651379438375  0.48648641451354274  1.0000
  H   H11       1.0  0.2648999686724807  0.2183986086437386  0.9145893923232575  1.0000
  H   H12       1.0  0.735115818786781  0.78160055363049  0.4145938350571611  1.0000
  H   H13       1.0  0.8334592464896389  0.22398475175739918  0.4750146366797877  1.0000
  H   H14       1.0  0.1665119208209802  0.7760385207763034  0.9750315895738876  1.0000
  H   H15       1.0  0.1598344447515743  0.0854433030297201  0.5164820752143484  1.0000
  H   H16       1.0  0.8401295332532682  0.9145698157143867  0.016492019121400896  1.0000
  H   H17       1.0  0.2848615229016787  0.9553228611125417  0.3724011963526194  1.0000
  H   H18       1.0  0.7151217173537318  0.04468624905838679  0.8724016191585591  1.0000
  H   H19       1.0  0.10024499544876872  0.9734351766084967  0.1999568243887637  1.0000
  H   H20       1.0  0.8997825661872341  0.0265585535404185  0.6999599143359347  1.0000
  H   H21       1.0  0.6099993544499681  0.1849496823923857  0.14780502510924257  1.0000
  H   H22       1.0  0.3899881077631662  0.8150312822324821  0.6478251741856338  1.0000
  C   C1        1.0  0.9282353423187216  0.560514452869718  0.0780374377562509  1.0000
  C   C2        1.0  0.07179107458917142  0.4394880095467713  0.5780380410021876  1.0000
  C   C3        1.0  0.7975494461762833  0.5566360684912864  0.9833047781576809  1.0000
  C   C4        1.0  0.20247235945569036  0.4433631443238469  0.483305669205471  1.0000
  C   C5        1.0  0.007191314667259981  0.4011929369494138  0.9336214888332319  1.0000
  C   C6        1.0  0.9928187957563921  0.5988015270238874  0.4336219778177366  1.0000
  C   C7        1.0  0.13010540586308386  0.4013259480707133  0.0302728374228849  1.0000
  C   C8        1.0  0.8699041295888604  0.5986686951702253  0.5302792331454711  1.0000
  C   C9        1.0  0.30202946030240707  0.31431619924789794  0.060169542518074985  1.0000
  C   C10       1.0  0.6979769814147684  0.6856800097250538  0.5601781474104753  1.0000
  C   C11       1.0  0.33901223254999724  0.21126633412954018  0.9925526590290656  1.0000
  C   C12       1.0  0.6609696291868373  0.7887179377644811  0.49255756223715247  1.0000
  C   C13       1.0  0.6606968762664706  0.2706238829927726  0.286516905422765  1.0000
  C   C14       1.0  0.3393150193193151  0.7293790945864486  0.7865364889309987  1.0000
  C   C15       1.0  0.8268259938002416  0.17935473271558064  0.3148267042612503  1.0000
  C   C16       1.0  0.17317992196824153  0.8206462574245987  0.8148448234941766  1.0000
  C   C17       1.0  0.9070256886430813  0.17010758455697325  0.4163590620266716  1.0000
  C   C18       1.0  0.09294951745322771  0.8298988875573978  0.9163710202765498  1.0000
  C   C19       1.0  0.07951751125516887  0.09033658114271498  0.43916118156800366  1.0000
  C   C20       1.0  0.9204471946289203  0.9096709498873776  0.9391694556979927  1.0000
  C   C21       1.0  0.15198454379700618  0.019833986686585092  0.36011717859489767  1.0000
  C   C22       1.0  0.8480016608253679  0.9801665027400617  0.8601214912901866  1.0000
  C   C23       1.0  0.04926895119984919  0.030674649578187996  0.2614475187938012  1.0000
  C   C24       1.0  0.9507559983271392  0.969321286795299  0.7614528358036806  1.0000
  N   N1        1.0  0.4238636494929438  0.7856338686382427  0.19293103478455007  1.0000
  N   N2        1.0  0.5761518950757674  0.2143780510501827  0.6929313519534684  1.0000
  N   N3        1.0  0.08826559268246109  0.48306650969472986  0.10155402547029269  1.0000
  N   N4        1.0  0.9117674047637647  0.5169402762512404  0.6015643038119833  1.0000
  N   N5        1.0  0.8390476332004083  0.47739944293658704  0.9112772889983985  1.0000
  N   N6        1.0  0.16094628858162702  0.5225929252782463  0.4112787199578277  1.0000
  N   N7        1.0  0.4118654804459112  0.33278290980387476  0.150752956096099  1.0000
  N   N8        1.0  0.588155852521723  0.6672179138151363  0.6507657251249411  1.0000
  N   N9        1.0  0.5636585709573295  0.25716677396181337  0.1874388098827495  1.0000
  N   N10       1.0  0.43634929499399533  0.7428238045150976  0.6874595293260481  1.0000
  N   N11       1.0  0.892843458456518  0.11050740524034808  0.23809921176076185  1.0000
  N   N12       1.0  0.10718424973239855  0.8894953242636419  0.738112366205719  1.0000
  O   O1        1.0  0.5609952030545386  0.7018272248621639  0.17810556665697413  1.0000
  O   O2        1.0  0.4390296580306979  0.2981828412551407  0.6781109914165809  1.0000
  O   O3        1.0  0.45910321669887816  0.8758495844995051  0.13352946066656557  1.0000
  O   O4        1.0  0.5409051961616242  0.12416226562594089  0.6335339560261559  1.0000
  O   O5        1.0  0.6145169667275708  0.35000404421855785  0.34562649548497854  1.0000
  O   O6        1.0  0.38550834648139437  0.6500064541636444  0.8456561393677331  1.0000
  O   O7        1.0  0.2546462725573519  0.7752779218661129  0.26658818927455735  1.0000
  O   O8        1.0  0.7453538105182602  0.22473188464085334  0.7665864193880623  1.0000
