data_image0
_chemical_formula_structural       Sm2P6H108C60N6O36
_chemical_formula_sum              "Sm2 P6 H108 C60 N6 O36"
_cell_length_a       10.137534900045935
_cell_length_b       10.505241391642954
_cell_length_c       23.896788134844574
_cell_angle_alpha    93.31312268970468
_cell_angle_beta     93.36371266331513
_cell_angle_gamma    111.77197967247028

_space_group_name_H-M_alt    "P 1"
_space_group_IT_number       1

loop_
  _space_group_symop_operation_xyz
  'x, y, z'

loop_
  _atom_site_type_symbol
  _atom_site_label
  _atom_site_symmetry_multiplicity
  _atom_site_fract_x
  _atom_site_fract_y
  _atom_site_fract_z
  _atom_site_occupancy
  Sm  Sm1       1.0  0.09271614369409059  0.3279798596691989  0.7339476931627119  1.0000
  Sm  Sm2       1.0  0.9072791480602334  0.672014919167594  0.26605490534187487  1.0000
  P   P1        1.0  0.1028234397653733  0.05887511679190277  0.27524411588392184  1.0000
  P   P2        1.0  0.8971732683512884  0.941120724673517  0.724755618498378  1.0000
  P   P3        1.0  0.9562365019035326  0.30157615935191007  0.5841526849394826  1.0000
  P   P4        1.0  0.04377079937763277  0.6984288231303492  0.41584882605508977  1.0000
  P   P5        1.0  0.3696160138848867  0.32777235761805906  0.8413021628728643  1.0000
  P   P6        1.0  0.6303789901458928  0.6722266182824581  0.1586971984505396  1.0000
  H   H1        1.0  0.7748285652096386  0.1187126066491828  0.3227549734672409  1.0000
  H   H2        1.0  0.2251773368704165  0.8812913541416947  0.677246892374427  1.0000
  H   H3        1.0  0.6821574920983194  0.9995122446870676  0.36944084367026164  1.0000
  H   H4        1.0  0.3178458728165766  0.0004927794872457941  0.6305614071209222  1.0000
  H   H5        1.0  0.7927293068874876  0.9576104163224384  0.32350452345340847  1.0000
  H   H6        1.0  0.2072732306685411  0.04239255044595319  0.6764976489211278  1.0000
  H   H7        1.0  0.13828530542956938  0.28688194016475405  0.30411784241083245  1.0000
  H   H8        1.0  0.8617191029557815  0.7131158482196792  0.6958829759129588  1.0000
  H   H9        1.0  0.9576264356631867  0.18410519277816909  0.2905032096246742  1.0000
  H   H10       1.0  0.04237651843248358  0.8158988095160564  0.7094985837456562  1.0000
  H   H11       1.0  0.3598709299161982  0.42025882482530347  0.4196876536019405  1.0000
  H   H12       1.0  0.6401317743832635  0.5797420979942273  0.5803127916629478  1.0000
  H   H13       1.0  0.3113704747755008  0.33598458293261046  0.3513687199403465  1.0000
  H   H14       1.0  0.6886337754470374  0.6640152698693167  0.6486325708555043  1.0000
  H   H15       1.0  0.38258223838492705  0.26437287803555876  0.40390922930189543  1.0000
  H   H16       1.0  0.6174208738735486  0.73562905984118  0.5960920915963757  1.0000
  H   H17       1.0  0.2648582188125275  0.28894641194118253  0.5558670606209193  1.0000
  H   H18       1.0  0.7351443216037126  0.7110565616500891  0.4441346935410949  1.0000
  H   H19       1.0  0.31144610906485326  0.42228168465282995  0.5107982371526562  1.0000
  H   H20       1.0  0.688560623234281  0.5777243403668348  0.4892032888931227  1.0000
  H   H21       1.0  0.3697048395622177  0.28484596648054605  0.4997554340590114  1.0000
  H   H22       1.0  0.6303012235408615  0.7151559367157174  0.5002455410980674  1.0000
  H   H23       1.0  0.09334951697098859  0.16782192039420346  0.5776421174811475  1.0000
  H   H24       1.0  0.9066577843101699  0.8321830620880558  0.4223593935134247  1.0000
  H   H25       1.0  0.9124294576266933  0.06641571242659688  0.5641071371772526  1.0000
  H   H26       1.0  0.08757742139441385  0.9335882208840753  0.43589558924658434  1.0000
  H   H27       1.0  0.7511321238372233  0.9935475452604262  0.5140592625306724  1.0000
  H   H28       1.0  0.2488745913006625  0.0064584388219869945  0.4859447727902906  1.0000
  H   H29       1.0  0.6936166617731557  0.921462508038921  0.4442984713912423  1.0000
  H   H30       1.0  0.3063882490648169  0.07854144611777505  0.5557046249309041  1.0000
  H   H31       1.0  0.6782171135291436  0.07842562451855167  0.46726964518425274  1.0000
  H   H32       1.0  0.3217887856907068  0.9215783294494453  0.5327326388699448  1.0000
  H   H33       1.0  0.6310663635612387  0.34066290858410747  0.5601525201423528  1.0000
  H   H34       1.0  0.36894778700344943  0.6593492740640485  0.4398460162386614  1.0000
  H   H35       1.0  0.757472377136871  0.4073935267107629  0.6198271651381689  1.0000
  H   H36       1.0  0.24253788928992037  0.592611455205393  0.38017190905254955  1.0000
  H   H37       1.0  0.533315356011059  0.22047585405474726  0.6438545960849283  1.0000
  H   H38       1.0  0.4666899534606729  0.7795364599263336  0.35614330466954414  1.0000
  H   H39       1.0  0.6847867110881084  0.17384741523282082  0.6546498372889503  1.0000
  H   H40       1.0  0.31521398424068536  0.8261607981482865  0.34534950701102934  1.0000
  H   H41       1.0  0.5616949949401402  0.10247585547845256  0.5937890376756272  1.0000
  H   H42       1.0  0.4383093290099253  0.897536465514207  0.4062092571342576  1.0000
  H   H43       1.0  0.07337327385172182  0.5726502638145161  0.6257554066363016  1.0000
  H   H44       1.0  0.9266344639905313  0.42735580195370176  0.3742427978663373  1.0000
  H   H45       1.0  0.03607972257093182  0.6138182648405245  0.5562438427207327  1.0000
  H   H46       1.0  0.9639269295356244  0.3861826435784577  0.44375418989741894  1.0000
  H   H47       1.0  0.32306378005716846  0.6067459069846988  0.6038272295272976  1.0000
  H   H48       1.0  0.6769471641463056  0.39326321722348456  0.3961711409145253  1.0000
  H   H49       1.0  0.28679203680087534  0.7576344113266343  0.5957363891676553  1.0000
  H   H50       1.0  0.7132103711944282  0.2423706880880018  0.404262073553632  1.0000
  H   H51       1.0  0.2861200737065274  0.651816724795651  0.534981320428038  1.0000
  H   H52       1.0  0.7138863737292738  0.3481935041106181  0.4650165502240144  1.0000
  H   H53       1.0  0.930400897120251  0.11875693043750592  0.17746027682137822  1.0000
  H   H54       1.0  0.06959037807523308  0.8812327734906513  0.8225395680522002  1.0000
  H   H55       1.0  0.9134586381247233  0.9427863633672684  0.17978075748291641  1.0000
  H   H56       1.0  0.086543704723681  0.05720628832526126  0.8202194465867407  1.0000
  H   H57       1.0  0.10908324356672242  0.14962513322025467  0.10533334360938801  1.0000
  H   H58       1.0  0.8909109302449848  0.8503717784514746  0.8946663575098981  1.0000
  H   H59       1.0  0.9422258116582471  0.018332414355185688  0.08113507650286783  1.0000
  H   H60       1.0  0.057770321755974297  0.981664456001894  0.9188655093557118  1.0000
  H   H61       1.0  0.08609775758940681  0.9725107526371485  0.1067062123085094  1.0000
  H   H62       1.0  0.9138982319630388  0.027488216251789783  0.8932927549594682  1.0000
  H   H63       1.0  0.3468438768284301  0.0718052177200619  0.21979850581491434  1.0000
  H   H64       1.0  0.6531501559817202  0.9281937993064061  0.7801991585012475  1.0000
  H   H65       1.0  0.3358616857219657  0.9440751135863857  0.2674267065702765  1.0000
  H   H66       1.0  0.6641364387570478  0.055921790507667886  0.7325701636897435  1.0000
  H   H67       1.0  0.5352886481611279  0.2507787500904468  0.2872571403881636  1.0000
  H   H68       1.0  0.46470792753459705  0.7492192171983372  0.7127393025534232  1.0000
  H   H69       1.0  0.5895602740781883  0.11366906147516424  0.26647971064160464  1.0000
  H   H70       1.0  0.41043728713921  0.8863288988020482  0.7335163382445629  1.0000
  H   H71       1.0  0.5246542876647952  0.12106580358306464  0.3336592321609473  1.0000
  H   H72       1.0  0.4753441037716683  0.8789342209229357  0.666336476929331  1.0000
  H   H73       1.0  0.49868442082060244  0.022205730679964092  0.9030025711100507  1.0000
  H   H74       1.0  0.5013141087572136  0.9777921816484177  0.09699559299588151  1.0000
  H   H75       1.0  0.4249878200106991  0.895016260487672  0.8449899324654312  1.0000
  H   H76       1.0  0.5750091493430034  0.10498268774394146  0.1550094771721859  1.0000
  H   H77       1.0  0.3096203765253094  0.9359664519351792  0.8890853456604902  1.0000
  H   H78       1.0  0.6903803738920544  0.06403452584475387  0.11091337844004565  1.0000
  H   H79       1.0  0.5113621878488601  0.13386580906155385  0.813600892754366  1.0000
  H   H80       1.0  0.48863183638066215  0.8661331874962876  0.1863980261993845  1.0000
  H   H81       1.0  0.3222293820940934  0.04995478822064568  0.7980919379496214  1.0000
  H   H82       1.0  0.6777653664200614  0.9500410945594238  0.20190691169339914  1.0000
  H   H83       1.0  0.6716721287340164  0.6309253809247078  0.7663334235252607  1.0000
  H   H84       1.0  0.3283245994040982  0.36907050830083676  0.23366338336932563  1.0000
  H   H85       1.0  0.7891694473718331  0.5449382749264511  0.7492134627276672  1.0000
  H   H86       1.0  0.21082432706148072  0.45505764215670286  0.25078410812064084  1.0000
  H   H87       1.0  0.7853108341325951  0.6030933008035075  0.8200983861826361  1.0000
  H   H88       1.0  0.21468392582239196  0.39690260926806775  0.17989879061025965  1.0000
  H   H89       1.0  0.5349524469739039  0.37805388333858037  0.7491703867904606  1.0000
  H   H90       1.0  0.4650407498967581  0.6219430558133466  0.2508284537466565  1.0000
  H   H91       1.0  0.6539939632836039  0.3468141827127055  0.7999699993710507  1.0000
  H   H92       1.0  0.3460006385085705  0.6531837917763496  0.2000276498939044  1.0000
  H   H93       1.0  0.2859671077539899  0.4905387005101145  0.878934290300414  1.0000
  H   H94       1.0  0.7140330622405174  0.5094632925157256  0.12106612170145332  1.0000
  H   H95       1.0  0.2023636561635556  0.330462339026205  0.9042460020165779  1.0000
  H   H96       1.0  0.797635686472084  0.6695375965937198  0.0957543315686564  1.0000
  H   H97       1.0  0.21689161047665803  0.19405210083087343  0.9494703768190932  1.0000
  H   H98       1.0  0.7831091256396762  0.8059488428346809  0.05053043834409719  1.0000
  H   H99       1.0  0.2191219124194248  0.20311771132900694  0.023747022661226008  1.0000
  H   H100      1.0  0.7808767552997508  0.7968780888217706  0.9762535964603603  1.0000
  H   H101      1.0  0.3382058949581507  0.1445854853588457  0.9895122721690444  1.0000
  H   H102      1.0  0.6617948440183882  0.8554154651295889  0.010488124781616601  1.0000
  H   H103      1.0  0.6319070588754911  0.7165720690663234  0.895473394910326  1.0000
  H   H104      1.0  0.3680921721052997  0.2834226749012954  0.10452804558511992  1.0000
  H   H105      1.0  0.523108272237998  0.7867587656821724  0.930767489352647  1.0000
  H   H106      1.0  0.4768936104230193  0.2132401133771963  0.0692320410705349  1.0000
  H   H107      1.0  0.44708306676541554  0.6512444753559662  0.876944589874711  1.0000
  H   H108      1.0  0.5529156066741763  0.3487513384405572  0.12305519282181622  1.0000
  C   C1        1.0  0.044516294189193686  0.17665419742066035  0.3750081701278846  1.0000
  C   C2        1.0  0.9554868152090781  0.8233477336332058  0.6249935689829159  1.0000
  C   C3        1.0  0.16426412508270974  0.24075220119215143  0.4139645091404348  1.0000
  C   C4        1.0  0.8357409553589011  0.7592497158385567  0.5860364418595269  1.0000
  C   C5        1.0  0.14803651512111324  0.23510154543963316  0.47218464502738305  1.0000
  C   C6        1.0  0.8519666973513937  0.7649055567979132  0.5278172418107943  1.0000
  C   C7        1.0  0.012551028340496375  0.16354329053582714  0.4908127212041223  1.0000
  C   C8        1.0  0.9874532276024582  0.8364565759118459  0.5091877331666624  1.0000
  C   C9        1.0  0.8928219982930728  0.09702578226481509  0.4515869601152006  1.0000
  C   C10       1.0  0.10718488072802754  0.9029781510458575  0.5484157663086435  1.0000
  C   C11       1.0  0.9091008599097208  0.10478464158332906  0.3935193453268156  1.0000
  C   C12       1.0  0.09090079805908144  0.8952235102031947  0.6064829506179948  1.0000
  C   C13       1.0  0.7831486709194025  0.04155062669696008  0.35041282525814677  1.0000
  C   C14       1.0  0.21685624849919793  0.9584533479283689  0.6495890164264112  1.0000
  C   C15       1.0  0.05739265291768449  0.1883173112058784  0.31269796186712995  1.0000
  C   C16       1.0  0.9426103677073883  0.8116794827786716  0.6873015384536387  1.0000
  C   C17       1.0  0.310210280588592  0.3190840483255997  0.3959845401734939  1.0000
  C   C18       1.0  0.6897963543567228  0.6809168191561309  0.6040160017198418  1.0000
  C   C19       1.0  0.2788786162295267  0.3102691400752774  0.511973210585559  1.0000
  C   C20       1.0  0.7211244960289491  0.6897327978014614  0.4880281103127119  1.0000
  C   C21       1.0  0.9956682006573134  0.1612362198415623  0.5532245224854223  1.0000
  C   C22       1.0  0.004338020608571452  0.8387636189372144  0.44677598019959675  1.0000
  C   C23       1.0  0.7470610382633751  0.018651246049039092  0.4703742481462285  1.0000
  C   C24       1.0  0.2529462544371626  0.9813537159645943  0.5296285174859322  1.0000
  C   C25       1.0  0.6995238515721384  0.3151244212423449  0.5912051469315076  1.0000
  C   C26       1.0  0.3004861042494582  0.6848847031545374  0.40879403577826423  1.0000
  C   C27       1.0  0.6149267901156891  0.1949814167575638  0.622843894233661  1.0000
  C   C28       1.0  0.3850767036153044  0.8050288400063008  0.3771547403721129  1.0000
  C   C29       1.0  0.101639509158673  0.5727400667048244  0.5820892538871548  1.0000
  C   C30       1.0  0.8983679645863348  0.4272628854743202  0.4179096935726961  1.0000
  C   C31       1.0  0.2591788054960061  0.6508982506493549  0.5787824326596791  1.0000
  C   C32       1.0  0.7408297654255235  0.3491098861705239  0.4212150138345336  1.0000
  C   C33       1.0  0.984114837059508  0.046142977453989376  0.1708665753686276  1.0000
  C   C34       1.0  0.015882034940382306  0.9538508132396895  0.8291318501165534  1.0000
  C   C35       1.0  0.034054519970240386  0.04664061309824767  0.11258461372991492  1.0000
  C   C36       1.0  0.9659414638617961  0.9533583421449447  0.8874151899631216  1.0000
  C   C37       1.0  0.36307522660233366  0.05465789600627596  0.2641400306515393  1.0000
  C   C38       1.0  0.6369205160141078  0.9453380002308474  0.7358571702984663  1.0000
  C   C39       1.0  0.5115725074047219  0.14047174388926456  0.28945350018817356  1.0000
  C   C40       1.0  0.4884222668512948  0.8595242002966825  0.7105415855420676  1.0000
  C   C41       1.0  0.4107577087636045  0.9794899257836601  0.8697941232315218  1.0000
  C   C42       1.0  0.5892396799899445  0.020510064796660295  0.1302044891893601  1.0000
  C   C43       1.0  0.40899243604831537  0.08916193306401957  0.831994176160265  1.0000
  C   C44       1.0  0.5910025708426686  0.9108370496593776  0.1680047669506024  1.0000
  C   C45       1.0  0.7192258325726258  0.5586683439020275  0.7804644026293703  1.0000
  C   C46       1.0  0.28076835267991374  0.44132859506120053  0.2195336256397979  1.0000
  C   C47       1.0  0.6062650501814915  0.4203324730736851  0.7877766209275807  1.0000
  C   C48       1.0  0.3937291379312525  0.5796644727124158  0.212220989129051  1.0000
  C   C49       1.0  0.30754789218352135  0.406277333824299  0.8973874911901165  1.0000
  C   C50       1.0  0.6924532633326522  0.5937246521899623  0.10261252675633162  1.0000
  C   C51       1.0  0.286728743431766  0.22016858132725045  0.9883924952106611  1.0000
  C   C52       1.0  0.7132707516462774  0.7798292762294349  0.011608202327565187  1.0000
  C   C53       1.0  0.3961930194951648  0.36503447069282646  0.9933191372186843  1.0000
  C   C54       1.0  0.6038053347586042  0.6349654651157974  0.00668200863449899  1.0000
  C   C55       1.0  0.40717302472270933  0.45470134948474317  0.9505856163308907  1.0000
  C   C56       1.0  0.5928245050324037  0.5452965357408458  0.0494150328931227  1.0000
  C   C57       1.0  0.5109515216991907  0.5896515553282026  0.9570553942811276  1.0000
  C   C58       1.0  0.4890478094956309  0.4103483530002163  0.0429466121542319  1.0000
  C   C59       1.0  0.5275745667374849  0.6898502784267605  0.9127309384853248  1.0000
  C   C60       1.0  0.47242451752133263  0.31014655724984397  0.08726930163205543  1.0000
  N   N1        1.0  0.8694973807970998  0.2482202627205011  0.8134771337285402  1.0000
  N   N2        1.0  0.13049094641399242  0.7517694827110046  0.18652263867370072  1.0000
  N   N3        1.0  0.1413937886187  0.618140765808178  0.7685193275966854  1.0000
  N   N4        1.0  0.8585939438684919  0.3818499607548559  0.23148422376954167  1.0000
  N   N5        1.0  0.34340582393341623  0.400874408918426  0.668056616965089  1.0000
  N   N6        1.0  0.656588596814295  0.599125575405125  0.3319448504721763  1.0000
  O   O1        1.0  0.9634600087091487  0.3127899778501371  0.6472945020171468  1.0000
  O   O2        1.0  0.03654419500543331  0.6872171310215832  0.3527061543405523  1.0000
  O   O3        1.0  0.8009511571223841  0.2812807317922433  0.5578978627410436  1.0000
  O   O4        1.0  0.19905532252032293  0.718722206929847  0.4421027334118223  1.0000
  O   O5        1.0  0.06799127991668287  0.4302772076146012  0.5593429192839353  1.0000
  O   O6        1.0  0.9320191360922934  0.569725689415442  0.440656937072312  1.0000
  O   O7        1.0  0.005628399677774845  0.914359212984791  0.2829564889183019  1.0000
  O   O8        1.0  0.9943667739566423  0.08563772578973777  0.7170407270829103  1.0000
  O   O9        1.0  0.1107219971111846  0.09112228557721377  0.21109578259058995  1.0000
  O   O10       1.0  0.8892771902218612  0.9088797212830709  0.7889046052541744  1.0000
  O   O11       1.0  0.2646754713124508  0.09699719187157287  0.2959150924807617  1.0000
  O   O12       1.0  0.735321397827228  0.9029965919992404  0.7040837512169561  1.0000
  O   O13       1.0  0.2730679636666905  0.2858838710284102  0.787463370275468  1.0000
  O   O14       1.0  0.7269242448220936  0.7141130683122224  0.21253628252959095  1.0000
  O   O15       1.0  0.38716368822325364  0.19798507359654133  0.8667910178183862  1.0000
  O   O16       1.0  0.6128360738122325  0.8020159043720907  0.13320851855010574  1.0000
  O   O17       1.0  0.5218947857803612  0.43852396185810943  0.8330992743735451  1.0000
  O   O18       1.0  0.478101769893911  0.5614739576705502  0.1669000960557625  1.0000
  O   O19       1.0  0.8477025148062012  0.28415129001860606  0.7639669543398285  1.0000
  O   O20       1.0  0.15229402942724585  0.7158466022185548  0.23603408893959715  1.0000
  O   O21       1.0  0.7728931896438951  0.20744067795479978  0.8450697062101755  1.0000
  O   O22       1.0  0.22709131285578374  0.7925543008210666  0.1549296990784654  1.0000
  O   O23       1.0  0.9968288682806586  0.25634368622535647  0.8273492689845982  1.0000
  O   O24       1.0  0.003151024318796639  0.7436275427416276  0.17265060993582182  1.0000
  O   O25       1.0  0.0615210805641481  0.5543951631767424  0.7239904675659615  1.0000
  O   O26       1.0  0.9384774289922221  0.44560270139151453  0.27601062402769133  1.0000
  O   O27       1.0  0.18581827485677133  0.5450641388657755  0.8002632054242869  1.0000
  O   O28       1.0  0.8141579648572446  0.45492258393843327  0.19974162038766965  1.0000
  O   O29       1.0  0.17421859399357936  0.7431429784508479  0.7801014329832158  1.0000
  O   O30       1.0  0.8257744511793208  0.25684867352852336  0.21990436943955421  1.0000
  O   O31       1.0  0.3176576506539419  0.49175575802823324  0.6990556235520062  1.0000
  O   O32       1.0  0.6823398733807553  0.5082421135516029  0.30094586209705915  1.0000
  O   O33       1.0  0.4559956129002599  0.42846388483733455  0.6453463684214428  1.0000
  O   O34       1.0  0.5439976841844184  0.5715382186754068  0.3546530380555809  1.0000
  O   O35       1.0  0.24555706643016606  0.2793968397005101  0.6621327942209805  1.0000
  O   O36       1.0  0.7544426727236627  0.720604083685117  0.33787008784776174  1.0000
