data_image0
_chemical_formula_structural       Zn4H26C48N16O2
_chemical_formula_sum              "Zn4 H26 C48 N16 O2"
_cell_length_a       15.626185249528582
_cell_length_b       15.7447547837621
_cell_length_c       17.792281181322657
_cell_angle_alpha    107.84130830913693
_cell_angle_beta     103.19254593070173
_cell_angle_gamma    112.68574145423885

_space_group_name_H-M_alt    "P 1"
_space_group_IT_number       1

loop_
  _space_group_symop_operation_xyz
  'x, y, z'

loop_
  _atom_site_type_symbol
  _atom_site_label
  _atom_site_symmetry_multiplicity
  _atom_site_fract_x
  _atom_site_fract_y
  _atom_site_fract_z
  _atom_site_occupancy
  Zn  Zn1       1.0  0.1351549436213233  0.13128763473527272  0.5026149037796017  1.0000
  Zn  Zn2       1.0  0.8558479820401105  0.8472310763393127  0.498211081670867  1.0000
  Zn  Zn3       1.0  0.00919691441477971  0.8844976873745909  0.3944349519037615  1.0000
  Zn  Zn4       1.0  0.9811609403948155  0.10511239209478897  0.6013787476305413  1.0000
  H   H1        1.0  0.23286887357355113  0.19151824766145611  0.3608116840146849  1.0000
  H   H2        1.0  0.7917463761693712  0.6011680103891238  0.4537458619558166  1.0000
  H   H3        1.0  0.14827457262599353  0.8218469826041854  0.5035097832023467  1.0000
  H   H4        1.0  0.16761302428224667  0.14053811073841874  0.7553966016053695  1.0000
  H   H5        1.0  0.1299369623435638  0.3279495450587646  0.7826536154137571  1.0000
  H   H6        1.0  0.9918958715726307  0.6527027461645788  0.3202272513680812  1.0000
  H   H7        1.0  0.557564558768334  0.6784023340076146  0.9436857027565824  1.0000
  H   H8        1.0  0.4147718205305111  0.6293360447105061  0.03745590757673509  1.0000
  H   H9        1.0  0.2334919938257798  0.13273100478721034  0.0554648842422907  1.0000
  H   H10       1.0  0.6467038812679746  0.8115101277458907  0.5414480314704876  1.0000
  H   H11       1.0  0.12482008079923193  0.8961605495763367  0.9654141612878605  1.0000
  H   H12       1.0  0.8700598821834191  0.8807300534098844  0.22974790974031833  1.0000
  H   H13       1.0  0.023466403844992108  0.16535677176990762  0.3516112941922387  1.0000
  H   H14       1.0  0.821730261009833  0.14170328159578835  0.6831251789604664  1.0000
  H   H15       1.0  0.057791659074418085  0.8610921417925538  0.21760084271077318  1.0000
  H   H16       1.0  0.3180493327566794  0.37350620053199196  0.6380417121545038  1.0000
  H   H17       1.0  0.8095635544928824  0.6814949993329479  0.6049963525646761  1.0000
  H   H18       1.0  0.3474526742274336  0.21812585431806045  0.712480279130439  1.0000
  H   H19       1.0  0.4315449708002889  0.18108335386413202  0.6790443134788618  1.0000
  H   H20       1.0  0.3695802165305508  0.23003347987165068  0.6218944101121197  1.0000
  H   H21       1.0  0.7896110471791503  0.22433785647096036  0.48182819216319933  1.0000
  H   H22       1.0  0.753971754634094  0.11022947841151895  0.49610552336580593  1.0000
  H   H23       1.0  0.8577894679990336  0.22804855441619762  0.5786290208937714  1.0000
  H   H24       1.0  0.6234320357619938  0.8617056665828928  0.39275850827051073  1.0000
  H   H25       1.0  0.5614775800955912  0.7535924722572531  0.29066993871362706  1.0000
  H   H26       1.0  0.62458709428077  0.7467729622158362  0.38368265867986656  1.0000
  C   C1        1.0  0.18614258927027552  0.10965429773268917  0.3381512901228234  1.0000
  C   C2        1.0  0.6979178116478338  0.9772345990799993  0.6218476784011459  1.0000
  C   C3        1.0  0.7275232602562056  0.829921367250883  0.2549976729524346  1.0000
  C   C4        1.0  0.9144799372077372  0.1921053020607389  0.40657726996605703  1.0000
  C   C5        1.0  0.2591066978759358  0.3460313833692014  0.6610931679688293  1.0000
  C   C6        1.0  0.8424800163367865  0.6311365851257095  0.42449307205188813  1.0000
  C   C7        1.0  0.1801042956735941  0.9044061021862222  0.5301358760176456  1.0000
  C   C8        1.0  0.11052277767165458  0.060358363557973915  0.7187112627808219  1.0000
  C   C9        1.0  0.005766116340140602  0.8941118270424938  0.6698809670053976  1.0000
  C   C10       1.0  0.27679713107863074  0.07498268508152964  0.5997183264832843  1.0000
  C   C11       1.0  0.16316329917670908  0.3226645394570867  0.7352548511810326  1.0000
  C   C12       1.0  0.7037207887529675  0.8918379040522455  0.5724001814424183  1.0000
  C   C13       1.0  0.9447385054866616  0.6570139683098972  0.35596503853567896  1.0000
  C   C14       1.0  0.2571741608817888  0.3932234569054885  0.7416017120334502  1.0000
  C   C15       1.0  0.8854864264894999  0.5825398978944136  0.3778079208257808  1.0000
  C   C16       1.0  0.2787999371517671  0.9825594227999519  0.5883299772950182  1.0000
  C   C17       1.0  0.09019317575685189  0.9799986123394503  0.7431685821973916  1.0000
  C   C18       1.0  0.8897868139002869  0.2557774057937367  0.3768386259170102  1.0000
  C   C19       1.0  0.8777934094907351  0.3235671729636851  0.3639986024926145  1.0000
  C   C20       1.0  0.8735186495962993  0.4058793970623713  0.3594298715139389  1.0000
  C   C21       1.0  0.8765950367271671  0.4864085660536121  0.3636639293306417  1.0000
  C   C22       1.0  0.6134595168282503  0.9779260462358368  0.6360070042750863  1.0000
  C   C23       1.0  0.831214959132062  0.8685002333197719  0.27199419909718625  1.0000
  C   C24       1.0  0.5348948270509908  0.9761071335562762  0.6386298469112573  1.0000
  C   C25       1.0  0.4469740117573481  0.9756373684370628  0.6324932641016757  1.0000
  C   C26       1.0  0.3659083032682346  0.975149181813535  0.6169474544686367  1.0000
  C   C27       1.0  0.6457612868567965  0.7857122324332338  0.1765455561628286  1.0000
  C   C28       1.0  0.48634513398804563  0.6675484581664436  0.03152142047725446  1.0000
  C   C29       1.0  0.4870144287982328  0.640036183357907  0.950937762758514  1.0000
  C   C30       1.0  0.40340297734339714  0.5599901002416986  0.8767345095558525  1.0000
  C   C31       1.0  0.571812562825386  0.7357558516151529  0.10814433779870576  1.0000
  C   C32       1.0  0.33366177791397433  0.4846606026900418  0.8127235733387437  1.0000
  C   C33       1.0  0.13055502288811743  0.9840803172607127  0.8238501734490457  1.0000
  C   C34       1.0  0.8877533504372083  0.1629226710937888  0.4693815289862331  1.0000
  C   C35       1.0  0.1589749426073936  0.9740917215784394  0.9709019013924449  1.0000
  C   C36       1.0  0.1984082000415839  0.054775025162484815  0.04972281937791221  1.0000
  C   C37       1.0  0.1905808519614567  0.04405373803447796  0.12340775209987953  1.0000
  C   C38       1.0  0.15093664470097687  0.9830809479666912  0.8941352521824939  1.0000
  C   C39       1.0  0.17682706042704413  0.03697424315696204  0.1867828127756397  1.0000
  C   C40       1.0  0.7209148704257515  0.8312953551013823  0.3335918490056927  1.0000
  C   C41       1.0  0.9839628381754082  0.15859015169067453  0.39415098831752726  1.0000
  C   C42       1.0  0.7930513286438271  0.06070222715066373  0.6450631429636503  1.0000
  C   C43       1.0  0.09647604949010002  0.9406261081623984  0.2647884865595316  1.0000
  C   C44       1.0  0.15611316538166883  0.029341349435199532  0.2577320630396187  1.0000
  C   C45       1.0  0.9423162814453293  0.79419582750041  0.6645662491203909  1.0000
  C   C46       1.0  0.3605187765060692  0.18171934167420298  0.656035168123026  1.0000
  C   C47       1.0  0.8184630702539267  0.18193833239724477  0.5085270159988654  1.0000
  C   C48       1.0  0.6279894609551632  0.7967903421264851  0.351498195791855  1.0000
  N   N1        1.0  0.14758818035321042  0.07161319809743823  0.3879632182568997  1.0000
  N   N2        1.0  0.8740475364982958  0.7260503556442405  0.43039063351821494  1.0000
  N   N3        1.0  0.12500580675859402  0.9469873053091151  0.5072879898251017  1.0000
  N   N4        1.0  0.0435538276936995  0.024748916554230508  0.6382385399326438  1.0000
  N   N5        1.0  0.9806152152330797  0.92376912425965  0.6083244560241496  1.0000
  N   N6        1.0  0.18423781071369658  0.05109525072193583  0.5497745544302931  1.0000
  N   N7        1.0  0.11455380980637393  0.24098805598046624  0.6580559306323082  1.0000
  N   N8        1.0  0.9371294342541104  0.7418125952026318  0.3873769782558014  1.0000
  N   N9        1.0  0.7933429230859874  0.9222436547370667  0.565978354774714  1.0000
  N   N10       1.0  0.8813749493834423  0.8890980461167362  0.3531009512488481  1.0000
  N   N11       1.0  0.9397162328168066  0.11721935204791836  0.4921020922351787  1.0000
  N   N12       1.0  0.8140683351803092  0.8668284970172239  0.39106275976025273  1.0000
  N   N13       1.0  0.999033462664798  0.11519791144746726  0.44658159006197473  1.0000
  N   N14       1.0  0.849130930748018  0.027277261919792337  0.6112606925734951  1.0000
  N   N15       1.0  0.09182405998468111  0.9665880709016863  0.34243165328430797  1.0000
  N   N16       1.0  0.17442014348858237  0.2554151174921486  0.612070638923683  1.0000
  O   O1        1.0  0.9655311653796944  0.7566171089260721  0.710774625431064  1.0000
  O   O2        1.0  0.8458299397637321  0.7458621618846878  0.6017472003910741  1.0000
