data_image0
_chemical_formula_structural       Zr6H44C57O32
_chemical_formula_sum              "Zr6 H44 C57 O32"
_cell_length_a       14.773651440576796
_cell_length_b       14.788141410020671
_cell_length_c       14.781275236491984
_cell_angle_alpha    60.214122189091164
_cell_angle_beta     59.97661183345831
_cell_angle_gamma    59.94141161679183

_space_group_name_H-M_alt    "P 1"
_space_group_IT_number       1

loop_
  _space_group_symop_operation_xyz
  'x, y, z'

loop_
  _atom_site_type_symbol
  _atom_site_label
  _atom_site_symmetry_multiplicity
  _atom_site_fract_x
  _atom_site_fract_y
  _atom_site_fract_z
  _atom_site_occupancy
  Zr  Zr1       1.0  0.8728781246443446  0.8854917875697197  0.6133057567027932  1.0000
  Zr  Zr2       1.0  0.11259668501141823  0.12268172629901392  0.37858607614431605  1.0000
  Zr  Zr3       1.0  0.11036573983907513  0.8856441409792739  0.6161199826801179  1.0000
  Zr  Zr4       1.0  0.8733668174177467  0.12639594387507466  0.37534778816465314  1.0000
  Zr  Zr5       1.0  0.11240124672448133  0.8862789502816283  0.3750149882240165  1.0000
  Zr  Zr6       1.0  0.8715211559763603  0.1244992644672962  0.6161454460063636  1.0000
  H   H1        1.0  0.0871272172246905  0.7234786211130811  0.5864104530774341  1.0000
  H   H2        1.0  0.08845972977077571  0.0993716804469784  0.2135572377832986  1.0000
  H   H3        1.0  0.0845953274270387  0.0968959406777543  0.5938622850746285  1.0000
  H   H4        1.0  0.7091799163788509  0.10066376054864891  0.5892969638885147  1.0000
  H   H5        1.0  0.812705394339531  0.6444273953656464  0.5626811938989889  1.0000
  H   H6        1.0  0.1677422400307264  0.5444640512890971  0.41662195369059407  1.0000
  H   H7        1.0  0.8188102269352485  0.4709062758492095  0.5636350795283745  1.0000
  H   H8        1.0  0.5454235381775874  0.8930375484279766  0.8873899539917288  1.0000
  H   H9        1.0  0.6379338738808685  0.07645749337462607  0.9594948046554419  1.0000
  H   H10       1.0  0.37779345624503685  0.8986463390744603  0.05922975451057507  1.0000
  H   H11       1.0  0.11003401559342044  0.8373811254848037  0.10236163802901638  1.0000
  H   H12       1.0  0.8540334176426468  0.15482334093618283  0.07974324439484794  1.0000
  H   H13       1.0  0.10404704225945942  0.8437143465935012  0.9321517800174345  1.0000
  H   H14       1.0  0.579584363660537  0.4298265104610691  0.6373006087996201  1.0000
  H   H15       1.0  0.5992373331575392  0.4330087755809657  0.33652816325719914  1.0000
  H   H16       1.0  0.4097208799661658  0.599937736845945  0.6310161673808635  1.0000
  H   H17       1.0  0.7330411414802358  0.6537027234105109  0.9740384132738809  1.0000
  H   H18       1.0  0.8008024708131457  0.5687708027656699  0.8897886514914786  1.0000
  H   H19       1.0  0.8019342230254266  0.39851008334274957  0.06034578094801883  1.0000
  H   H20       1.0  0.7317974717422118  0.48384523820173114  0.14472680188297454  1.0000
  H   H21       1.0  0.5708625328021455  0.15359531876262625  0.3501884630912429  1.0000
  H   H22       1.0  0.5912643601977975  0.8569513469591926  0.6303435202394352  1.0000
  H   H23       1.0  0.40077104714752915  0.14488627620058747  0.359606878528254  1.0000
  H   H24       1.0  0.27501132453202365  0.37356440707714006  0.3993684761556223  1.0000
  H   H25       1.0  0.2195244833576241  0.26406072768659783  0.4735578804219002  1.0000
  H   H26       1.0  0.22509849584919547  0.3402605639837689  0.3356189415776498  1.0000
  H   H27       1.0  0.4776947830188405  0.17426978304360577  0.10894092441340317  1.0000
  H   H28       1.0  0.4101536006702843  0.08386775032353466  0.2294571332301344  1.0000
  H   H29       1.0  0.5578585451184779  0.04253675218450331  0.17585211515028476  1.0000
  H   H30       1.0  0.7789680664682737  0.25283652918015775  0.9458961144845686  1.0000
  H   H31       1.0  0.8608261650915806  0.23635102015840934  0.8127771891244178  1.0000
  H   H32       1.0  0.7585131082757002  0.17395848319538504  0.9015489595783847  1.0000
  H   H33       1.0  0.3426851524393014  0.6172944915716698  0.320119909637377  1.0000
  H   H34       1.0  0.4271421204603243  0.6993974454325667  0.24791263166322616  1.0000
  H   H35       1.0  0.4846359324142497  0.5630335965819029  0.24124608178716755  1.0000
  H   H36       1.0  0.4734587166144807  0.764171537714809  0.7168293769504857  1.0000
  H   H37       1.0  0.3318410944394898  0.8471354068742516  0.7281400497244802  1.0000
  H   H38       1.0  0.40888778712012896  0.7687110718548454  0.6388109934391366  1.0000
  H   H39       1.0  0.21455755854940148  0.4740317015245595  0.05042705641302796  1.0000
  H   H40       1.0  0.12936858630924775  0.4088603029953646  0.1798397958117945  1.0000
  H   H41       1.0  0.22964385500107917  0.333647990513377  0.08882496154736688  1.0000
  H   H42       1.0  0.26780165999901595  0.4891095763065252  0.8878744075812149  1.0000
  H   H43       1.0  0.213259497389636  0.5925195867458157  0.780423208231916  1.0000
  H   H44       1.0  0.20104951619648415  0.6296337961854804  0.8830061886094994  1.0000
  C   C1        1.0  0.9902668216251554  0.7055263836141847  0.4882096903781841  1.0000
  C   C2        1.0  0.3058631344162277  0.9976593620005477  0.19961457966424934  1.0000
  C   C3        1.0  0.9927978306175049  0.30997357714698365  0.494858399942963  1.0000
  C   C4        1.0  0.6941638619672903  0.9952278784545144  0.8052565888148492  1.0000
  C   C5        1.0  0.9930024795326842  0.701641669590217  0.7983506627344777  1.0000
  C   C6        1.0  0.6916750503060597  0.006109715610570375  0.48896011330731426  1.0000
  C   C7        1.0  0.989932869852673  0.3131332724050325  0.1984485153491349  1.0000
  C   C8        1.0  0.29930696559772935  0.9987692060359451  0.49790068847985935  1.0000
  C   C9        1.0  0.30319158105295685  0.7077535734828473  0.48848777683188865  1.0000
  C   C10       1.0  0.9835424952330598  0.001858584410861673  0.8063860341910072  1.0000
  C   C11       1.0  0.6944268209168456  0.3157340458940539  0.49204395483879165  1.0000
  C   C12       1.0  0.9876687615967655  0.9999143027906714  0.19672451628959198  1.0000
  C   C13       1.0  0.996267126971766  0.41062978033559744  0.492242884809535  1.0000
  C   C14       1.0  0.9904497857468472  0.6044579811812414  0.4882949962149752  1.0000
  C   C15       1.0  0.09745436895840247  0.4290646022026508  0.4505372832820456  1.0000
  C   C16       1.0  0.8911571007691418  0.5843388879213762  0.531215666983911  1.0000
  C   C17       1.0  0.0914797807868268  0.5274676149927658  0.44838609667864654  1.0000
  C   C18       1.0  0.8948173588393827  0.48814908504006405  0.5320640464986113  1.0000
  C   C19       1.0  0.41362201681440774  0.9909449848196489  0.10521122505886643  1.0000
  C   C20       1.0  0.5993256063654967  0.988292210572233  0.9118585228214825  1.0000
  C   C21       1.0  0.48901995686982497  0.03884270361719192  0.08065094907459516  1.0000
  C   C22       1.0  0.5285383511414851  0.934091613163247  0.9410527098994096  1.0000
  C   C23       1.0  0.5797723931741601  0.03779568309614253  0.9822857329290569  1.0000
  C   C24       1.0  0.4362078415104732  0.9369217100042707  0.03636007412674757  1.0000
  C   C25       1.0  0.9772246669037016  0.003105019128384115  0.9099590920644544  1.0000
  C   C26       1.0  0.9828302575889507  0.9973174802583958  0.09949173878154462  1.0000
  C   C27       1.0  0.9033364343667146  0.092972389007656  0.9512676947277542  1.0000
  C   C28       1.0  0.05341523610833588  0.9078698783126099  0.059556982469125344  1.0000
  C   C29       1.0  0.9085533462693219  0.08695991104028886  0.04614418487887648  1.0000
  C   C30       1.0  0.049822471533225776  0.9116569210401195  0.9655858773621799  1.0000
  C   C31       1.0  0.4089603800284678  0.6113522618983609  0.4809499696293498  1.0000
  C   C32       1.0  0.597773144705272  0.420956894411141  0.4874648978928491  1.0000
  C   C33       1.0  0.4629920314208746  0.5665778103661694  0.3939814765382721  1.0000
  C   C34       1.0  0.5463778261822014  0.46838122335499605  0.5704352302839196  1.0000
  C   C35       1.0  0.5566314786040112  0.4711140583852255  0.40054497354780944  1.0000
  C   C36       1.0  0.45265695354611085  0.5625352062581045  0.5664857524471427  1.0000
  C   C37       1.0  0.9993307600768943  0.5996597591175787  0.8967509351869509  1.0000
  C   C38       1.0  0.993404337321266  0.41395828639577575  0.09873719308592406  1.0000
  C   C39       1.0  0.9106537142827092  0.5596982156568655  0.9572864379687186  1.0000
  C   C40       1.0  0.08272231020143998  0.4566054867786634  0.041867464230449486  1.0000
  C   C41       1.0  0.9096075531549274  0.46764205417090204  0.05266772655815511  1.0000
  C   C42       1.0  0.09003719422565838  0.5419043744183797  0.9375105067648873  1.0000
  C   C43       1.0  0.7990246070908571  0.5764661932355823  0.960910104979561  1.0000
  C   C44       1.0  0.7988051576328202  0.4702943036987223  0.06808412970381285  1.0000
  C   C45       1.0  0.40080644632820384  0.9963429618915144  0.49968704592816227  1.0000
  C   C46       1.0  0.5907929550038133  0.004503281955827269  0.49021386301141223  1.0000
  C   C47       1.0  0.4533721952954154  0.9127032538948613  0.578986737741566  1.0000
  C   C48       1.0  0.537809844769434  0.08707385076552751  0.41294453282706195  1.0000
  C   C49       1.0  0.5481846805685961  0.9195184077773815  0.5712693308574828  1.0000
  C   C50       1.0  0.4437789822271442  0.08200886970271885  0.4184820832792298  1.0000
  C   C51       1.0  0.21027364798074197  0.34764629583062867  0.41259402874245393  1.0000
  C   C52       1.0  0.481900392403304  0.08730080100154675  0.15376809660456553  1.0000
  C   C53       1.0  0.8210835172471532  0.19467087283378257  0.9001354236994313  1.0000
  C   C54       1.0  0.42754608260683824  0.6138462947730831  0.2954756317195688  1.0000
  C   C55       1.0  0.41501663550857854  0.8177634356695903  0.6706796420641224  1.0000
  C   C56       1.0  0.16928075658660197  0.4161224301242541  0.09212776408596561  1.0000
  C   C57       1.0  0.19860353041574552  0.564603200941896  0.8688209173520248  1.0000
  O   O1        1.0  0.9111459991736484  0.7470698058062413  0.5631156372824647  1.0000
  O   O2        1.0  0.2611947628804998  0.07782310789147572  0.23646607139563264  1.0000
  O   O3        1.0  0.06941107176604087  0.2679991054094658  0.41923946162426523  1.0000
  O   O4        1.0  0.730581132426714  0.9224912912423021  0.7611534244364788  1.0000
  O   O5        1.0  0.06387168621014144  0.7486286471113105  0.7596044630621037  1.0000
  O   O6        1.0  0.7291517507187919  0.08449261686096333  0.41377859218795965  1.0000
  O   O7        1.0  0.9127411497611319  0.27507762526985846  0.23386170214714483  1.0000
  O   O8        1.0  0.25609940674689835  0.9248101288970929  0.5744569461832539  1.0000
  O   O9        1.0  0.2594455994777575  0.7471316418445895  0.415144223029941  1.0000
  O   O10       1.0  0.9091938636104829  0.0783072318079548  0.7630248209918734  1.0000
  O   O11       1.0  0.7305880804459972  0.27338259375091684  0.5720642113448944  1.0000
  O   O12       1.0  0.06663128919548461  0.9243015600074571  0.23377555440865191  1.0000
  O   O13       1.0  0.06341332393585504  0.926048912288742  0.7663628844569599  1.0000
  O   O14       1.0  0.7326601382856239  0.2744906980320892  0.41673632085935697  1.0000
  O   O15       1.0  0.9136015712114938  0.07915048871584698  0.23441054313912688  1.0000
  O   O16       1.0  0.2614890585397305  0.7430351616381401  0.5693317068191844  1.0000
  O   O17       1.0  0.9161048243048808  0.737876762034432  0.7597901136450814  1.0000
  O   O18       1.0  0.26101875966121213  0.07582745655174256  0.42026937028637684  1.0000
  O   O19       1.0  0.06583313820282656  0.2678776891704473  0.24083891700598056  1.0000
  O   O20       1.0  0.7320641919176794  0.9291488769538461  0.5649404719046841  1.0000
  O   O21       1.0  0.730398142480766  0.074427626972984  0.7651688397473889  1.0000
  O   O22       1.0  0.07052339212652464  0.7414844030501515  0.41488192097042287  1.0000
  O   O23       1.0  0.2629453007968364  0.9247849817994478  0.23433664148636524  1.0000
  O   O24       1.0  0.9142166579599617  0.27301704427225826  0.5713698136871556  1.0000
  O   O25       1.0  0.7896323017625805  0.07365244266542005  0.5625837126123442  1.0000
  O   O26       1.0  0.05835093511758769  0.07131946661525747  0.5654104081620588  1.0000
  O   O27       1.0  0.060737113479944996  0.0720171625880255  0.2937176442830136  1.0000
  O   O28       1.0  0.05971764245325775  0.8036220987514042  0.5611686322513094  1.0000
  O   O29       1.0  0.14163943223224626  0.954687634273597  0.4467660371149547  1.0000
  O   O30       1.0  0.9430450600157766  0.9567957957600017  0.44464073317172387  1.0000
  O   O31       1.0  0.9428887238916202  0.15338966061438006  0.4474536587703284  1.0000
  O   O32       1.0  0.9413845465946763  0.9555854879480139  0.6439249197998648  1.0000
