data_image0
_chemical_formula_structural       Mn6H50C48N12O42
_chemical_formula_sum              "Mn6 H50 C48 N12 O42"
_cell_length_a       8.567425499489774
_cell_length_b       12.612294357545577
_cell_length_c       20.85828338257471
_cell_angle_alpha    90.93665891477347
_cell_angle_beta     86.27327994345025
_cell_angle_gamma    89.83178175007126

_space_group_name_H-M_alt    "P 1"
_space_group_IT_number       1

loop_
  _space_group_symop_operation_xyz
  'x, y, z'

loop_
  _atom_site_type_symbol
  _atom_site_label
  _atom_site_symmetry_multiplicity
  _atom_site_fract_x
  _atom_site_fract_y
  _atom_site_fract_z
  _atom_site_occupancy
  Mn  Mn1       1.0  0.5943824016392795  0.26942968113803534  0.23651706536634987  1.0000
  Mn  Mn2       1.0  0.970817301511701  0.3579755762711443  0.23363199295533127  1.0000
  Mn  Mn3       1.0  0.2550640401040241  0.14781965223847493  0.265698210036291  1.0000
  Mn  Mn4       1.0  0.4056251091448998  0.7305759708700278  0.763479591113587  1.0000
  Mn  Mn5       1.0  0.029178806443617557  0.6420191160158096  0.7663688955678156  1.0000
  Mn  Mn6       1.0  0.7449377394514726  0.8521749323215458  0.7342969252170592  1.0000
  H   H1        1.0  0.10098732065917906  0.20531178851302198  0.3554728953568472  1.0000
  H   H2        1.0  0.146167175225635  0.9958215710198958  0.3070438383437662  1.0000
  H   H3        1.0  0.12624616897409172  0.4192165682154325  0.14331544791891565  1.0000
  H   H4        1.0  0.42596161450346415  0.016243510331719297  0.3932177549004194  1.0000
  H   H5        1.0  0.4063658382245308  0.9518687474081418  0.31767620506693117  1.0000
  H   H6        1.0  0.6794250843773142  0.8729281414484261  0.3238368932449874  1.0000
  H   H7        1.0  0.6841647324318175  0.927780245541484  0.4034254459050999  1.0000
  H   H8        1.0  0.2833434765349025  0.6238253222863079  0.2892699750271106  1.0000
  H   H9        1.0  0.17470713365715804  0.570816822203227  0.3571325603980569  1.0000
  H   H10       1.0  0.49189975442388356  0.48191697977893716  0.30180638437832397  1.0000
  H   H11       1.0  0.3782310577320018  0.4314595105716847  0.3674516826146927  1.0000
  H   H12       1.0  0.5038346642449981  0.7347844917359294  0.5727946599999498  1.0000
  H   H13       1.0  0.4530647948404294  0.5999861221672019  0.5568240421393682  1.0000
  H   H14       1.0  0.22331214421455312  0.7884254985431342  0.5726227087777077  1.0000
  H   H15       1.0  0.1684730905450351  0.6565155862529436  0.5523412316372572  1.0000
  H   H16       1.0  0.008444890520557583  0.9986749971428139  0.19953566699001618  1.0000
  H   H17       1.0  0.7199241720397963  0.08333805404333819  0.13536878616189096  1.0000
  H   H18       1.0  0.6789769809710292  0.0013397804528026004  0.20305567557619503  1.0000
  H   H19       1.0  0.8625883300689876  0.7916464788471629  0.9289081792063315  1.0000
  H   H20       1.0  0.8093866887031922  0.9272071325449429  0.9374869579369761  1.0000
  H   H21       1.0  0.52421624205126  0.7937046414374721  0.9662107749058679  1.0000
  H   H22       1.0  0.9045818951273789  0.6494657149121181  0.18433614882774663  1.0000
  H   H23       1.0  0.8851516354191277  0.5837428972349059  0.1084751723029242  1.0000
  H   H24       1.0  0.614181863303422  0.6489008858925445  0.2057225771001185  1.0000
  H   H25       1.0  0.5924644270920539  0.579172023787457  0.13157237847913456  1.0000
  H   H26       1.0  0.8990415372146928  0.7946644324666253  0.6445327825584998  1.0000
  H   H27       1.0  0.8538536665210684  0.004164890223322003  0.6929484179207819  1.0000
  H   H28       1.0  0.8737610693752488  0.5807693299971676  0.8566878236003604  1.0000
  H   H29       1.0  0.5740422410508755  0.983769324818624  0.6067803749805166  1.0000
  H   H30       1.0  0.5936291990446064  0.0481330910613025  0.6823247216496783  1.0000
  H   H31       1.0  0.3205730127380235  0.1270721092975293  0.6761664360017507  1.0000
  H   H32       1.0  0.31582991806238425  0.0722239998188883  0.5965778969582232  1.0000
  H   H33       1.0  0.7166519614032366  0.3761694150771077  0.7107347573023263  1.0000
  H   H34       1.0  0.8252997925508011  0.429177033242638  0.642873159392785  1.0000
  H   H35       1.0  0.5081067497911959  0.5180823909608634  0.6981955206211623  1.0000
  H   H36       1.0  0.6217786738335818  0.5685382611755115  0.632551663963355  1.0000
  H   H37       1.0  0.4961585987916308  0.26521581039138187  0.42720961775872734  1.0000
  H   H38       1.0  0.546933785007255  0.4000188578422551  0.4431769122640148  1.0000
  H   H39       1.0  0.7766781716271469  0.21156606662538016  0.42737766536304633  1.0000
  H   H40       1.0  0.8315285673860585  0.34347669407922865  0.4476611000950045  1.0000
  H   H41       1.0  0.9915592329840879  0.0013203602671297018  0.8004594790724158  1.0000
  H   H42       1.0  0.28008003830367306  0.9166699954979335  0.8646269138045357  1.0000
  H   H43       1.0  0.3210199995782401  0.9986699319726071  0.7969414563366545  1.0000
  H   H44       1.0  0.1374052344470869  0.2083450731408334  0.07109364569151211  1.0000
  H   H45       1.0  0.19061165334977664  0.0727858906526109  0.06250767833232372  1.0000
  H   H46       1.0  0.47577730099546767  0.20630350962546362  0.03378585802293801  1.0000
  H   H47       1.0  0.09543581242645868  0.3505422480997638  0.8156624713123081  1.0000
  H   H48       1.0  0.11487045546688529  0.41626266385025446  0.891524887936349  1.0000
  H   H49       1.0  0.38584163636403435  0.35111020423777717  0.7942765574223287  1.0000
  H   H50       1.0  0.4075551826375163  0.4208469904391307  0.8684229456900143  1.0000
  C   C1        1.0  0.5740275206470145  0.07620765789993557  0.3173375566216876  1.0000
  C   C2        1.0  0.491365672491007  0.9844514813769365  0.3497696294083711  1.0000
  C   C3        1.0  0.6082131183256364  0.8991115631234905  0.36679109730442866  1.0000
  C   C4        1.0  0.508939170069823  0.7958467868467166  0.4597843770016469  1.0000
  C   C5        1.0  0.46221877543636236  0.7358657611602195  0.349276434970875  1.0000
  C   C6        1.0  0.36967034954951566  0.6279841713858616  0.44140246352241524  1.0000
  C   C7        1.0  0.29219071966057447  0.5811616354131175  0.33413938507696633  1.0000
  C   C8        1.0  0.37143778348584516  0.4736467299411374  0.3219972486372456  1.0000
  C   C9        1.0  0.28213460647940986  0.40198033109053455  0.27914883601457063  1.0000
  C   C10       1.0  0.4202847908810838  0.6829587896260846  0.5502588652616468  1.0000
  C   C11       1.0  0.2530685805976845  0.7039605744258918  0.57765361608638  1.0000
  C   C12       1.0  0.2307733939967775  0.6827704649743752  0.6485768373176769  1.0000
  C   C13       1.0  0.9337183090761985  0.156492017102444  0.21294422111479616  1.0000
  C   C14       1.0  0.9167493519227892  0.05576512320102009  0.19142887625523747  1.0000
  C   C15       1.0  0.767645732420121  0.0212178582116067  0.16456389819849457  1.0000
  C   C16       1.0  0.778330334370139  0.9372087845327571  0.05716306189478362  1.0000
  C   C17       1.0  0.8041722607886895  0.8301982364048685  0.1540132018911464  1.0000
  C   C18       1.0  0.794568827686824  0.7413958748771138  0.04821285442088911  1.0000
  C   C19       1.0  0.7754131945307351  0.8467916572993274  0.9523506910993336  1.0000
  C   C20       1.0  0.617100689552757  0.8200254761404435  0.9321305471555804  1.0000
  C   C21       1.0  0.5881199423370518  0.8222793500387623  0.8648285952914136  1.0000
  C   C22       1.0  0.8287463291212377  0.6376989602407193  0.1446369919019972  1.0000
  C   C23       1.0  0.6711307792290172  0.592878763216234  0.17028818039175775  1.0000
  C   C24       1.0  0.6979168255256737  0.4897821614811805  0.2038657824093875  1.0000
  C   C25       1.0  0.42597408228559885  0.9237924939060989  0.6826590521838585  1.0000
  C   C26       1.0  0.508637876953884  0.015551057263905902  0.6502294017637171  1.0000
  C   C27       1.0  0.3917827825643129  0.10089266657426776  0.6332117681930143  1.0000
  C   C28       1.0  0.4910461990418823  0.2041551543854538  0.5402184467388269  1.0000
  C   C29       1.0  0.537781738718337  0.26413446389505413  0.6507264200198932  1.0000
  C   C30       1.0  0.6303313525726538  0.37201762945344546  0.5586004037567918  1.0000
  C   C31       1.0  0.7078107296618227  0.41883383344691794  0.6658644064397096  1.0000
  C   C32       1.0  0.6285707083459187  0.5263518503747234  0.6780065798959428  1.0000
  C   C33       1.0  0.7178739797664376  0.5980190364968223  0.7208545166320947  1.0000
  C   C34       1.0  0.5797125476894535  0.3170406500690958  0.4497420539069879  1.0000
  C   C35       1.0  0.7469284640686666  0.2960357105487716  0.42234872615255636  1.0000
  C   C36       1.0  0.7692202878005857  0.3172298089801516  0.351425038062061  1.0000
  C   C37       1.0  0.06628252788181745  0.8435010436256147  0.787056190193674  1.0000
  C   C38       1.0  0.08325129297491421  0.944231850105204  0.808566269655991  1.0000
  C   C39       1.0  0.232349018374613  0.9787871055645212  0.835432239007382  1.0000
  C   C40       1.0  0.22159957946582412  0.06279042698026419  0.9428362308824562  1.0000
  C   C41       1.0  0.19583885500232873  0.1698089656965465  0.8459829926212592  1.0000
  C   C42       1.0  0.2054392832564673  0.258605043473942  0.9517866604881038  1.0000
  C   C43       1.0  0.2245766886561498  0.153204630257072  0.047645863660797316  1.0000
  C   C44       1.0  0.38289499640968216  0.17997473144044562  0.0678665265761964  1.0000
  C   C45       1.0  0.41187117300837883  0.17772803380880475  0.13516850730409402  1.0000
  C   C46       1.0  0.1712783889561678  0.36230973550884477  0.8553616514867814  1.0000
  C   C47       1.0  0.3288821049080468  0.4071300440830541  0.8297113928495038  1.0000
  C   C48       1.0  0.3020906015063574  0.5102234961614371  0.7961313545463325  1.0000
  N   N1        1.0  0.3797300278789209  0.6502718885879446  0.37630786552460904  1.0000
  N   N2        1.0  0.4354111530156357  0.702710024958918  0.4810777340365108  1.0000
  N   N3        1.0  0.5259292589899117  0.8053861867506599  0.3930851120999038  1.0000
  N   N4        1.0  0.785981013816695  0.9260757230400002  0.12317742747628561  1.0000
  N   N5        1.0  0.8112061795531815  0.740359031359027  0.11416404403182412  1.0000
  N   N6        1.0  0.786004464147311  0.8420696590596748  0.021902964523114608  1.0000
  N   N7        1.0  0.6202727875771786  0.34972593769306554  0.6236949819181916  1.0000
  N   N8        1.0  0.5645846839027086  0.2972894473025534  0.518925103925362  1.0000
  N   N9        1.0  0.47406323638331577  0.19461886030277503  0.6069172681812918  1.0000
  N   N10       1.0  0.21401150876685188  0.07393084096978698  0.8768182322125144  1.0000
  N   N11       1.0  0.18881390239227602  0.2596457343379868  0.8858340834952191  1.0000
  N   N12       1.0  0.2139816693956503  0.157933024367523  0.9780955395245389  1.0000
  O   O1        1.0  0.14876140404612673  0.43615206701328907  0.26511252934832197  1.0000
  O   O2        1.0  0.48985308218368556  0.1357443337055315  0.2788732752630594  1.0000
  O   O3        1.0  0.7123851396907811  0.09654023509050091  0.32410194803345155  1.0000
  O   O4        1.0  0.09264533229813308  0.6688785555838521  0.6722073556325584  1.0000
  O   O5        1.0  0.35517637844490924  0.6805223585219196  0.6797319011074876  1.0000
  O   O6        1.0  0.33950016921155424  0.3118640814477871  0.26054628277533004  1.0000
  O   O7        1.0  0.4755262737010924  0.7495273109336223  0.29106558595608334  1.0000
  O   O8        1.0  0.5568597874532841  0.8626505193336841  0.49694167748730683  1.0000
  O   O9        1.0  0.3045056419854929  0.5477720476450402  0.462646258093038  1.0000
  O   O10       1.0  0.8296900860102596  0.23607599764669368  0.20813974084254747  1.0000
  O   O11       1.0  0.059496252680560184  0.19730733423615734  0.2410976955672268  1.0000
  O   O12       1.0  0.8122380709569016  0.8251784304028148  0.21242791836831293  1.0000
  O   O13       1.0  0.7639898077580013  0.023500583932367595  0.03170825579140061  1.0000
  O   O14       1.0  0.7887666549627711  0.660206020846594  0.0152829458189601  1.0000
  O   O15       1.0  0.46098211825697166  0.7781726743350957  0.8473000196964622  1.0000
  O   O16       1.0  0.6904882126603908  0.8675414588229059  0.8273510871655746  1.0000
  O   O17       1.0  0.5997069857329224  0.41486928869427686  0.19661481147315385  1.0000
  O   O18       1.0  0.8162271719899864  0.48365607498854496  0.23728393248106988  1.0000
  O   O19       1.0  0.20287212481456862  0.16956584253799886  0.35061033163996314  1.0000
  O   O20       1.0  0.20719641468576105  0.008334125043724301  0.2665988049049021  1.0000
  O   O21       1.0  0.03576709704942259  0.3728762091934286  0.14980807938980695  1.0000
  O   O22       1.0  0.8512402053507699  0.5638371105504305  0.734896513797807  1.0000
  O   O23       1.0  0.5101515011861009  0.8642478182728867  0.721118969587593  1.0000
  O   O24       1.0  0.28761869299635384  0.9034646653648082  0.6758956554790673  1.0000
  O   O25       1.0  0.9073493166527341  0.3311193408935793  0.3277954700408757  1.0000
  O   O26       1.0  0.6448178469697438  0.31947470436651315  0.3202665925846944  1.0000
  O   O27       1.0  0.6605138480399687  0.688135988222356  0.7394527626181572  1.0000
  O   O28       1.0  0.524475469525484  0.2504713126469369  0.7089367824902838  1.0000
  O   O29       1.0  0.4431103650685558  0.1373602854989215  0.5030621172577983  1.0000
  O   O30       1.0  0.695502922936484  0.4522257341302164  0.5373570853750991  1.0000
  O   O31       1.0  0.17031174096846505  0.7639226202993114  0.7918621471280363  1.0000
  O   O32       1.0  0.9405014667784503  0.8026897674238284  0.7589075372256036  1.0000
  O   O33       1.0  0.18778672175405117  0.17483581568907877  0.7875707571453109  1.0000
  O   O34       1.0  0.23583752364955754  0.9764931555325519  0.9682897656481092  1.0000
  O   O35       1.0  0.2112437572819203  0.33979249873019046  0.9847165615420511  1.0000
  O   O36       1.0  0.5390065587252336  0.2218331493910597  0.15269754797649435  1.0000
  O   O37       1.0  0.3095002221839778  0.13245882583002808  0.172647409334111  1.0000
  O   O38       1.0  0.4002890474433727  0.5851380381373729  0.8033808621346381  1.0000
  O   O39       1.0  0.18378072402578735  0.5163408212456417  0.7627097906622567  1.0000
  O   O40       1.0  0.7971674626388393  0.8304268703603623  0.6493887408681687  1.0000
  O   O41       1.0  0.7928153680357609  0.9916603342153464  0.7333925114214283  1.0000
  O   O42       1.0  0.9642395139304797  0.6271129057198195  0.8501990542928158  1.0000
