data_image0
_chemical_formula_structural       Zn8H88C88N32O16
_chemical_formula_sum              "Zn8 H88 C88 N32 O16"
_cell_length_a       14.69999411791094
_cell_length_b       16.639935436514076
_cell_length_c       17.33502591767473
_cell_angle_alpha    92.87605064023718
_cell_angle_beta     87.3894267324505
_cell_angle_gamma    81.64697574935019

_space_group_name_H-M_alt    "P 1"
_space_group_IT_number       1

loop_
  _space_group_symop_operation_xyz
  'x, y, z'

loop_
  _atom_site_type_symbol
  _atom_site_label
  _atom_site_symmetry_multiplicity
  _atom_site_fract_x
  _atom_site_fract_y
  _atom_site_fract_z
  _atom_site_occupancy
  Zn  Zn1       1.0  0.5283433004772462  0.5694043149448261  0.8885442052888236  1.0000
  Zn  Zn2       1.0  0.501173071937927  0.44082831076900664  0.07940089628703359  1.0000
  Zn  Zn3       1.0  0.9924262901434768  0.927678051673105  0.4097467821375956  1.0000
  Zn  Zn4       1.0  0.9961213445153516  0.045714308064923194  0.6498340017216079  1.0000
  Zn  Zn5       1.0  0.3736717837894545  0.579927129082307  0.013206754471561097  1.0000
  Zn  Zn6       1.0  0.830195520849429  0.027454897467016796  0.49816969771809716  1.0000
  Zn  Zn7       1.0  0.6883881306128855  0.4778430752216707  0.9880495143571363  1.0000
  Zn  Zn8       1.0  0.14425003539125916  0.981932139928574  0.5334020649263848  1.0000
  H   H1        1.0  0.47976515675751574  0.7687874387835973  0.8372090338136785  1.0000
  H   H2        1.0  0.4113021839718056  0.5096592649879598  0.2807663368759136  1.0000
  H   H3        1.0  0.8865717131130778  0.1970475586750666  0.399533490795001  1.0000
  H   H4        1.0  0.8537601738179816  0.13836287199741548  0.7755532089713312  1.0000
  H   H5        1.0  0.17019390155355293  0.35166260665462795  0.23725512544377378  1.0000
  H   H6        1.0  0.2509907599162914  0.46527421465441415  0.6494192100744555  1.0000
  H   H7        1.0  0.8015011478531804  0.85627619304703  0.7022833444340079  1.0000
  H   H8        1.0  0.6773140547974916  0.908101310221376  0.16027405722981308  1.0000
  H   H9        1.0  0.8923241976625886  0.8333871093167459  0.7649217438405315  1.0000
  H   H10       1.0  0.7909768982853577  0.8551211835660838  0.15739174725270283  1.0000
  H   H11       1.0  0.27993865810500296  0.3283891570965308  0.2754658030427704  1.0000
  H   H12       1.0  0.363084058500604  0.40999498261622597  0.6547703278239536  1.0000
  H   H13       1.0  0.9487772434338236  0.6835217357273465  0.8186446179107916  1.0000
  H   H14       1.0  0.7301216456964496  0.630789041376282  0.18549619331380274  1.0000
  H   H15       1.0  0.2882383218203515  0.095620985031367  0.30520345850123926  1.0000
  H   H16       1.0  0.2987578684321547  0.20044606217523864  0.7222762048635045  1.0000
  H   H17       1.0  0.3694813224694754  0.1851263897088202  0.2396949206113348  1.0000
  H   H18       1.0  0.38382109792307517  0.304532180432922  0.7573511736716795  1.0000
  H   H19       1.0  0.03465484502721946  0.7373105756666264  0.721965293593257  1.0000
  H   H20       1.0  0.8136309653626908  0.7256666123608682  0.2401902288448099  1.0000
  H   H21       1.0  0.08497071603622426  0.12980006495374852  0.1885966768286593  1.0000
  H   H22       1.0  0.0733596070281948  0.32742261343415174  0.75153403070869  1.0000
  H   H23       1.0  0.8870489506686993  0.5801523992266127  0.6511148242338433  1.0000
  H   H24       1.0  0.5039658256469224  0.7541932443340826  0.23117702553398087  1.0000
  H   H25       1.0  0.12494329063228794  0.2708268292992884  0.1220067835890859  1.0000
  H   H26       1.0  0.13742739795861775  0.4795088890662669  0.7645463892563809  1.0000
  H   H27       1.0  0.782759396793402  0.7360758243742396  0.6035908107587102  1.0000
  H   H28       1.0  0.5670947685598688  0.901208751942349  0.2742555208731331  1.0000
  H   H29       1.0  0.18623611945817228  0.1700398701743708  0.10088346353649058  1.0000
  H   H30       1.0  0.1510282107575946  0.4046196520206635  0.8336485384650415  1.0000
  H   H31       1.0  0.8865784567208764  0.6783141654419325  0.5579792938037328  1.0000
  H   H32       1.0  0.5819370315366896  0.8128150198735682  0.3270676911096827  1.0000
  H   H33       1.0  0.9722012780988932  0.5922716851338095  0.7600192216292497  1.0000
  H   H34       1.0  0.637184475670473  0.6555677860218836  0.2544973771272224  1.0000
  H   H35       1.0  0.2360642423400066  0.06524796153378529  0.22104369602619298  1.0000
  H   H36       1.0  0.2066550972537016  0.2380279567393586  0.789045029374648  1.0000
  H   H37       1.0  0.47577678722808503  0.6260757559611178  0.17186045513770404  1.0000
  H   H38       1.0  0.6422377435087155  0.6393383460232512  0.7590015744692947  1.0000
  H   H39       1.0  0.0036132429957404914  0.24248235899209186  0.6715878732721378  1.0000
  H   H40       1.0  0.9907731890973039  0.0792535118917783  0.2844779557641671  1.0000
  H   H41       1.0  0.3454613272201711  0.1307801135399771  0.15464513153625595  1.0000
  H   H42       1.0  0.31116603141530413  0.3159251404234737  0.8426342167094986  1.0000
  H   H43       1.0  0.023755183019766014  0.6586286361640815  0.6525066831053435  1.0000
  H   H44       1.0  0.7404047450060957  0.7239318895750415  0.3236909459525704  1.0000
  H   H45       1.0  0.33992398441370125  0.6527693445236977  0.38909879674533693  1.0000
  H   H46       1.0  0.3572938866294278  0.8426054816111446  0.7723512506457054  1.0000
  H   H47       1.0  0.7155164165975663  0.1947340754310218  0.8600758741863784  1.0000
  H   H48       1.0  0.850779289161913  0.2922969313331407  0.25580323842177677  1.0000
  H   H49       1.0  0.603120994463829  0.2386526229616024  0.7187660085736666  1.0000
  H   H50       1.0  0.6486334847298707  0.3193327629610393  0.318378214946236  1.0000
  H   H51       1.0  0.18056069328408597  0.6840714823204335  0.2806541471393657  1.0000
  H   H52       1.0  0.23151468403851533  0.8957727664698183  0.917657749423604  1.0000
  H   H53       1.0  0.21235197403454  0.6412515767829919  0.1383239287462104  1.0000
  H   H54       1.0  0.26776773419192773  0.7690790503289547  0.019186781862202892  1.0000
  H   H55       1.0  0.6597024111682683  0.11089271338774859  0.5992787154443135  1.0000
  H   H56       1.0  0.5908568229005836  0.20540753757624938  0.3918166675373981  1.0000
  H   H57       1.0  0.8751377603516984  0.5382058687997712  0.8851186203289314  1.0000
  H   H58       1.0  0.6796376457656306  0.6612828444733337  0.9946860237785411  1.0000
  H   H59       1.0  0.20068411402446165  0.12316508018655983  0.44185871783147945  1.0000
  H   H60       1.0  0.2782704669099303  0.14457984559284404  0.5799827975374968  1.0000
  H   H61       1.0  0.5415432368565261  0.38519084711584367  0.783608067562589  1.0000
  H   H62       1.0  0.5846802419507069  0.360467096437354  0.2223285570688559  1.0000
  H   H63       1.0  0.07924419613827638  0.7518957552847993  0.3603830475388675  1.0000
  H   H64       1.0  0.10962143202748102  0.9934798164378976  0.8251102910044066  1.0000
  H   H65       1.0  0.41469732065405646  0.33708038882434005  0.19296675528143933  1.0000
  H   H66       1.0  0.40972420944887483  0.5234510283776502  0.7258796162684857  1.0000
  H   H67       1.0  0.05573578717702078  0.866648038864426  0.6697750675199783  1.0000
  H   H68       1.0  0.8989706906855801  0.8219659583893771  0.2734525618345102  1.0000
  H   H69       1.0  0.8466236021335047  0.4030683207512098  0.1212252727368011  1.0000
  H   H70       1.0  0.6623322662410371  0.2908881845281925  0.9903439804511291  1.0000
  H   H71       1.0  0.30050241406752326  0.879343347351863  0.6401757316326168  1.0000
  H   H72       1.0  0.3117135377261205  0.814215169790991  0.48289846847950446  1.0000
  H   H73       1.0  0.6734456987952909  0.8171262887317781  0.7563364142838082  1.0000
  H   H74       1.0  0.5886783529828603  0.8435644379554506  0.06444423962130232  1.0000
  H   H75       1.0  0.07431278558618706  0.2725544430078913  0.3901324842079318  1.0000
  H   H76       1.0  0.1560540707560349  0.3846990184074811  0.5705413666876352  1.0000
  H   H77       1.0  0.02969323201026701  0.28024902972040167  0.26790539585370954  1.0000
  H   H78       1.0  0.04098591568865123  0.45311490360898427  0.6820393830848059  1.0000
  H   H79       1.0  0.737355682284871  0.560582523528133  0.6627962238197965  1.0000
  H   H80       1.0  0.46572053875658537  0.8876478369422998  0.18341093060082866  1.0000
  H   H81       1.0  0.2995328097309411  0.40473907954204696  0.9676779898831568  1.0000
  H   H82       1.0  0.19632523234721325  0.24420908947374903  0.021660290029885197  1.0000
  H   H83       1.0  0.6534674609530313  0.033886537441993894  0.41717165227271374  1.0000
  H   H84       1.0  0.815026179157293  0.7841752783285544  0.521780526611188  1.0000
  H   H85       1.0  0.7513488185732341  0.7414826429379175  0.8752488520279015  1.0000
  H   H86       1.0  0.8080881768386232  0.7619453417642319  0.05313444027564169  1.0000
  H   H87       1.0  0.23929528967874342  0.28672099959426584  0.41169877014920075  1.0000
  H   H88       1.0  0.37478891066925973  0.3005225245989037  0.5633684521427185  1.0000
  C   C1        1.0  0.4355276366076524  0.7566644121114477  0.8859159090982727  1.0000
  C   C2        1.0  0.3705569505348264  0.5354283624008218  0.23477465171045242  1.0000
  C   C3        1.0  0.8146306059243427  0.18895475679897797  0.4055488405690254  1.0000
  C   C4        1.0  0.8165709011094434  0.1211126915334688  0.726064968931119  1.0000
  C   C5        1.0  0.7748793101752296  0.39997015315427126  0.1368842417874205  1.0000
  C   C6        1.0  0.6275734233801129  0.32596736710248553  0.9461620183770663  1.0000
  C   C7        1.0  0.24386580306412495  0.9134075804346508  0.6760601492444706  1.0000
  C   C8        1.0  0.2462570810958198  0.8112367664718506  0.4570385253283361  1.0000
  C   C9        1.0  0.6164716945865222  0.30354598706986013  0.8688826986927152  1.0000
  C   C10       1.0  0.7366600660006027  0.3646635929725122  0.20060715180763108  1.0000
  C   C11       1.0  0.21987762136240718  0.749175914614483  0.40836516794549016  1.0000
  C   C12       1.0  0.23342047827050286  0.9220180218772641  0.7573150671225475  1.0000
  C   C13       1.0  0.3088209733455684  0.2869870329512665  0.12276416632975178  1.0000
  C   C14       1.0  0.31475828683455376  0.4655196691549008  0.8041773148633736  1.0000
  C   C15       1.0  0.9421827982330411  0.8212312109059141  0.6075610822936425  1.0000
  C   C16       1.0  0.7533636352015662  0.8780071394585746  0.30852638972829977  1.0000
  C   C17       1.0  0.7913317740034597  0.750539980828954  0.7676500610827331  1.0000
  C   C18       1.0  0.6916893306606081  0.7829973938590271  0.11265185523950548  1.0000
  C   C19       1.0  0.18165320665696777  0.2541939224396259  0.31753513648719417  1.0000
  C   C20       1.0  0.2604951636169447  0.3343522415854777  0.6241501389030047  1.0000
  C   C21       1.0  0.848269669532776  0.8061461909649877  0.7246640299995588  1.0000
  C   C22       1.0  0.7183141702781837  0.8490779291577725  0.16979389790675004  1.0000
  C   C23       1.0  0.2220188158781865  0.30138948240715985  0.25277215214635607  1.0000
  C   C24       1.0  0.2895375940782967  0.4090276430364952  0.6692142366032667  1.0000
  C   C25       1.0  0.9393147135378896  0.6561476925311069  0.7611577087356735  1.0000
  C   C26       1.0  0.6853965593381303  0.6819964949909477  0.21621439980361856  1.0000
  C   C27       1.0  0.2528641095485469  0.11859264033557788  0.25467335611601527  1.0000
  C   C28       1.0  0.2547430799933609  0.25623005570047036  0.7448943234625103  1.0000
  C   C29       1.0  0.10452194262028053  0.18799370204095572  0.20998623939969718  1.0000
  C   C30       1.0  0.12230763877211355  0.35837041987490176  0.7181808029563823  1.0000
  C   C31       1.0  0.8314004307289975  0.6325280194068695  0.6620642657646697  1.0000
  C   C32       1.0  0.5535987643128308  0.7903517146066862  0.20538793984799494  1.0000
  C   C33       1.0  0.8351286516895227  0.6589511910406215  0.7499470831801173  1.0000
  C   C34       1.0  0.6280077664470054  0.7311614835298244  0.15679860381116129  1.0000
  C   C35       1.0  0.15997107338426989  0.1711707149347461  0.2828020002486581  1.0000
  C   C36       1.0  0.19655306031006603  0.2922799726019889  0.6786814872546997  1.0000
  C   C37       1.0  0.2543980606789161  0.24483973116472407  0.17985006055476296  1.0000
  C   C38       1.0  0.27190996477502677  0.40455889695451924  0.7569953947449902  1.0000
  C   C39       1.0  0.9093505481129682  0.7582489350442218  0.6577590554037868  1.0000
  C   C40       1.0  0.7026248621172257  0.8280401715418719  0.2548888605821347  1.0000
  C   C41       1.0  0.31330070646915686  0.1672434631550459  0.2060311865724528  1.0000
  C   C42       1.0  0.3116068640628669  0.3179856985110447  0.7794940971640613  1.0000
  C   C43       1.0  0.9849473113501613  0.7017627670068834  0.6965764706640127  1.0000
  C   C44       1.0  0.7413846947812315  0.7368912483912453  0.26213401519573404  1.0000
  C   C45       1.0  0.5215570993200271  0.6236434943899454  0.12067527161575237  1.0000
  C   C46       1.0  0.6895757193791566  0.6063773664587586  0.7964485123609959  1.0000
  C   C47       1.0  0.06589197273195421  0.20680064091212808  0.6449588906122441  1.0000
  C   C48       1.0  0.038337805988213285  0.07996953514729907  0.33054563732581943  1.0000
  C   C49       1.0  0.16682299252683916  0.21892760621880572  0.1466013976018914  1.0000
  C   C50       1.0  0.16639644268769152  0.41572733776960996  0.7728437082748197  1.0000
  C   C51       1.0  0.8514513824612564  0.7027466481007848  0.6135165612508258  1.0000
  C   C52       1.0  0.5976558973665147  0.8366231634801552  0.2706925945221811  1.0000
  C   C53       1.0  0.27370994992326547  0.6782069951725019  0.367643842040728  1.0000
  C   C54       1.0  0.2982363887928726  0.8776744459005315  0.8055574571586417  1.0000
  C   C55       1.0  0.6636537571002634  0.23056676494334738  0.827348181333228  1.0000
  C   C56       1.0  0.777312249687071  0.3159949919975346  0.2615621572217107  1.0000
  C   C57       1.0  0.6573711821240521  0.20709736608881  0.7521433518090673  1.0000
  C   C58       1.0  0.7214169935744861  0.29307955313070266  0.31822905048855427  1.0000
  C   C59       1.0  0.2449602782326962  0.6511350742270707  0.2993554035661957  1.0000
  C   C60       1.0  0.29084328309168217  0.8650914918390386  0.8818140470754298  1.0000
  C   C61       1.0  0.26831335158130537  0.6015969999306136  0.16205916157398542  1.0000
  C   C62       1.0  0.3279208636294014  0.757422793649738  0.9791503300377966  1.0000
  C   C63       1.0  0.717672851951505  0.10745823355459547  0.6363233555403766  1.0000
  C   C64       1.0  0.6636119722165146  0.19264989005600336  0.40312539284424526  1.0000
  C   C65       1.0  0.8086461920736879  0.5559808047009227  0.8611701398140991  1.0000
  C   C66       1.0  0.6252853173728424  0.6417070128562018  0.030046570153260205  1.0000
  C   C67       1.0  0.1449308611159168  0.10208196571969101  0.41182610929121205  1.0000
  C   C68       1.0  0.20567227179446224  0.15571572285653448  0.5980197988717604  1.0000
  C   C69       1.0  0.3512583364480619  0.8015462392165771  0.9162031383710454  1.0000
  C   C70       1.0  0.2909106563375801  0.5948030078173189  0.23945993488997167  1.0000
  C   C71       1.0  0.7362899309621864  0.23176593812443264  0.3741783581852331  1.0000
  C   C72       1.0  0.7244003587630627  0.14647652417409765  0.7092941888313077  1.0000
  C   C73       1.0  0.5896298099113153  0.6718179561228581  0.10351260186765637  1.0000
  C   C74       1.0  0.7850175918235179  0.6065897151331896  0.8001476270260638  1.0000
  C   C75       1.0  0.15586867765448179  0.2245792742401561  0.6392084096292833  1.0000
  C   C76       1.0  0.11170674547017258  0.12437617308588497  0.3400040952564182  1.0000
  C   C77       1.0  0.5651160541370996  0.3745900134678664  0.8412461160809311  1.0000
  C   C78       1.0  0.6415433849930778  0.37911968455628653  0.18901553566639956  1.0000
  C   C79       1.0  0.12846837442781836  0.7795209628831683  0.3938022305191139  1.0000
  C   C80       1.0  0.14680134961349708  0.9711667222327521  0.7708911790075489  1.0000
  C   C81       1.0  0.38336718732521285  0.3280835129483251  0.13817408010315543  1.0000
  C   C82       1.0  0.3799849903508912  0.514850069172148  0.782918748731802  1.0000
  C   C83       1.0  0.0066124626171984256  0.8722200993978574  0.6249106783255199  1.0000
  C   C84       1.0  0.8496346088811463  0.8638956198666535  0.30996256623372176  1.0000
  C   C85       1.0  0.3051433001701511  0.4775370111600807  0.8855300392837788  1.0000
  C   C86       1.0  0.3008642775374993  0.29604301029581853  0.04266001862364988  1.0000
  C   C87       1.0  0.7277461310432612  0.9404368276020348  0.3674766128765156  1.0000
  C   C88       1.0  0.897457888357735  0.8584992693049145  0.5455598547165721  1.0000
  N   N1        1.0  0.45862077150116665  0.6906403169556797  0.9262526241127558  1.0000
  N   N2        1.0  0.3940457219833035  0.5111576640423081  0.16059336160925844  1.0000
  N   N3        1.0  0.7884315855114535  0.1300964632314319  0.44831936704325404  1.0000
  N   N4        1.0  0.8606155604392  0.07142387846348439  0.6679249665693942  1.0000
  N   N5        1.0  0.5173070696436283  0.5675235102669021  0.06169552785246419  1.0000
  N   N6        1.0  0.6593419525931593  0.560873080287095  0.850373309072104  1.0000
  N   N7        1.0  0.06261447355431929  0.13258414457457227  0.6091989963033128  1.0000
  N   N8        1.0  0.03037473376476639  0.03402920218654509  0.3923727883475009  1.0000
  N   N9        1.0  0.3308806655877844  0.552323192771368  0.11569718927438537  1.0000
  N   N10       1.0  0.39164988875702267  0.6910093502573036  0.984107259316431  1.0000
  N   N11       1.0  0.7987244685451669  0.06268568126947119  0.6118673104300851  1.0000
  N   N12       1.0  0.694946004789898  0.1307033242743074  0.4460891234094218  1.0000
  N   N13       1.0  0.7322612837680753  0.5286549025748927  0.8912933977652456  1.0000
  N   N14       1.0  0.583018455232512  0.5785166932493198  0.005481075840663203  1.0000
  N   N15       1.0  0.09610128502607297  0.04804030808487881  0.4420934810429883  1.0000
  N   N16       1.0  0.1496334619611304  0.1017481163152851  0.5807407086002881  1.0000
  N   N17       1.0  0.5495688603230704  0.43417611673828554  0.8968051367619762  1.0000
  N   N18       1.0  0.624734547589412  0.4186015301620927  0.12490558534996406  1.0000
  N   N19       1.0  0.10441521034897495  0.8539184744864772  0.42842457031837705  1.0000
  N   N20       1.0  0.1100017039960264  0.9894319672494303  0.7026214389219587  1.0000
  N   N21       1.0  0.4145329269193566  0.35965517210736664  0.07353006539448609  1.0000
  N   N22       1.0  0.4063912157020226  0.5552534191678262  0.8455520428510821  1.0000
  N   N23       1.0  0.0009171388923050371  0.9365225466655784  0.5792577765447715  1.0000
  N   N24       1.0  0.8787793275026058  0.9119626522183778  0.36500353068301183  1.0000
  N   N25       1.0  0.3590080724480699  0.5322030782897045  0.9092565309254254  1.0000
  N   N26       1.0  0.3623134213707999  0.3405471909652319  0.013417308373156798  1.0000
  N   N27       1.0  0.8035154025875995  0.9586492808953153  0.40191166556957814  1.0000
  N   N28       1.0  0.9318946986342806  0.9277446182606252  0.5279267781127714  1.0000
  N   N29       1.0  0.7070026420727229  0.4323804275177565  0.091513776562735  1.0000
  N   N30       1.0  0.5880295205235198  0.40499160900944275  0.9628392346296123  1.0000
  N   N31       1.0  0.17037821909498513  0.9529949120228522  0.644478030632939  1.0000
  N   N32       1.0  0.17686060416121308  0.8743094035109279  0.46789096046085615  1.0000
  O   O1        1.0  0.6991012704909919  0.760456959392414  0.7428092796733876  1.0000
  O   O2        1.0  0.6510284547691397  0.8177280392040629  0.046672319286919596  1.0000
  O   O3        1.0  0.099137993383259  0.304145376381463  0.35004107911090176  1.0000
  O   O4        1.0  0.2184552434775924  0.35765107292787224  0.5541996712046924  1.0000
  O   O5        1.0  0.019465322678200888  0.2417065667522138  0.22531229156074054  1.0000
  O   O6        1.0  0.07207507823019907  0.40155153502340113  0.6584093685382867  1.0000
  O   O7        1.0  0.7479049633569375  0.6091258772926905  0.6365857894376246  1.0000
  O   O8        1.0  0.5055323437732396  0.8446152716361015  0.15298065111010567  1.0000
  O   O9        1.0  0.2538459291728898  0.44286818647508136  0.9363362091748397  1.0000
  O   O10       1.0  0.2419688012000662  0.2684779325926315  0.9920037410498209  1.0000
  O   O11       1.0  0.6436197245910265  0.9806730698683809  0.3904195368453712  1.0000
  O   O12       1.0  0.8285401723852812  0.8363267513338641  0.5045774583029183  1.0000
  O   O13       1.0  0.7910988188951151  0.773993156243911  0.847564820057691  1.0000
  O   O14       1.0  0.7716808335533897  0.7290299549466469  0.08351745160523898  1.0000
  O   O15       1.0  0.24365819856360818  0.23756942841589523  0.37740870258937775  1.0000
  O   O16       1.0  0.338560098909582  0.275665660980394  0.6014795894559127  1.0000
