data_image0
_chemical_formula_structural       Sr2H8C4S4O12
_chemical_formula_sum              "Sr2 H8 C4 S4 O12"
_cell_length_a       4.974353928826651
_cell_length_b       4.974358978082276
_cell_length_c       14.982716009205996
_cell_angle_alpha    87.18947855221872
_cell_angle_beta     87.18947892533394
_cell_angle_gamma    66.48884895033848

_space_group_name_H-M_alt    "P 1"
_space_group_IT_number       1

loop_
  _space_group_symop_operation_xyz
  'x, y, z'

loop_
  _atom_site_type_symbol
  _atom_site_label
  _atom_site_symmetry_multiplicity
  _atom_site_fract_x
  _atom_site_fract_y
  _atom_site_fract_z
  _atom_site_occupancy
  Sr  Sr1       1.0  0.030638060616261963  0.9693607479975694  0.7499997884367675  1.0000
  Sr  Sr2       1.0  0.9693638258792989  0.0306378015293021  0.2500002095843925  1.0000
  H   H1        1.0  0.6836370621899378  0.6604305656558653  0.4651418469899583  1.0000
  H   H2        1.0  0.33956984357972436  0.31636451696050466  0.0348579174532588  1.0000
  H   H3        1.0  0.31636193882530256  0.33957017558511643  0.5348581627818021  1.0000
  H   H4        1.0  0.6604311694761121  0.6836362260092271  0.9651420582104182  1.0000
  H   H5        1.0  0.8795424427350935  0.8319348180986736  0.520490657282366  1.0000
  H   H6        1.0  0.1680645778316787  0.12045778865513056  0.9795095623968422  1.0000
  H   H7        1.0  0.12045655542175378  0.1680659202840147  0.4795086851486019  1.0000
  H   H8        1.0  0.8319364380825431  0.8795429571728945  0.020491080607619908  1.0000
  C   C1        1.0  0.85623804612338  0.6241303048950471  0.5128977585243393  1.0000
  C   C2        1.0  0.3758681226980798  0.14376190281981846  0.9871024841008806  1.0000
  C   C3        1.0  0.14376182547319874  0.375868240044788  0.48710160626411186  1.0000
  C   C4        1.0  0.6241308811755532  0.8562388412794489  0.012898193011658107  1.0000
  S   S1        1.0  0.7163034743229204  0.5460556022793526  0.6183197820591745  1.0000
  S   S2        1.0  0.45394704028785804  0.28369481753400544  0.8816804166516052  1.0000
  S   S3        1.0  0.283690629171396  0.453947328946981  0.38168027357125583  1.0000
  S   S4        1.0  0.5460510872876512  0.7163081171498362  0.1183195707626652  1.0000
  O   O1        1.0  0.9184200241981275  0.545990163731375  0.6882449442458382  1.0000
  O   O2        1.0  0.45400870038400143  0.0815810691732963  0.8117546055038077  1.0000
  O   O3        1.0  0.08158300089830553  0.4540105809671148  0.3117549973097624  1.0000
  O   O4        1.0  0.5459911740709699  0.9184174786248251  0.1882454266254285  1.0000
  O   O5        1.0  0.7172513258799288  0.24935991900031237  0.6151542173949878  1.0000
  O   O6        1.0  0.7506401330470851  0.2827493819308415  0.8848453196756695  1.0000
  O   O7        1.0  0.28274968717590104  0.7506408239694194  0.38484575826868916  1.0000
  O   O8        1.0  0.24936088000875148  0.7172513610388975  0.1151546559880074  1.0000
  O   O9        1.0  0.4212658316370152  0.7772322994326828  0.629109300240515  1.0000
  O   O10       1.0  0.22276827219317133  0.5787338274072624  0.8708909053676521  1.0000
  O   O11       1.0  0.5787371934594105  0.22276844526579956  0.37089064131507854  1.0000
  O   O12       1.0  0.7772336143023965  0.42126472211960925  0.1291090926535077  1.0000
