data_image0
_chemical_formula_structural       Al6H44C90S5O49
_chemical_formula_sum              "Al6 H44 C90 S5 O49"
_cell_length_a       11.977924683295422
_cell_length_b       12.084782290130667
_cell_length_c       27.781089547764257
_cell_angle_alpha    92.8220650635383
_cell_angle_beta     89.16755091227957
_cell_angle_gamma    117.00607668997877

_space_group_name_H-M_alt    "P 1"
_space_group_IT_number       1

loop_
  _space_group_symop_operation_xyz
  'x, y, z'

loop_
  _atom_site_type_symbol
  _atom_site_label
  _atom_site_symmetry_multiplicity
  _atom_site_fract_x
  _atom_site_fract_y
  _atom_site_fract_z
  _atom_site_occupancy
  Al  Al1       1.0  0.2051369648860445  0.6063646329863489  0.506711999950177  1.0000
  Al  Al2       1.0  0.9423835772391983  0.3590024424908406  0.5010548857128256  1.0000
  Al  Al3       1.0  0.935661046665821  0.6045813485380831  0.5007194390055361  1.0000
  Al  Al4       1.0  0.16335595289505278  0.08990704678746649  0.0211499356915041  1.0000
  Al  Al5       1.0  0.4119324597804876  0.061346786771487395  0.014743545756246602  1.0000
  Al  Al6       1.0  0.4276741539113758  0.3180626131018442  0.014734858539228  1.0000
  H   H1        1.0  0.6232571069298627  0.12159850318445815  0.7619502172996634  1.0000
  H   H2        1.0  0.09972543174431081  0.5964069205400763  0.7929618365917861  1.0000
  H   H3        1.0  0.26119850271584255  0.5282374041037556  0.798503136011263  1.0000
  H   H4        1.0  0.3755171540737336  0.44537652352926216  0.7250412622231791  1.0000
  H   H5        1.0  0.03335601623415839  0.41597136649670563  0.7448408888253581  1.0000
  H   H6        1.0  0.0761334740147461  0.11029813668882579  0.7203976225688891  1.0000
  H   H7        1.0  0.30313787993593877  0.2205074220218535  0.7748687507223764  1.0000
  H   H8        1.0  0.6552486048373609  0.49561747778203374  0.3828346890775123  1.0000
  H   H9        1.0  0.7032915879242125  0.4785011928471405  0.12466512503622341  1.0000
  H   H10       1.0  0.6045302363070562  0.129824722150218  0.2314810120266699  1.0000
  H   H11       1.0  0.558336079334012  0.08642681746585619  0.1439028494779464  1.0000
  H   H12       1.0  0.7920351874206871  0.22760200322544924  0.2823182400021125  1.0000
  H   H13       1.0  0.8294790559127565  0.2517996475349237  0.37004716435409085  1.0000
  H   H14       1.0  0.9490009567548583  0.742884651231563  0.3759772257560172  1.0000
  H   H15       1.0  0.31219087029952414  0.7674836555504712  0.21734836124271342  1.0000
  H   H16       1.0  0.8484590618835737  0.3054672420696106  0.7270529579038154  1.0000
  H   H17       1.0  0.9633984412340267  0.7736288570384247  0.2889905963403905  1.0000
  H   H18       1.0  0.9972758830875037  0.8468211448244958  0.22624855361622306  1.0000
  H   H19       1.0  0.3460064440367177  0.827229665886392  0.29132579314536133  1.0000
  H   H20       1.0  0.3265081244706992  0.7886324898659539  0.3785589772466551  1.0000
  H   H21       1.0  0.30614716434097733  0.5580522922946187  0.38652017083451545  1.0000
  H   H22       1.0  0.004881188974359007  0.2767496340009785  0.21416995001642647  1.0000
  H   H23       1.0  0.3380760133087932  0.5614276092336609  0.2980159186840154  1.0000
  H   H24       1.0  0.4045227237372798  0.48484662282789504  0.23472575668370146  1.0000
  H   H25       1.0  0.8580468744407099  0.46935690086536397  0.8061955375490656  1.0000
  H   H26       1.0  0.4331595357465475  0.4615697025903599  0.14631317749664416  1.0000
  H   H27       1.0  0.036262034953765  0.18788843740745156  0.2826602130297715  1.0000
  H   H28       1.0  0.7216481678362142  0.5609106431855437  0.7490657606040899  1.0000
  H   H29       1.0  0.4970065927265351  0.37645775860281117  0.7834160105627106  1.0000
  H   H30       1.0  0.14716104632344695  0.9967409937494479  0.7426228804919717  1.0000
  H   H31       1.0  0.925342208744027  0.6329666835785305  0.7352502955315501  1.0000
  H   H32       1.0  0.4406607087528086  0.8364296588321237  0.7922934261420239  1.0000
  H   H33       1.0  0.3510671232094751  0.07372670143653438  0.818772339782086  1.0000
  H   H34       1.0  0.8252940930217252  0.9812531691788211  0.7684047740511845  1.0000
  H   H35       1.0  0.5569740690404217  0.1929313816859448  0.6286763250575831  1.0000
  H   H36       1.0  0.8058464561518264  0.6240900434846139  0.17994961464730613  1.0000
  H   H37       1.0  0.5461240694007543  0.4368186223528098  0.2542010980103626  1.0000
  H   H38       1.0  0.4928797843948728  0.7556925167902122  0.1651312622621006  1.0000
  H   H39       1.0  0.9551130652673337  0.9399506511965185  0.05262013231604361  1.0000
  H   H40       1.0  0.9120387419685587  0.19546918016382614  0.1396362815123098  1.0000
  H   H41       1.0  0.0049176083268420824  0.12461787810755708  0.4098881295110886  1.0000
  H   H42       1.0  0.9292166530137109  0.8864132621371182  0.8377806406587637  1.0000
  H   H43       1.0  0.4063007074294375  0.714438978414293  0.5408925087393044  1.0000
  H   H44       1.0  0.9353344728543861  0.9885616553019787  0.9990694945535026  1.0000
  C   C1        1.0  0.11456679518115459  0.3923069427469629  0.5729524403894999  1.0000
  C   C2        1.0  0.7406159443426433  0.400455755134942  0.6153972678782367  1.0000
  C   C3        1.0  0.5761454349215783  0.36137146710787965  0.7711601766522519  1.0000
  C   C4        1.0  0.648998119807537  0.309587296789438  0.8032380563510982  1.0000
  C   C5        1.0  0.7020620923498984  0.46394852936557374  0.7523280213645478  1.0000
  C   C6        1.0  0.6996576577061476  0.3740914383127958  0.7084460495017383  1.0000
  C   C7        1.0  0.7765297895321055  0.41386111977376316  0.7832115398162784  1.0000
  C   C8        1.0  0.7715590951933535  0.3222707837577019  0.7407233704790387  1.0000
  C   C9        1.0  0.6220817852927994  0.28183400053567453  0.8523983473727199  1.0000
  C   C10       1.0  0.7219742738624432  0.3948064877360977  0.658747355168444  1.0000
  C   C11       1.0  0.13758982283062707  0.9076399268486386  0.753443993584206  1.0000
  C   C12       1.0  0.7910705618002751  0.41787382070162943  0.5672482957931493  1.0000
  C   C13       1.0  0.026491753680687714  0.8156374510374249  0.7852767608544936  1.0000
  C   C14       1.0  0.17026489211463777  0.8422513023463268  0.9095668396403696  1.0000
  C   C15       1.0  0.11238551661206483  0.7853918049359123  0.6229336153786065  1.0000
  C   C16       1.0  0.23601739051086673  0.8895784541725504  0.7832391016156279  1.0000
  C   C17       1.0  0.12413090525929242  0.7964904302283242  0.8168977999321072  1.0000
  C   C18       1.0  0.21960914547794633  0.7758188622876858  0.7496930249401713  1.0000
  C   C19       1.0  0.12260367733002651  0.7969291495081309  0.7175361259616508  1.0000
  C   C20       1.0  0.10981538240903188  0.6852482555406214  0.7811182563880124  1.0000
  C   C21       1.0  0.01372825248723321  0.7052407715100414  0.7498914710055402  1.0000
  C   C22       1.0  0.14055981354636773  0.8109357817409162  0.8674869405423351  1.0000
  C   C23       1.0  0.10066082280331295  0.7442321133624503  0.5728154623178767  1.0000
  C   C24       1.0  0.11883383396511951  0.7950677264639482  0.6667110431935939  1.0000
  C   C25       1.0  0.28473229874310846  0.38929929181762185  0.7410971017022447  1.0000
  C   C26       1.0  0.22008244929270407  0.43567537819647134  0.7807317531869771  1.0000
  C   C27       1.0  0.20857701826535185  0.29714768278127923  0.9009573997003599  1.0000
  C   C28       1.0  0.13156684763833232  0.3546636243931545  0.6194246047939274  1.0000
  C   C29       1.0  0.2447228894180569  0.2655357954376285  0.7674149415407285  1.0000
  C   C30       1.0  0.18155123133750095  0.3131637003902624  0.8084174625551555  1.0000
  C   C31       1.0  0.1189549076981251  0.2027342302803774  0.7383808539555191  1.0000
  C   C32       1.0  0.1581728699778253  0.3263193408477392  0.7110511148589466  1.0000
  C   C33       1.0  0.054436656228020304  0.2491939469390303  0.7781640223281912  1.0000
  C   C34       1.0  0.12686736881980917  0.3883975095419102  0.4355868868595607  1.0000
  C   C35       1.0  0.09399243697917109  0.3732562199597709  0.7519642054035528  1.0000
  C   C36       1.0  0.19579668302633726  0.3056074764096479  0.8581663731832094  1.0000
  C   C37       1.0  0.1433958233747461  0.3373436540022611  0.6614174402899876  1.0000
  C   C38       1.0  0.749202937747242  0.37842644915177454  0.382353497571188  1.0000
  C   C39       1.0  0.6848698687092848  0.4357351723536666  0.3613614364572513  1.0000
  C   C40       1.0  0.6564234239451706  0.41653487465482897  0.31211740252690845  1.0000
  C   C41       1.0  0.6985911168902703  0.3448259360564947  0.2821206922664814  1.0000
  C   C42       1.0  0.7592973908498806  0.28450771389262997  0.3041448313158597  1.0000
  C   C43       1.0  0.7822691548058103  0.2991131310846598  0.3536335701277267  1.0000
  C   C44       1.0  0.7111545515768682  0.42770375151878426  0.1971861319241413  1.0000
  C   C45       1.0  0.7944684937349964  0.4082041580776519  0.4331385746644472  1.0000
  C   C46       1.0  0.681070191814392  0.40141588931896166  0.1480999458707544  1.0000
  C   C47       1.0  0.6005452003897034  0.1818507798607314  0.1589345429846603  1.0000
  C   C48       1.0  0.6278739372843987  0.20708097255466382  0.20808618373953183  1.0000
  C   C49       1.0  0.6792374804676556  0.32853757934618955  0.22890363279257292  1.0000
  C   C50       1.0  0.6227334285328966  0.27928604709104843  0.1287724539477111  1.0000
  C   C51       1.0  0.1364323139810608  0.7628740788611026  0.38259809950555024  1.0000
  C   C52       1.0  0.03597455184747374  0.7623919091128851  0.35719594906397123  1.0000
  C   C53       1.0  0.045329321732410124  0.7813693848287427  0.30813509525391686  1.0000
  C   C54       1.0  0.15557555154414623  0.8020892373396364  0.2830242606114339  1.0000
  C   C55       1.0  0.25776991129504256  0.8070535436467877  0.3093359341353406  1.0000
  C   C56       1.0  0.11931283500599939  0.725600547895276  0.4333298061981665  1.0000
  C   C57       1.0  0.24831278094551829  0.7869754135849618  0.3583923258476532  1.0000
  C   C58       1.0  0.25351074159308223  0.8038235158869393  0.2019212509459081  1.0000
  C   C59       1.0  0.266457727448234  0.8308390660014522  0.15348715744539024  1.0000
  C   C60       1.0  0.08644443264320513  0.8722164103203911  0.15827484427401828  1.0000
  C   C61       1.0  0.07616761808051105  0.8454100950690914  0.20685125502781432  1.0000
  C   C62       1.0  0.1628706120149631  0.8187366859506543  0.23054034211045152  1.0000
  C   C63       1.0  0.19006594195067822  0.8767065574134992  0.1313341953017471  1.0000
  C   C64       1.0  0.1548312191872867  0.3729148740474812  0.384178217449886  1.0000
  C   C65       1.0  0.24884049259300403  0.4772604883909678  0.3631910226747692  1.0000
  C   C66       1.0  0.26493455699991836  0.47912723750962977  0.3135957201821213  1.0000
  C   C67       1.0  0.5726996644397175  0.2700566073729576  0.7287015900693135  1.0000
  C   C68       1.0  0.18667360382205084  0.3767304126969719  0.2835921217585877  1.0000
  C   C69       1.0  0.09466423262736612  0.2710546638660887  0.30480037358963596  1.0000
  C   C70       1.0  0.078504294136458  0.2671176002583024  0.3546884408709161  1.0000
  C   C71       1.0  0.09965295667740288  0.3185374117942245  0.1995913531873441  1.0000
  C   C72       1.0  0.1139821779682038  0.3125725452713368  0.1498644376257872  1.0000
  C   C73       1.0  0.33952802485722333  0.42505454445774393  0.1615781401760188  1.0000
  C   C74       1.0  0.3233605544196721  0.4360492909435224  0.2109867353234449  1.0000
  C   C75       1.0  0.2032044479786705  0.3780751640425706  0.23094005104164947  1.0000
  C   C76       1.0  0.23632997701322717  0.36084905120616634  0.1307633035652529  1.0000
  C   C77       1.0  0.21442177010329283  0.9110862083073527  0.954963558061614  1.0000
  C   C78       1.0  0.6461210794997144  0.2192675490144822  0.7594199501022417  1.0000
  C   C79       1.0  0.5519143523129273  0.24337019946123212  0.9435434186860546  1.0000
  C   C80       1.0  0.23073070842181662  0.271426504273009  0.9486084390071241  1.0000
  C   C81       1.0  0.22678434291987765  0.9439857815958063  0.08593393104251132  1.0000
  C   C82       1.0  0.571862985721694  0.25186860431043107  0.07888440949506761  1.0000
  C   C83       1.0  0.2606272938584624  0.32342933049933004  0.08177803380083762  1.0000
  C   C84       1.0  0.5970310451907962  0.2619941203845783  0.8948461676184394  1.0000
  C   C85       1.0  0.35243529011279423  0.985916883995323  0.8057255004361039  1.0000
  C   C86       1.0  0.7795470197249016  0.5621329668036806  0.2108739282469969  1.0000
  C   C87       1.0  0.5783465886362507  0.4692476208883035  0.2920385858074823  1.0000
  C   C88       1.0  0.9960004188345764  0.2638035142383828  0.12069787717759792  1.0000
  C   C89       1.0  0.9843605171805268  0.1475913290102255  0.37392935255265775  1.0000
  C   C90       1.0  0.929704587311704  0.853469533287189  0.7998538414829284  1.0000
  S   S1        1.0  0.3450612102182404  0.7499974089844699  0.7268203746887992  1.0000
  S   S2        1.0  0.9128527268028253  0.1570016808737265  0.807994533872261  1.0000
  S   S3        1.0  0.44454223821764316  0.18403051407170778  0.6900127336459647  1.0000
  S   S4        1.0  0.375886716204839  0.7935125623178579  0.1191480064596107  1.0000
  S   S5        1.0  0.9534194985024836  0.8982824183196597  0.1383623454643583  1.0000
  O   O1        1.0  0.18731052791302719  0.7227501907956154  0.5559460557237657  1.0000
  O   O2        1.0  0.8180594646613102  0.32922694514167006  0.45418680092283387  1.0000
  O   O3        1.0  0.815256734132788  0.5149505378226208  0.45197026318876254  1.0000
  O   O4        1.0  0.019207110521591707  0.7174048945041706  0.4547678764581775  1.0000
  O   O5        1.0  0.02488036724510323  0.5224734473330486  0.5035690242748032  1.0000
  O   O6        1.0  0.1501549367633999  0.169593072317106  0.9652270281715403  1.0000
  O   O7        1.0  0.14245525046165847  0.948211994037301  0.9760190964485247  1.0000
  O   O8        1.0  0.32600772208224527  0.9352900817015096  0.9679484518722389  1.0000
  O   O9        1.0  0.5249874232276356  0.139983065389103  0.9623588369355219  1.0000
  O   O10       1.0  0.5370540021938126  0.3337889892069015  0.9637632972917274  1.0000
  O   O11       1.0  0.33260146216709785  0.3504314196355693  0.9693792559987459  1.0000
  O   O12       1.0  0.18944581983872413  0.5011865182755671  0.5619121278788128  1.0000
  O   O13       1.0  0.17719482000620698  0.22375197041500172  0.062309341924788  1.0000
  O   O14       1.0  0.16545245283791843  0.0009780187726135992  0.0745085744344394  1.0000
  O   O15       1.0  0.32272683189400914  0.9498725936862015  0.0626853933317193  1.0000
  O   O16       1.0  0.5386873720780159  0.14220513144941546  0.05997557186240951  1.0000
  O   O17       1.0  0.5556089237088954  0.3365483905808162  0.0587857114590378  1.0000
  O   O18       1.0  0.3706491206794169  0.38706203966585667  0.0637374773189023  1.0000
  O   O19       1.0  0.33516526514794986  0.1555625355468919  0.015103570552362602  1.0000
  O   O20       1.0  0.020729154704909512  0.312592786190443  0.5471843410383457  1.0000
  O   O21       1.0  0.8188889781023647  0.3337848435439809  0.5497994184891013  1.0000
  O   O22       1.0  0.8096230834695533  0.5176038362487391  0.5475777441741627  1.0000
  O   O23       1.0  0.9991134786527169  0.7257606971108571  0.5508863746320216  1.0000
  O   O24       1.0  0.19906031045526615  0.6984713989865695  0.451760181906053  1.0000
  O   O25       1.0  0.20513236964839626  0.481029478141025  0.46010971728152583  1.0000
  O   O26       1.0  0.017934203953593936  0.31026278195322027  0.4510044290267246  1.0000
  O   O27       1.0  0.29379397780030553  0.6253932435915885  0.7060167453471919  1.0000
  O   O28       1.0  0.4252061120940808  0.8550837083196328  0.6999263307619684  1.0000
  O   O29       1.0  0.4115077325485074  0.7502131706105643  0.776272397496662  1.0000
  O   O30       1.0  0.4460487642378794  0.9714131493561025  0.8128550429900443  1.0000
  O   O31       1.0  0.9398149234487578  0.08526157937016879  0.8418980476246106  1.0000
  O   O32       1.0  0.8583040081461704  0.23658125545888  0.8240072302569884  1.0000
  O   O33       1.0  0.8240209854837489  0.064052841864509  0.7665837624848849  1.0000
  O   O34       1.0  0.3547529130193823  0.0790244243198188  0.7149919314388455  1.0000
  O   O35       1.0  0.4071796831195797  0.26853518882215616  0.6688083045936182  1.0000
  O   O36       1.0  0.5036781171363813  0.1270810778915745  0.650280745090285  1.0000
  O   O37       1.0  0.8069922701364831  0.6074933638314731  0.2521023383768082  1.0000
  O   O38       1.0  0.5449983697938663  0.5391997151148544  0.31420000486313165  1.0000
  O   O39       1.0  0.3087409854024798  0.7107576596603237  0.0794629516878373  1.0000
  O   O40       1.0  0.4954135540174319  0.9009793464563387  0.113318621218113  1.0000
  O   O41       1.0  0.4033962810743361  0.7100571033384852  0.15701348072464327  1.0000
  O   O42       1.0  0.8532977259614896  0.8222274290797813  0.1704790851415723  1.0000
  O   O43       1.0  0.9959975869720523  0.031608630652250704  0.1444687759979502  1.0000
  O   O44       1.0  0.922203150393294  0.8477531782042153  0.08753075577111961  1.0000
  O   O45       1.0  0.9874865128455426  0.2999785961693817  0.0813083410646414  1.0000
  O   O46       1.0  0.8907396033740937  0.07534203494400059  0.3509207210947237  1.0000
  O   O47       1.0  0.857357670552176  0.8575739836230765  0.7694952843481814  1.0000
  O   O48       1.0  0.3687463503369201  0.6838310202421382  0.5093801765377606  1.0000
  O   O49       1.0  0.9890163470657427  0.011575907784042296  0.0273247759606932  1.0000
