data_image0
_chemical_formula_structural       Cu2H44C24O10
_chemical_formula_sum              "Cu2 H44 C24 O10"
_cell_length_a       8.908472241678664
_cell_length_b       9.416270756286538
_cell_length_c       10.478921286386779
_cell_angle_alpha    84.16431134686896
_cell_angle_beta     67.65423614282139
_cell_angle_gamma    70.88439156074557

_space_group_name_H-M_alt    "P 1"
_space_group_IT_number       1

loop_
  _space_group_symop_operation_xyz
  'x, y, z'

loop_
  _atom_site_type_symbol
  _atom_site_label
  _atom_site_symmetry_multiplicity
  _atom_site_fract_x
  _atom_site_fract_y
  _atom_site_fract_z
  _atom_site_occupancy
  Cu  Cu1       1.0  0.12296986725355201  0.032014503843740306  0.5074297843009177  1.0000
  Cu  Cu2       1.0  0.8770191145074618  0.9679823169859036  0.49257188716524075  1.0000
  H   H1        1.0  0.2694521066700518  0.677948530955298  0.7935259905412835  1.0000
  H   H2        1.0  0.7305618642387302  0.32204964769720595  0.20646750294120159  1.0000
  H   H3        1.0  0.30427784993287327  0.48089223025473876  0.7925215463863821  1.0000
  H   H4        1.0  0.6957408621442766  0.5191161556993367  0.2074713580700518  1.0000
  H   H5        1.0  0.395820760009876  0.5698987558015175  0.6376129607599522  1.0000
  H   H6        1.0  0.6041955333847041  0.4301062675777488  0.3623886769356942  1.0000
  H   H7        1.0  0.17423488418040017  0.36877480747180874  0.668368316547479  1.0000
  H   H8        1.0  0.8257912614923127  0.6312166871782451  0.3316171194933304  1.0000
  H   H9        1.0  0.030258027539161958  0.48719830407974746  0.5936663703212588  1.0000
  H   H10       1.0  0.9697603197167908  0.5128077949147567  0.40632209754794957  1.0000
  H   H11       1.0  0.2525718431759786  0.4639442960443745  0.5145478131249135  1.0000
  H   H12       1.0  0.7474533597147327  0.5360629775949662  0.4854354719639105  1.0000
  H   H13       1.0  0.9465427110544984  0.7167324929353783  0.9023205847437196  1.0000
  H   H14       1.0  0.053480098893920996  0.2832713799471022  0.09766474876166599  1.0000
  H   H15       1.0  0.8501565071446746  0.6417258830564024  0.8157726124355731  1.0000
  H   H16       1.0  0.1498638161617832  0.3582847464324034  0.18421478818626724  1.0000
  H   H17       1.0  0.9870788966681441  0.5189729283761225  0.8954334957274243  1.0000
  H   H18       1.0  0.012928556506714988  0.48103308143897294  0.10456039816748586  1.0000
  H   H19       1.0  0.6913256082668937  0.15030387703553322  0.08771978295413159  1.0000
  H   H20       1.0  0.3086662023041454  0.8496918472077299  0.912282035941864  1.0000
  H   H21       1.0  0.7596866180386147  0.9874011391119026  0.9822591335379582  1.0000
  H   H22       1.0  0.24029312249970758  0.012591095406890001  0.017747859175820193  1.0000
  H   H23       1.0  0.9003661524718325  0.09445229893022862  0.9572365777280679  1.0000
  H   H24       1.0  0.09962090530925123  0.9055365747081086  0.04276074322906002  1.0000
  H   H25       1.0  0.431233216228975  0.2641825735768109  0.02251294734088555  1.0000
  H   H26       1.0  0.568747133921768  0.7358277707392703  0.9775016701809561  1.0000
  H   H27       1.0  0.454007084751062  0.2793986862805583  0.8459654705008717  1.0000
  H   H28       1.0  0.5459717093280786  0.720609332682102  0.15404032623558098  1.0000
  H   H29       1.0  0.493437264049696  0.09984220897554512  0.9201513398302694  1.0000
  H   H30       1.0  0.5065339379879744  0.9001567319993953  0.07986062835038876  1.0000
  H   H31       1.0  0.8458915899286409  0.35114271538007114  0.8499242402439151  1.0000
  H   H32       1.0  0.15409300077648405  0.6488462069258817  0.15008627673417152  1.0000
  H   H33       1.0  0.6609909071094365  0.43158386704873675  0.8074462893189603  1.0000
  H   H34       1.0  0.3390004314121028  0.5684130687506582  0.19257083536620456  1.0000
  H   H35       1.0  0.6396087949995534  0.4109911735519844  0.9837334531362457  1.0000
  H   H36       1.0  0.3603859196952683  0.5889933240146092  0.01627326936302608  1.0000
  H   H37       1.0  0.4445026338196527  0.12132189418694142  0.6633230637951185  1.0000
  H   H38       1.0  0.5555028059428365  0.8786829800125419  0.336673495204913  1.0000
  H   H39       1.0  0.2785038092962609  0.0337563686402405  0.7261900079463075  1.0000
  H   H40       1.0  0.7215003914124692  0.9662485380749288  0.2738145815262031  1.0000
  H   H41       1.0  0.5282556650037906  0.19229772460360553  0.42064163315310316  1.0000
  H   H42       1.0  0.4717465639216555  0.8076993058297789  0.5793710204810266  1.0000
  H   H43       1.0  0.41786291387735724  0.15117188272719062  0.32324481590685394  1.0000
  H   H44       1.0  0.5821436424118076  0.8488398196235352  0.6767593230068272  1.0000
  C   C1        1.0  0.08083906263978231  0.7531766381800297  0.6227119920425466  1.0000
  C   C2        1.0  0.9191749682839899  0.24681477253339784  0.3772821256231111  1.0000
  C   C3        1.0  0.12171106299067698  0.6072342952694926  0.7016428892878536  1.0000
  C   C4        1.0  0.8783012440281586  0.3927683968781892  0.2983535738967048  1.0000
  C   C5        1.0  0.28252772844739843  0.5833382621091446  0.732829336172223  1.0000
  C   C6        1.0  0.717483346282009  0.4166677919779644  0.26716529564657066  1.0000
  C   C7        1.0  0.1457022629385989  0.4743909224174061  0.6141742173949112  1.0000
  C   C8        1.0  0.8543205586314071  0.5256095937684293  0.38581620307539316  1.0000
  C   C9        1.0  0.9664221017835644  0.6226752711519552  0.837184020796684  1.0000
  C   C10       1.0  0.0335897993750365  0.3773285343694326  0.1628105586330619  1.0000
  C   C11       1.0  0.8054819150689311  0.12776678622822152  0.7359664108601791  1.0000
  C   C12       1.0  0.1944938090861539  0.8722265010285214  0.26403509525091806  1.0000
  C   C13       1.0  0.6943614782265044  0.20129460927687157  0.8803218766701945  1.0000
  C   C14       1.0  0.30562547482337277  0.798704438088386  0.11967832791082594  1.0000
  C   C15       1.0  0.7665781782900041  0.10181524313523484  0.9828197230078218  1.0000
  C   C16       1.0  0.23340680606372644  0.8981792628265595  0.01717963887124086  1.0000
  C   C17       1.0  0.5073247249855014  0.21146553350612868  0.9192840178643776  1.0000
  C   C18       1.0  0.492651668796988  0.7885390956088258  0.08072573723796948  1.0000
  C   C19       1.0  0.7115237986503544  0.35839082041686504  0.8802017644324283  1.0000
  C   C20       1.0  0.288466840236282  0.6415981574938528  0.11980679916990054  1.0000
  C   C21       1.0  0.3916885400710939  0.04195735664400501  0.6380378090690896  1.0000
  C   C22       1.0  0.6083100177263177  0.9580497214256031  0.36196266564507323  1.0000
  C   C23       1.0  0.47300833825998  0.1107221635016202  0.4027928798864339  1.0000
  C   C24       1.0  0.5269962830177164  0.8892816080215341  0.5972097734422234  1.0000
  O   O1        1.0  0.17589164275130983  0.836020362281211  0.5999174152146337  1.0000
  O   O2        1.0  0.8240950493556056  0.1639991089020114  0.4001019262594808  1.0000
  O   O3        1.0  0.04811857317839948  0.21960554662575762  0.4119167181036262  1.0000
  O   O4        1.0  0.9519178459314405  0.7803679437701518  0.5880585320274108  1.0000
  O   O5        1.0  0.9602323574692518  0.1270836336646823  0.6891740179425838  1.0000
  O   O6        1.0  0.039737960031281626  0.8729343393591834  0.3108125678025218  1.0000
  O   O7        1.0  0.2634870986809831  0.9279409132033936  0.32406543732084697  1.0000
  O   O8        1.0  0.7364964667000251  0.07202434837691382  0.6759543397961918  1.0000
  O   O9        1.0  0.33281619264122486  0.10047246345592951  0.5269077996058797  1.0000
  O   O10       1.0  0.6671816361038339  0.8995267003616336  0.47309175382276425  1.0000
