data_image0
_chemical_formula_structural       Tl4H24C24N12Cl12
_chemical_formula_sum              "Tl4 H24 C24 N12 Cl12"
_cell_length_a       7.713697976684603
_cell_length_b       11.650729074001335
_cell_length_c       11.756562066001255
_cell_angle_alpha    89.99996564098761
_cell_angle_beta     89.9999615154022
_cell_angle_gamma    92.82864934644022

_space_group_name_H-M_alt    "P 1"
_space_group_IT_number       1

loop_
  _space_group_symop_operation_xyz
  'x, y, z'

loop_
  _atom_site_type_symbol
  _atom_site_label
  _atom_site_symmetry_multiplicity
  _atom_site_fract_x
  _atom_site_fract_y
  _atom_site_fract_z
  _atom_site_occupancy
  Tl  Tl1       1.0  0.9817216073440491  0.2608961013599965  0.7376719912409657  1.0000
  Tl  Tl2       1.0  0.5182776106060912  0.2391038349995256  0.2376721874933949  1.0000
  Tl  Tl3       1.0  0.018279454969039887  0.7391047417880258  0.2623281661174773  1.0000
  Tl  Tl4       1.0  0.48172209130914473  0.7608961487502837  0.7623279698656021  1.0000
  H   H1        1.0  0.32686154196341743  0.4051294197564629  0.843566144748756  1.0000
  H   H2        1.0  0.1731385883493886  0.09487035252094242  0.34356720934317053  1.0000
  H   H3        1.0  0.6731381599522736  0.5948705639936165  0.1564331620214432  1.0000
  H   H4        1.0  0.8268636423611896  0.9051287719379674  0.656432948015528  1.0000
  H   H5        1.0  0.3145235846458193  0.15440724536053813  0.5907993006537852  1.0000
  H   H6        1.0  0.1854754566331849  0.3455918290931237  0.09079935999379535  1.0000
  H   H7        1.0  0.6854759892691649  0.8455910196643899  0.4092008567057591  1.0000
  H   H8        1.0  0.8145228848846459  0.6544072952587356  0.9091999467769584  1.0000
  H   H9        1.0  0.6558920914792028  0.4041760144434008  0.8475408741407054  1.0000
  H   H10       1.0  0.8441083049160344  0.0958238517210219  0.34754186298295764  1.0000
  H   H11       1.0  0.34410890683422224  0.5958239693424474  0.15245843262921002  1.0000
  H   H12       1.0  0.15589262939680282  0.9041752727021193  0.6524582943760253  1.0000
  H   H13       1.0  0.6439507236456594  0.1619297278682339  0.5868644022004262  1.0000
  H   H14       1.0  0.8560486562070083  0.3380703048906213  0.08686524159640639  1.0000
  H   H15       1.0  0.3560489142699055  0.8380693965194013  0.41313490457004326  1.0000
  H   H16       1.0  0.1439509817081017  0.6619288194967438  0.9131349157628608  1.0000
  H   H17       1.0  0.8032206236814973  0.5098857996743931  0.6610806880406841  1.0000
  H   H18       1.0  0.6967773484493308  0.9901143925414571  0.16108065638483282  1.0000
  H   H19       1.0  0.19677778183645964  0.49011418403991064  0.33891861872979945  1.0000
  H   H20       1.0  0.30322112106874505  0.009886450535290699  0.8389186503853807  1.0000
  H   H21       1.0  0.813071747645992  0.6619181952662813  0.5094963602906191  1.0000
  H   H22       1.0  0.6869263872215542  0.8380820938455854  0.009496423462849204  1.0000
  H   H23       1.0  0.18692795426924394  0.3380817884835281  0.490503797068378  1.0000
  H   H24       1.0  0.3130720182959479  0.1619178898684481  0.9905037338964321  1.0000
  C   C1        1.0  0.39829654396873343  0.34945686811879983  0.78784577461132  1.0000
  C   C2        1.0  0.1017037101645073  0.15054379913901533  0.28784598689185975  1.0000
  C   C3        1.0  0.6017044543446843  0.6505431156670554  0.21215353215859525  1.0000
  C   C4        1.0  0.8982972881489175  0.8494561846468398  0.7121533198780555  1.0000
  C   C5        1.0  0.39155867368680214  0.2116350401870619  0.6465400518143128  1.0000
  C   C6        1.0  0.10844037175056091  0.288364857998303  0.14654017909499123  1.0000
  C   C7        1.0  0.6084396678301188  0.7883640841642575  0.3534609561340362  1.0000
  C   C8        1.0  0.8915593301646682  0.7116351257515062  0.853459978264006  1.0000
  C   C9        1.0  0.5789425723667209  0.3502034811616284  0.788851981217576  1.0000
  C   C10       1.0  0.9210552942403185  0.14979642244676938  0.2888520535059627  1.0000
  C   C11       1.0  0.4210571295485083  0.649796502588174  0.21114817614142115  1.0000
  C   C12       1.0  0.07894434367478453  0.850202701940596  0.7111481038533044  1.0000
  C   C13       1.0  0.5724524995897157  0.2148385729927895  0.6451943796075171  1.0000
  C   C14       1.0  0.9275480500391  0.285160563153589  0.14519521905541677  1.0000
  C   C15       1.0  0.4275484347231284  0.7851605514303512  0.3548057777514657  1.0000
  C   C16       1.0  0.0724528842737371  0.7148385612695518  0.8548049383035663  1.0000
  C   C17       1.0  0.8919815156603549  0.5054024093173551  0.5893335047209193  1.0000
  C   C18       1.0  0.6080178298939957  0.9945978287966426  0.08933350942903931  1.0000
  C   C19       1.0  0.10801812225475522  0.49459671507000985  0.410666652638355  1.0000
  C   C20       1.0  0.39198070362375864  0.005403873642279698  0.9106666479297022  1.0000
  C   C21       1.0  0.8973820214157584  0.5898064127761201  0.5051651650536898  1.0000
  C   C22       1.0  0.6026161181020981  0.9101938791046181  0.0051643717889718  1.0000
  C   C23       1.0  0.10261632010161752  0.410192711575469  0.4948349923058616  1.0000
  C   C24       1.0  0.3973823514159848  0.0898069639721299  0.9948349349812419  1.0000
  N   N1        1.0  0.3065327966099218  0.27826406023266503  0.7184037464823589  1.0000
  N   N2        1.0  0.1934661716765547  0.22173579201583493  0.21840387603295855  1.0000
  N   N3        1.0  0.6934681377033771  0.7217350641907456  0.28159556028782623  1.0000
  N   N4        1.0  0.8065335302391363  0.7782641917342445  0.7815954307372408  1.0000
  N   N5        1.0  0.6637255553154232  0.2822974440901191  0.7181093630191743  1.0000
  N   N6        1.0  0.836273619635641  0.21770164541131717  0.21811113334828042  1.0000
  N   N7        1.0  0.33627414659980565  0.7177025396596904  0.28189079433982306  1.0000
  N   N8        1.0  0.16372595427888836  0.7822966196133336  0.7818898746000544  1.0000
  N   N9        1.0  0.9946238487031921  0.4162800886272818  0.5834593424357379  1.0000
  N   N10       1.0  0.5053741744079405  0.0837190869103921  0.0834587862647567  1.0000
  N   N11       1.0  0.0053757892123727  0.5837190357603532  0.41653996433473156  1.0000
  N   N12       1.0  0.4946255275077505  0.9162808968396873  0.9165405205054427  1.0000
  Cl  Cl1       1.0  0.9785271782891273  0.1242456873785684  0.5726986340031602  1.0000
  Cl  Cl2       1.0  0.5214721527722331  0.3757534950734253  0.07269789692215771  1.0000
  Cl  Cl3       1.0  0.021472523626101695  0.8757542963712409  0.4273015233558368  1.0000
  Cl  Cl4       1.0  0.4785276131431219  0.6242473480388282  0.9273022604365694  1.0000
  Cl  Cl5       1.0  0.9954102132941787  0.42797247925300735  0.8726807949289894  1.0000
  Cl  Cl6       1.0  0.5045901561119025  0.07202737084164569  0.3726810966517036  1.0000
  Cl  Cl7       1.0  0.0045908490189106085  0.572028363895015  0.1273193624294535  1.0000
  Cl  Cl8       1.0  0.49541084220106063  0.9279726129439398  0.6273190607070092  1.0000
  Cl  Cl9       1.0  0.9596723031139195  0.10769206025678807  0.8901613485032415  1.0000
  Cl  Cl10      1.0  0.5403267511283546  0.3923077786284637  0.3901605932771731  1.0000
  Cl  Cl11      1.0  0.04032616640370892  0.8923087828196827  0.10983880885577693  1.0000
  Cl  Cl12      1.0  0.4596729507868745  0.6076922051213386  0.6098395640818312  1.0000
