data_image0
_chemical_formula_structural       H20PbC18N2O4
_chemical_formula_sum              "H20 Pb1 C18 N2 O4"
_cell_length_a       5.269479204376968
_cell_length_b       5.274453784906317
_cell_length_c       16.558633917528788
_cell_angle_alpha    102.41845249688996
_cell_angle_beta     101.46148318081597
_cell_angle_gamma    73.55364841665124

_space_group_name_H-M_alt    "P 1"
_space_group_IT_number       1

loop_
  _space_group_symop_operation_xyz
  'x, y, z'

loop_
  _atom_site_type_symbol
  _atom_site_label
  _atom_site_symmetry_multiplicity
  _atom_site_fract_x
  _atom_site_fract_y
  _atom_site_fract_z
  _atom_site_occupancy
  H   H1        1.0  0.1312628335228965  0.5917143653949282  0.1188510282688355  1.0000
  H   H2        1.0  0.4709286123155324  0.010300024778224866  0.8809474313041862  1.0000
  H   H3        1.0  0.13615630320011013  0.9022022654116244  0.16309257777480474  1.0000
  H   H4        1.0  0.7367820215497289  0.9699286766350357  0.836667569508542  1.0000
  H   H5        1.0  0.6623993599066439  0.6865559163153917  0.1003177699455122  1.0000
  H   H6        1.0  0.5842739378826282  0.5608468587083381  0.8997344817768751  1.0000
  H   H7        1.0  0.5632413838384238  0.8381150556776262  0.24476127509263532  1.0000
  H   H8        1.0  0.5905858766430114  0.3146138642594423  0.755358432018852  1.0000
  H   H9        1.0  0.856562080272511  0.5750909985678587  0.23335685275490195  1.0000
  H   H10       1.0  0.33849663619011483  0.618802491915865  0.7665352735015533  1.0000
  H   H11       1.0  0.2800962397182545  0.6232561129273294  0.30658476570295795  1.0000
  H   H12       1.0  0.31262104313849187  0.968263361174081  0.6940809944732892  1.0000
  H   H13       1.0  0.5524326073449258  0.8906196051829767  0.41269597186038004  1.0000
  H   H14       1.0  0.4710229122623346  0.1344205165002209  0.5878430224982412  1.0000
  H   H15       1.0  0.3557400561423094  0.37195311031432265  0.46405991864361346  1.0000
  H   H16       1.0  0.9004606636604182  0.8867654403378465  0.536212752442708  1.0000
  H   H17       1.0  0.8833786776175572  0.5809246607129739  0.411339520568781  1.0000
  H   H18       1.0  0.16310876795191834  0.467191894724195  0.58804634382863  1.0000
  H   H19       1.0  0.6123906592626369  0.3133706430459712  0.3053344242863859  1.0000
  H   H20       1.0  0.004202528780183501  0.30209845947724295  0.6941366129614367  1.0000
  Pb  Pb1       1.0  0.02120815323165461  0.02084804644281497  0.9999153105125275  1.0000
  C   C1        1.0  0.5767797928218813  0.11165762339943094  0.12502013792823163  1.0000
  C   C2        1.0  0.9848463489290396  0.4499597667314107  0.874950095986506  1.0000
  C   C3        1.0  0.7592174405123231  0.8364565366965379  0.1425340361309111  1.0000
  C   C4        1.0  0.6916869384181937  0.6143328647385645  0.8574316256609009  1.0000
  C   C5        1.0  0.769739519370077  0.7897988264158896  0.23205799825817047  1.0000
  C   C6        1.0  0.5547569580089659  0.5337036796366804  0.7679474881405002  1.0000
  C   C7        1.0  0.9291004734785774  0.9511051822678168  0.2981098334784988  1.0000
  C   C8        1.0  0.6491561331966624  0.6261748151052515  0.7019166141853435  1.0000
  C   C9        1.0  0.19430926071313342  0.8342851205713232  0.32947150554107923  1.0000
  C   C10       1.0  0.5002774205372802  0.8598305488453944  0.6708735317350758  1.0000
  C   C11       1.0  0.34621830548332616  0.9835397850639965  0.38938847002015115  1.0000
  C   C12       1.0  0.5881557330846051  0.9518375257776271  0.6110143150954103  1.0000
  C   C13       1.0  0.2355474577509541  0.2530620549545617  0.41870574148779144  1.0000
  C   C14       1.0  0.8277928709509227  0.81175733311413  0.5814262574520798  1.0000
  C   C15       1.0  0.9707137165006119  0.3707817366958394  0.3885397306989234  1.0000
  C   C16       1.0  0.9764454913400729  0.5771633484346307  0.6112351202356194  1.0000
  C   C17       1.0  0.8188873050834006  0.2215499868100325  0.3289054467597624  1.0000
  C   C18       1.0  0.8881989061198539  0.484950831422026  0.6708500817727341  1.0000
  N   N1        1.0  0.026202318154723483  0.7892932230250763  0.1191909404646694  1.0000
  N   N2        1.0  0.6683137807291644  0.9047682838345141  0.8806428973008595  1.0000
  O   O1        1.0  0.6431876484028435  0.23022373143213287  0.0753662478298835  1.0000
  O   O2        1.0  0.15388527673769667  0.5666894255434728  0.9245170978919717  1.0000
  O   O3        1.0  0.3605057855224133  0.19846032272435113  0.15545512837340422  1.0000
  O   O4        1.0  0.040975706593968694  0.20303901079874723  0.8445682003648332  1.0000
