data_image0
_chemical_formula_structural       Zn2H52C50N2O14
_chemical_formula_sum              "Zn2 H52 C50 N2 O14"
_cell_length_a       10.837682893615147
_cell_length_b       16.460344611544002
_cell_length_c       17.521548902780555
_cell_angle_alpha    90.21458231400743
_cell_angle_beta     89.94338439328972
_cell_angle_gamma    89.65469213600213

_space_group_name_H-M_alt    "P 1"
_space_group_IT_number       1

loop_
  _space_group_symop_operation_xyz
  'x, y, z'

loop_
  _atom_site_type_symbol
  _atom_site_label
  _atom_site_symmetry_multiplicity
  _atom_site_fract_x
  _atom_site_fract_y
  _atom_site_fract_z
  _atom_site_occupancy
  Zn  Zn1       1.0  0.5099768503910765  0.4178044291177444  0.4980907510312564  1.0000
  Zn  Zn2       1.0  0.5116174333213833  0.5851322057952546  0.4961809370569911  1.0000
  H   H1        1.0  0.12795279171371726  0.3735759867212423  0.4994012652960438  1.0000
  H   H2        1.0  0.1135063109317827  0.6302793616386921  0.46073860107439674  1.0000
  H   H3        1.0  0.1298830130907476  0.4181991252562727  0.4083604576615942  1.0000
  H   H4        1.0  0.1358859838362676  0.5601685677265353  0.3858821775889042  1.0000
  H   H5        1.0  0.8802491663253917  0.48725626683994255  0.6045031901782423  1.0000
  H   H6        1.0  0.8936018140522606  0.5888437740647491  0.573755898715561  1.0000
  H   H7        1.0  0.4600952169719718  0.3648878223303599  0.729910498900715  1.0000
  H   H8        1.0  0.4697804284184599  0.6248774750537436  0.7399197144252769  1.0000
  H   H9        1.0  0.3362860230410689  0.383247038761901  0.27384281312622966  1.0000
  H   H10       1.0  0.517982784804893  0.6112414285640708  0.249512123582207  1.0000
  H   H11       1.0  0.37356747268851365  0.28951009729537713  0.41704425249101024  1.0000
  H   H12       1.0  0.3304915664146931  0.7148964142408829  0.4677597566652454  1.0000
  H   H13       1.0  0.6493503583703698  0.28962587355513847  0.5794584731165602  1.0000
  H   H14       1.0  0.7038983603534845  0.7113937844638941  0.5145921566294974  1.0000
  H   H15       1.0  0.6599615796621309  0.13626944220330725  0.5800603340167927  1.0000
  H   H16       1.0  0.7122925154517857  0.8651571113949076  0.518208033940546  1.0000
  H   H17       1.0  0.39270558443885056  0.08524870764606618  0.355747453954706  1.0000
  H   H18       1.0  0.2798168982835989  0.08586665080915172  0.42853513702844753  1.0000
  H   H19       1.0  0.2877523641899132  0.16872051001316635  0.363588535568539  1.0000
  H   H20       1.0  0.2610409682384116  0.9198811074044002  0.5068115225217369  1.0000
  H   H21       1.0  0.29761845055084984  0.9185552435804568  0.4085303456758852  1.0000
  H   H22       1.0  0.2134339384911286  0.8365104789319564  0.448906111581934  1.0000
  H   H23       1.0  0.9155388968184963  0.33293618741056025  0.29067137810645255  1.0000
  H   H24       1.0  0.04271887345270639  0.3112258930803479  0.3523534356877037  1.0000
  H   H25       1.0  0.028563997108705098  0.409435940499705  0.3078409572894928  1.0000
  H   H26       1.0  0.8181449447279688  0.5511993143172873  0.2561128430204889  1.0000
  H   H27       1.0  0.7531961376540861  0.5951690496811397  0.3411558222596228  1.0000
  H   H28       1.0  0.7664468367199859  0.48702659225959644  0.33213096273840403  1.0000
  H   H29       1.0  0.9003979302108575  0.25052567818752897  0.5641151039817275  1.0000
  H   H30       1.0  0.0233061406423545  0.2663260762722289  0.49795105187715205  1.0000
  H   H31       1.0  0.8674194937558396  0.2587717874271149  0.4639410404838743  1.0000
  H   H32       1.0  0.9354647730850874  0.694555947690887  0.3359282903735875  1.0000
  H   H33       1.0  0.03012412929724209  0.7279612819910782  0.4133647566068036  1.0000
  H   H34       1.0  0.8727209619209474  0.7609607149858846  0.40771199885894305  1.0000
  H   H35       1.0  0.20123271650359703  0.4512453158861334  0.6462764986832426  1.0000
  H   H36       1.0  0.05656886397699171  0.4703779486558731  0.6908736243695375  1.0000
  H   H37       1.0  0.06764144615839739  0.3961452986335773  0.617799747011027  1.0000
  H   H38       1.0  0.093576471004198  0.6555334078706069  0.5753027910537796  1.0000
  H   H39       1.0  0.06563931667454878  0.6142711919734509  0.6668660924496523  1.0000
  H   H40       1.0  0.2136578959086464  0.6027606146006904  0.6242882995720437  1.0000
  H   H41       1.0  0.4010566422400146  0.28606526903150353  0.8379584528041094  1.0000
  H   H42       1.0  0.4484822235777627  0.32800366472233833  0.927354089481128  1.0000
  H   H43       1.0  0.2925959077865699  0.3347543480300033  0.9000414376589918  1.0000
  H   H44       1.0  0.42947553505243957  0.6968569387813732  0.8556417801469751  1.0000
  H   H45       1.0  0.31112150881970274  0.6511747983592854  0.9116067850326888  1.0000
  H   H46       1.0  0.4652491000197613  0.6434011638513653  0.9418216896711158  1.0000
  H   H47       1.0  0.1570692242112699  0.33815324727599727  0.21339189294619135  1.0000
  H   H48       1.0  0.2895520039392565  0.2739210730166661  0.19782704928704223  1.0000
  H   H49       1.0  0.16379073397624916  0.27283344959984396  0.13116703116435255  1.0000
  H   H50       1.0  0.5508192261245668  0.7325808454136506  0.08034037754843842  1.0000
  H   H51       1.0  0.6225429888274049  0.6751261343213956  0.1552497263487425  1.0000
  H   H52       1.0  0.47356159656590074  0.7209082725961266  0.1704211747255044  1.0000
  C   C1        1.0  0.4674531404333493  0.4953793003671975  0.3498852355398513  1.0000
  C   C2        1.0  0.2709881672466564  0.5065131219486432  0.5034535271243501  1.0000
  C   C3        1.0  0.5051744226585839  0.4982536947751655  0.6452648801852092  1.0000
  C   C4        1.0  0.7466886131287892  0.5019078891064694  0.48310223068185826  1.0000
  C   C5        1.0  0.08922845618961618  0.4233120624639782  0.4655239612110764  1.0000
  C   C6        1.0  0.0877703815324011  0.569819980011019  0.4403718930557759  1.0000
  C   C7        1.0  0.9473081791016182  0.41721979176425367  0.46325933324462204  1.0000
  C   C8        1.0  0.9475003843180403  0.5668728534748838  0.4260736492872114  1.0000
  C   C9        1.0  0.070077501025402  0.5226559425524541  0.5782125451463858  1.0000
  C   C10       1.0  0.13033870200282388  0.5056221923183273  0.4979930156456405  1.0000
  C   C11       1.0  0.8891219467884851  0.5024609345636222  0.48189610407882827  1.0000
  C   C12       1.0  0.9283445741065391  0.5269547602389224  0.5642080369474414  1.0000
  C   C13       1.0  0.41231727812246527  0.4167229247910954  0.839530202054725  1.0000
  C   C14       1.0  0.42097144421158816  0.5666085403879536  0.8457471011937303  1.0000
  C   C15       1.0  0.44865663903051  0.420467288429748  0.7633396343239129  1.0000
  C   C16       1.0  0.45454130041407836  0.5674270549665581  0.7691154519786212  1.0000
  C   C17       1.0  0.4703778370407149  0.4950978230854588  0.727785998635085  1.0000
  C   C18       1.0  0.40083689062711153  0.49038811147699607  0.8814922879589349  1.0000
  C   C19       1.0  0.37668564687295  0.4888900872852917  0.9606746617417699  1.0000
  C   C20       1.0  0.36890914305516287  0.4904822136448174  0.030287105087950305  1.0000
  C   C21       1.0  0.33705496639346677  0.43179889749465167  0.15846542190177365  1.0000
  C   C22       1.0  0.44215846593328917  0.5613419683387236  0.14428200816990266  1.0000
  C   C23       1.0  0.364136040440357  0.4322186457277938  0.2362815993335303  1.0000
  C   C24       1.0  0.46790620378504855  0.5621066507058218  0.22218026582725517  1.0000
  C   C25       1.0  0.4315406862905391  0.4966239435221666  0.2673348211064948  1.0000
  C   C26       1.0  0.3796435005754829  0.4947650902425168  0.11018808320555713  1.0000
  C   C27       1.0  0.4309169970204679  0.1676213779971931  0.4484705474185518  1.0000
  C   C28       1.0  0.40683323696161716  0.8362934357377227  0.47621386350189004  1.0000
  C   C29       1.0  0.4340731762616273  0.25214062167039236  0.4524415384019705  1.0000
  C   C30       1.0  0.4124560986432898  0.7517068910645223  0.47781055236488634  1.0000
  C   C31       1.0  0.5899713242570569  0.2525234509599628  0.5433870376339842  1.0000
  C   C32       1.0  0.6224859192715612  0.7495081003668675  0.5053251603042952  1.0000
  C   C33       1.0  0.5950920984731453  0.16831326774546088  0.54333547898586  1.0000
  C   C34       1.0  0.6262383003420453  0.833737322930837  0.5063344534959668  1.0000
  C   C35       1.0  0.514860056383057  0.12446596789700241  0.49553398045119235  1.0000
  C   C36       1.0  0.5176694676080585  0.8785109219843008  0.49182365226317165  1.0000
  C   C37       1.0  0.5175909688078306  0.03855493903864731  0.4943870547156451  1.0000
  C   C38       1.0  0.5186668229776217  0.9644377571549259  0.4929094090729722  1.0000
  C   C39       1.0  0.3430192284767699  0.12492032505296177  0.3962068365601966  1.0000
  C   C40       1.0  0.2882148679490442  0.8798160683048979  0.4592118106251418  1.0000
  C   C41       1.0  0.9771840775030753  0.35895566069463314  0.3339421588137058  1.0000
  C   C42       1.0  0.8101107953510223  0.5452077738440337  0.3182891461470519  1.0000
  C   C43       1.0  0.9256965240647972  0.2812242312929527  0.5108945725982539  1.0000
  C   C44       1.0  0.9356918025334409  0.7096486764559204  0.397201332038641  1.0000
  C   C45       1.0  0.10149122009480041  0.45567977697755424  0.6362058675037121  1.0000
  C   C46       1.0  0.11409170521497458  0.6036429687660458  0.6125450678226445  1.0000
  C   C47       1.0  0.3875500409232728  0.3369362062868007  0.8778325665313889  1.0000
  C   C48       1.0  0.4064254146572779  0.6439613917522566  0.8907016594778698  1.0000
  C   C49       1.0  0.218022448142051  0.31110367306527564  0.16967776894235703  1.0000
  C   C50       1.0  0.5341601221352903  0.6912041214368542  0.12801604421474624  1.0000
  N   N1        1.0  0.5107869602691933  0.2932741678995755  0.4984144308561227  1.0000
  N   N2        1.0  0.5165495716122875  0.709689149502104  0.4919069727309805  1.0000
  O   O1        1.0  0.4514073731087578  0.42876761931322  0.3855245976591206  1.0000
  O   O2        1.0  0.5117425276473354  0.5602914460202656  0.3781993241424787  1.0000
  O   O3        1.0  0.3251294025460041  0.4410143515815861  0.522433377683676  1.0000
  O   O4        1.0  0.3241100555901468  0.5733882776897303  0.48815408935063  1.0000
  O   O5        1.0  0.5411832691843798  0.4323444312124068  0.6132105017937236  1.0000
  O   O6        1.0  0.4934829696767622  0.5667833327323991  0.6123157697201835  1.0000
  O   O7        1.0  0.6893487022999452  0.4367484772238441  0.4687018473367247  1.0000
  O   O8        1.0  0.6956288021413428  0.568563163916089  0.5028864101874647  1.0000
  O   O9        1.0  0.8980593860395628  0.3861259381529791  0.3934553062565486  1.0000
  O   O10       1.0  0.9342158416810163  0.5480591659291465  0.34716110085678764  1.0000
  O   O11       1.0  0.9064346477516235  0.3653207144647014  0.5241677055181172  1.0000
  O   O12       1.0  0.8910595420966771  0.644400049571196  0.4424509724918553  1.0000
  O   O13       1.0  0.27122487345085483  0.37221985176256583  0.1227225061759967  1.0000
  O   O14       1.0  0.4761709940642405  0.6216586036324969  0.09541538575007992  1.0000
