data_image0
_chemical_formula_structural       Mn4H36C44N8O20
_chemical_formula_sum              "Mn4 H36 C44 N8 O20"
_cell_length_a       12.518689056864073
_cell_length_b       12.631039957261951
_cell_length_c       12.631040676195893
_cell_angle_alpha    75.78438799733773
_cell_angle_beta     60.29379454227477
_cell_angle_gamma    60.293753889820294

_space_group_name_H-M_alt    "P 1"
_space_group_IT_number       1

loop_
  _space_group_symop_operation_xyz
  'x, y, z'

loop_
  _atom_site_type_symbol
  _atom_site_label
  _atom_site_symmetry_multiplicity
  _atom_site_fract_x
  _atom_site_fract_y
  _atom_site_fract_z
  _atom_site_occupancy
  Mn  Mn1       1.0  0.18125887454709058  1.138180181e-07  0.6374808421495501  1.0000
  Mn  Mn2       1.0  0.06874091565391918  0.8625192969251853  0.49999994350825006  1.0000
  Mn  Mn3       1.0  0.8187404925325908  1.009293129e-07  0.3625198325878928  1.0000
  Mn  Mn4       1.0  0.43125874957682725  0.13748027362598242  0.5000007245565783  1.0000
  H   H1        1.0  0.9653809280519  0.12736364162449826  0.367675908046749  1.0000
  H   H2        1.0  0.5830569692379302  0.13232399829336564  0.6273624785568258  1.0000
  H   H3        1.0  0.4604215096332357  0.8726359757606943  0.6323232697820133  1.0000
  H   H4        1.0  0.3427456704632735  0.8676765052885994  0.3726352216256713  1.0000
  H   H5        1.0  0.7895790382771186  0.8676756582181465  0.6273639073444881  1.0000
  H   H6        1.0  0.6669420457994948  0.8726359427637719  0.3676762155336559  1.0000
  H   H7        1.0  0.28461935732217836  0.13232302988972577  0.3726378216384702  1.0000
  H   H8        1.0  0.9072552811890947  0.1273645936192409  0.632322810239799  1.0000
  H   H9        1.0  0.5517389781240853  0.6863436392253844  0.5609711584359189  1.0000
  H   H10       1.0  0.36271127926637114  0.9390279819587091  0.18634298168939262  1.0000
  H   H11       1.0  0.7990548699918636  0.3136559743651545  0.43902719986159877  1.0000
  H   H12       1.0  0.4880821248223557  0.0609725178289864  0.8136563853675582  1.0000
  H   H13       1.0  0.4509446882866542  0.060972412971075605  0.18634448170486448  1.0000
  H   H14       1.0  0.8872884158395782  0.3136569103379898  0.5609721060770098  1.0000
  H   H15       1.0  0.698260771571896  0.9390281019127826  0.8136559211062746  1.0000
  H   H16       1.0  0.7619170449712985  0.6863445413305269  0.43902773922911814  1.0000
  H   H17       1.0  0.3780369705072036  0.4999993360072494  0.5000003389669133  1.0000
  H   H18       1.0  0.12803710809152624  1.7063654669999995e-07  0.9999995891815272  1.0000
  H   H19       1.0  0.8719630504287043  4.411069199999999e-08  2.93604607257417e-07  1.0000
  H   H20       1.0  0.12196269472355  0.5000002345439114  0.5000003290979221  1.0000
  H   H21       1.0  0.97768674783746  0.33322201827572673  0.26603271690393615  1.0000
  H   H22       1.0  0.4937192039131732  0.23396711029060666  0.8332226779896742  1.0000
  H   H23       1.0  0.5769426160590574  0.6667776056265564  0.7339666563996375  1.0000
  H   H24       1.0  0.5609084434246656  0.7660324883178757  0.16677759352010907  1.0000
  H   H25       1.0  0.6730580892325342  0.7660335148854711  0.8332227987234191  1.0000
  H   H26       1.0  0.7562804568585337  0.6667775378830354  0.26603263079510236  1.0000
  H   H27       1.0  0.27231418426793413  0.23396607819617532  0.16677839408640688  1.0000
  H   H28       1.0  0.6890905450628116  0.33322208049230534  0.733967893956482  1.0000
  H   H29       1.0  0.0976719591965108  0.2046014791073247  0.16677786907470699  1.0000
  H   H30       1.0  0.5144491562124929  0.3332211553459601  0.7046016523211307  1.0000
  H   H31       1.0  0.4690519717226355  0.7953980948190701  0.8332215743898955  1.0000
  H   H32       1.0  0.5522727116869819  0.6667784438742215  0.2953979150365313  1.0000
  H   H33       1.0  0.7809491140431677  0.6667776111263278  0.7046021641109448  1.0000
  H   H34       1.0  0.7355502127491962  0.7953979988975843  0.1667781185332513  1.0000
  H   H35       1.0  0.15232879349841272  0.3332219813433284  0.29539803839660544  1.0000
  H   H36       1.0  0.6977268916321652  0.2046016188658726  0.8332218671676085  1.0000
  C   C1        1.0  0.32317157640228844  0.7233665639813294  0.5589865779595228  1.0000
  C   C2        1.0  0.13215718442199922  0.9410141150048257  0.22336478387517644  1.0000
  C   C3        1.0  0.605523248743602  0.27663302825662567  0.4410145205025059  1.0000
  C   C4        1.0  0.29653848878327005  0.0589863634295327  0.7766323505349106  1.0000
  C   C5        1.0  0.6444735451243206  0.058987201698073484  0.22336805902221352  1.0000
  C   C6        1.0  0.1178439066547841  0.2766339344430334  0.5589858942133432  1.0000
  C   C7        1.0  0.9268287214518909  0.9410142460298869  0.776634125185694  1.0000
  C   C8        1.0  0.9534618604249376  0.7233674879906714  0.4410128877444989  1.0000
  C   C9        1.0  0.45217163975610236  0.6053421694012042  0.5330837209711986  1.0000
  C   C10       1.0  0.23525673629841065  0.9669159372391077  0.10534151707096846  1.0000
  C   C11       1.0  0.5905980440191175  0.3946574286073739  0.466916358244525  1.0000
  C   C12       1.0  0.3075140736586878  0.0330836354754851  0.8946575357485996  1.0000
  C   C13       1.0  0.6594020379079738  0.03308352370305559  0.10534200014654976  1.0000
  C   C14       1.0  0.014743869801847812  0.39465832182913363  0.5330839775232548  1.0000
  C   C15       1.0  0.7978272632696393  0.9669170067629548  0.8946579249492356  1.0000
  C   C16       1.0  0.9424854430954432  0.6053421833431682  0.4669169563305218  1.0000
  C   C17       1.0  0.5639261237841712  0.6039831423792561  0.5344828562355131  1.0000
  C   C18       1.0  0.3484102788829166  0.9655168042363723  0.10398263748948708  1.0000
  C   C19       1.0  0.702393057467795  0.39601646693809284  0.46551666937860864  1.0000
  C   C20       1.0  0.4179100285509209  0.034482779786998194  0.8960158617284861  1.0000
  C   C21       1.0  0.5476064843040334  0.034483567819322006  0.10398367858162766  1.0000
  C   C22       1.0  0.9015899410729421  0.39601739982743556  0.5344833476145823  1.0000
  C   C23       1.0  0.6860733193968402  0.9655169513379178  0.8960168001157525  1.0000
  C   C24       1.0  0.832089863580265  0.6039840561144629  0.4655165735777869  1.0000
  C   C25       1.0  0.6907698126460463  0.5000002633184407  0.4999994658099993  1.0000
  C   C26       1.0  0.44077008295561654  1.8645706489999996e-07  0.9999999592260236  1.0000
  C   C27       1.0  0.559230112126933  1.9244971839999994e-07  1.2940784438660204e-07  1.0000
  C   C28       1.0  0.809229841817363  0.5000002693110942  0.49999963599181996  1.0000
  C   C29       1.0  0.46506370416354803  0.4999993404097151  0.5000002221790891  1.0000
  C   C30       1.0  0.21506431016677421  1.7503911209999996e-07  0.9999999236452479  1.0000
  C   C31       1.0  0.7849350569129072  3.970821889999996e-08  7.510921874243274e-07  1.0000
  C   C32       1.0  0.03493470120775311  0.5000002301414384  0.5000007865855025  1.0000
  C   C33       1.0  0.12499974057953275  0.10314164520444538  0.3968596434603526  1.0000
  C   C34       1.0  0.7718647132762799  0.10313441986293269  0.6031352511593153  1.0000
  C   C35       1.0  0.624999496149592  0.8968670529012427  0.603133622826121  1.0000
  C   C36       1.0  0.4781321296504333  0.896867923101837  0.39686718212982436  1.0000
  C   C37       1.0  0.06530913892103749  0.24282121577850546  0.2528883402329782  1.0000
  C   C38       1.0  0.5681960051773275  0.2471107977364042  0.7428226385439343  1.0000
  C   C39       1.0  0.5610191273099263  0.7571774496723263  0.7471115109730206  1.0000
  C   C40       1.0  0.5581301980339579  0.7528878930082071  0.25717733655513086  1.0000
  C   C41       1.0  0.688981442289034  0.75288797935103  0.7428230142227858  1.0000
  C   C42       1.0  0.6818038146865892  0.7571773746510714  0.2528880613845813  1.0000
  C   C43       1.0  0.18469192697232026  0.24711069861275087  0.2571788156946369  1.0000
  C   C44       1.0  0.6918694101298543  0.24282224009709097  0.7471115165734331  1.0000
  N   N1        1.0  0.02905829877692415  0.16204035124362548  0.3547090567629069  1.0000
  N   N2        1.0  0.6337667987088482  0.1452908758386258  0.6620412609025053  1.0000
  N   N3        1.0  0.5458069002126966  0.8379583116040832  0.6452925192567561  1.0000
  N   N4        1.0  0.44109824316385043  0.8547078123024999  0.33795761190478396  1.0000
  N   N5        1.0  0.70419395200689  0.8547078788134992  0.6620422681088696  1.0000
  N   N6        1.0  0.6162349048090765  0.8379582674645503  0.35470730792106037  1.0000
  N   N7        1.0  0.22094137003361428  0.14529080175367423  0.3379598721490281  1.0000
  N   N8        1.0  0.8089010642270509  0.16204134988691268  0.6452917884261424  1.0000
  O   O1        1.0  0.3016003103366676  0.8042477163273812  0.6200516442441495  1.0000
  O   O2        1.0  0.1716539163947531  0.8799469756604239  0.30424866297120445  1.0000
  O   O3        1.0  0.7259007934592105  0.19575188090856696  0.3799470412994522  1.0000
  O   O4        1.0  0.3558473318460431  0.12005168479114299  0.6957522745317988  1.0000
  O   O5        1.0  0.5240999671650288  0.1200525405243198  0.30424753570228796  1.0000
  O   O6        1.0  0.07834649069915404  0.19575188756593323  0.6200530077266819  1.0000
  O   O7        1.0  0.9483993641477901  0.8799489022048161  0.695750955961607  1.0000
  O   O8        1.0  0.894152180946023  0.8042477068879634  0.3799480765949284  1.0000
  O   O9        1.0  0.24952435805204262  0.7350336356105628  0.5106523812645989  1.0000
  O   O10       1.0  0.010179542081545218  0.9893459147670212  0.23503360052831104  1.0000
  O   O11       1.0  0.4952123924662929  0.26496594732127926  0.48934816373141365  1.0000
  O   O12       1.0  0.23456003755300267  0.0106518198890342  0.7649651261173743  1.0000
  O   O13       1.0  0.7547874803931195  0.010652670703869698  0.23503433901898063  1.0000
  O   O14       1.0  0.2398195090987586  0.2649668493900633  0.5106545900349672  1.0000
  O   O15       1.0  0.00047430906182967074  0.9893478242513677  0.764966686560953  1.0000
  O   O16       1.0  0.015440576469522868  0.7350345317623238  0.4893477850041563  1.0000
  O   O17       1.0  0.124999480189132  0.020942499469867894  0.47905819121290694  1.0000
  O   O18       1.0  0.8540566268454841  0.020943454718029397  0.5209437927908597  1.0000
  O   O19       1.0  0.6249997859169699  0.9790543492562233  0.5209464940284504  1.0000
  O   O20       1.0  0.39594630662119124  0.9790543307917047  0.47905298628020193  1.0000
