data_image0
_chemical_formula_structural       Co6H54C48O18
_chemical_formula_sum              "Co6 H54 C48 O18"
_cell_length_a       6.8759690724242395
_cell_length_b       15.201456386818943
_cell_length_c       15.1977491964142
_cell_angle_alpha    117.74499843820573
_cell_angle_beta     98.70134723676124
_cell_angle_gamma    98.64421501687116

_space_group_name_H-M_alt    "P 1"
_space_group_IT_number       1

loop_
  _space_group_symop_operation_xyz
  'x, y, z'

loop_
  _atom_site_type_symbol
  _atom_site_label
  _atom_site_symmetry_multiplicity
  _atom_site_fract_x
  _atom_site_fract_y
  _atom_site_fract_z
  _atom_site_occupancy
  Co  Co1       1.0  0.4820328561552073  0.2710945830828919  0.5952166057578695  1.0000
  Co  Co2       1.0  0.8868508917493256  0.4046064499701528  0.6758890856263237  1.0000
  Co  Co3       1.0  0.2108848117466948  0.3239950261939057  0.7287325049627356  1.0000
  Co  Co4       1.0  0.5179486486363913  0.7289062643153558  0.404778592490601  1.0000
  Co  Co5       1.0  0.1131230673054517  0.5953851786871381  0.3241170948190444  1.0000
  Co  Co6       1.0  0.7890746886617845  0.6759912273404395  0.27125899724436653  1.0000
  H   H1        1.0  0.3720569022882926  0.0233554908801068  0.5449889857010037  1.0000
  H   H2        1.0  0.8270030909633588  0.4549003960978624  0.4784348619850079  1.0000
  H   H3        1.0  0.34865504368723066  0.5217152369800289  0.9766561966783486  1.0000
  H   H4        1.0  0.6278825115448895  0.9766200101381415  0.454992844783071  1.0000
  H   H5        1.0  0.17298449420614762  0.5451273359176554  0.521583801103546  1.0000
  H   H6        1.0  0.6513056763876931  0.4782940602743365  0.02336191299146861  1.0000
  H   H7        1.0  0.10485169774398172  0.12641994267565343  0.41552280928843294  1.0000
  H   H8        1.0  0.6888034975838265  0.5841066012361651  0.7108349170567297  1.0000
  H   H9        1.0  0.9790060707454697  0.2892220617955203  0.8735149776601931  1.0000
  H   H10       1.0  0.895157252298283  0.8735916554639261  0.5844970390316393  1.0000
  H   H11       1.0  0.3112526545858216  0.41587580396219453  0.28915877204667606  1.0000
  H   H12       1.0  0.02100229796050006  0.7107972209042188  0.12647419425616852  1.0000
  H   H13       1.0  0.42427660961548236  0.11654002473312632  0.3812656742789571  1.0000
  H   H14       1.0  0.04250154834252129  0.6185155682518299  0.7352894417324977  1.0000
  H   H15       1.0  0.3083741186114251  0.2647960779927345  0.8832428662238175  1.0000
  H   H16       1.0  0.575721783964191  0.883459284114366  0.6187404905152365  1.0000
  H   H17       1.0  0.9575497424813761  0.3814806647802341  0.2647057489802265  1.0000
  H   H18       1.0  0.6916278538858122  0.7352162913042619  0.11674725432462195  1.0000
  H   H19       1.0  0.9623795021587893  0.2713211896809469  0.42411630313848303  1.0000
  H   H20       1.0  0.537817523847167  0.5755795751634308  0.8471035657483627  1.0000
  H   H21       1.0  0.6915568903277458  0.15288131886175188  0.7288493559182572  1.0000
  H   H22       1.0  0.03763718768917818  0.7286911760665191  0.57590377410709  1.0000
  H   H23       1.0  0.4622322955690875  0.42439898963310435  0.1528885595727445  1.0000
  H   H24       1.0  0.3084478972921049  0.8471425728218877  0.2711456655544566  1.0000
  H   H25       1.0  0.8897892922490767  0.17270110938912356  0.29459490193028165  1.0000
  H   H26       1.0  0.5946235560402896  0.7050513898010492  0.8778480355861903  1.0000
  H   H27       1.0  0.7182501421564991  0.12228227355056728  0.8277367730997015  1.0000
  H   H28       1.0  0.11023782349213468  0.8273174013236259  0.7054234864422926  1.0000
  H   H29       1.0  0.4054366258138628  0.29493024695985065  0.12214491327628713  1.0000
  H   H30       1.0  0.28174773703867123  0.8777454596977989  0.1722575909910589  1.0000
  H   H31       1.0  0.09391701922086783  0.28074870356606857  0.3352488419780429  1.0000
  H   H32       1.0  0.7581820284646381  0.6644604861620992  0.9454344725896394  1.0000
  H   H33       1.0  0.8139386987523307  0.05467096082619349  0.7195670842669843  1.0000
  H   H34       1.0  0.9061097782552492  0.7192721110351242  0.6647784935278125  1.0000
  H   H35       1.0  0.24187840973353048  0.3355157730069962  0.0545605952300221  1.0000
  H   H36       1.0  0.1860435732126292  0.9453490915287405  0.28042789895099685  1.0000
  H   H37       1.0  0.36861224071791543  0.2597848053103391  0.2899846546173921  1.0000
  H   H38       1.0  0.07819946416794468  0.7100438840657333  0.9698087774855398  1.0000
  H   H39       1.0  0.10960772854963348  0.030375629711173198  0.740260596768039  1.0000
  H   H40       1.0  0.6313959383743181  0.740207589601624  0.7100143535304753  1.0000
  H   H41       1.0  0.9218595017522586  0.28993237570686864  0.030180267979019997  1.0000
  H   H42       1.0  0.8904001286926967  0.9696367391710436  0.2597292681226834  1.0000
  H   H43       1.0  0.4813488238294353  0.15421607352158162  0.24003386017747638  1.0000
  H   H44       1.0  0.24069496228901952  0.7599048879697322  0.9140698560363777  1.0000
  H   H45       1.0  0.32790369157183347  0.08597921606415332  0.8458675536705443  1.0000
  H   H46       1.0  0.5186634513531841  0.8457786246030067  0.7599783446922005  1.0000
  H   H47       1.0  0.7593480771475285  0.24008366369095313  0.08592514075012761  1.0000
  H   H48       1.0  0.6720957870922247  0.914036994013692  0.15412747503462754  1.0000
  H   H49       1.0  0.6037115207003153  0.2634504786202355  0.3607783311337372  1.0000
  H   H50       1.0  0.24273576995236107  0.6393144105389295  0.9029208835350887  1.0000
  H   H51       1.0  0.3409671531351676  0.09732739482204517  0.7364969932865365  1.0000
  H   H52       1.0  0.39629282155189566  0.7365519025972558  0.6392276974887211  1.0000
  H   H53       1.0  0.7573260096742017  0.36067337226871393  0.09706516715274201  1.0000
  H   H54       1.0  0.6590418562317097  0.9026872782096405  0.26349731349122163  1.0000
  C   C1        1.0  0.17905701114521128  0.8269128736067303  0.43370548689814137  1.0000
  C   C2        1.0  0.7453673940702072  0.5663892163278276  0.3932731492319236  1.0000
  C   C3        1.0  0.35204188912847206  0.6069558817637458  0.173191304230599  1.0000
  C   C4        1.0  0.8208957077934684  0.17306569903339408  0.5662786842361528  1.0000
  C   C5        1.0  0.25461430439202093  0.43362084856025257  0.6067329350757974  1.0000
  C   C6        1.0  0.6479295760931337  0.3930395876743945  0.8268197843715089  1.0000
  C   C7        1.0  0.13285620101056847  0.1006648706259199  0.5635990382313523  1.0000
  C   C8        1.0  0.5691889920815072  0.4363203967134481  0.537065725986139  1.0000
  C   C9        1.0  0.03217359346665921  0.4628686536072166  0.8992920129549802  1.0000
  C   C10       1.0  0.8671041926261649  0.8993113973776372  0.4363786625916362  1.0000
  C   C11       1.0  0.43079948761447884  0.5636973491769198  0.46294637344422557  1.0000
  C   C12       1.0  0.9678041404628884  0.5371275835019844  0.10071986196837211  1.0000
  C   C13       1.0  0.08243408816007768  0.9136473701866379  0.4631763097231387  1.0000
  C   C14       1.0  0.6192787975947738  0.5368458167751413  0.4504936645147384  1.0000
  C   C15       1.0  0.16876883029269155  0.549608952432216  0.0864015204915844  1.0000
  C   C16       1.0  0.9175337901185542  0.08633504247627852  0.5368060808190053  1.0000
  C   C17       1.0  0.380712944686202  0.4631696241278362  0.5495202165423764  1.0000
  C   C18       1.0  0.8312089030467433  0.4503872849471477  0.9136070645563523  1.0000
  C   C19       1.0  0.20833610923153853  0.0130723175928793  0.5248516624544948  1.0000
  C   C20       1.0  0.6834458803925967  0.4750777725741173  0.4882324849508566  1.0000
  C   C21       1.0  0.1952440959851174  0.5118059889552313  0.9869348464491384  1.0000
  C   C22       1.0  0.7916218546174746  0.9869108639222829  0.47513172398628706  1.0000
  C   C23       1.0  0.316548164839233  0.5249422772221735  0.5117830421543986  1.0000
  C   C24       1.0  0.8047263454388938  0.4881933216868787  0.01307467113821293  1.0000
  C   C25       1.0  0.16340613984254299  0.17127663287577377  0.3818454828666732  1.0000
  C   C26       1.0  0.7810680056227852  0.6178572394637031  0.7893718243869617  1.0000
  C   C27       1.0  0.9928226017772059  0.2107077793433659  0.8287262077792833  1.0000
  C   C28       1.0  0.8366245575748863  0.8287372685829127  0.6181703458249646  1.0000
  C   C29       1.0  0.21898475598899125  0.3821213252064979  0.21061918614266523  1.0000
  C   C30       1.0  0.007173485266797361  0.7893045906926234  0.17126022057635745  1.0000
  C   C31       1.0  0.3462348634731213  0.1648641316671231  0.3614011500118367  1.0000
  C   C32       1.0  0.9843860185140726  0.6384088089722155  0.8034598409413011  1.0000
  C   C33       1.0  0.18209356382363504  0.19664624689345092  0.8350497758306406  1.0000
  C   C34       1.0  0.6537647463945717  0.8351405540065641  0.6386108921055256  1.0000
  C   C35       1.0  0.015676530218371537  0.36158050946678344  0.19653487345527773  1.0000
  C   C36       1.0  0.8179146771454949  0.8033668901826729  0.16493981508887162  1.0000
  C   C37       1.0  0.022712436872886634  0.22772711611741414  0.35798425673694123  1.0000
  C   C38       1.0  0.6642533621249173  0.6417103686199185  0.869627755322178  1.0000
  C   C39       1.0  0.7957430298820397  0.1304385845988207  0.772498279450183  1.0000
  C   C40       1.0  0.9773054684369452  0.7722906268344826  0.6420370920062055  1.0000
  C   C41       1.0  0.335804516542332  0.3582666593557349  0.13036223154199436  1.0000
  C   C42       1.0  0.2042469170170165  0.869579163011487  0.22749154940665767  1.0000
  C   C43       1.0  0.4535953848999269  0.21371325103913824  0.3106216448319899  1.0000
  C   C44       1.0  0.1425490276789389  0.6893500591397764  0.9031207463408607  1.0000
  C   C45       1.0  0.2406221748775294  0.09703805272951627  0.7862937043841642  1.0000
  C   C46       1.0  0.5464147782879748  0.7862860569247445  0.6893846666218624  1.0000
  C   C47       1.0  0.8575079559897458  0.31063695517716644  0.09687317228116404  1.0000
  C   C48       1.0  0.7593801815825358  0.9029750846533277  0.21369745814322988  1.0000
  O   O1        1.0  0.06017646264994897  0.7354808042522267  0.38378179970273885  1.0000
  O   O2        1.0  0.676430816926455  0.616418291849726  0.35178326792771497  1.0000
  O   O3        1.0  0.3245753923847231  0.6486244781834997  0.2646602012883861  1.0000
  O   O4        1.0  0.9397810543709963  0.26449853590600014  0.6162063470488806  1.0000
  O   O5        1.0  0.3235475552593952  0.3835910051328851  0.6482222312174529  1.0000
  O   O6        1.0  0.6753936421491884  0.3513602367377117  0.7353496602687316  1.0000
  O   O7        1.0  0.26646709608512237  0.1925812025627778  0.6246921858346753  1.0000
  O   O8        1.0  0.641724603462137  0.3751945113360762  0.5679420041038982  1.0000
  O   O9        1.0  0.0738016712568524  0.4319477015509393  0.8073240013209715  1.0000
  O   O10       1.0  0.7334829986870872  0.8073950664233178  0.3752828370076601  1.0000
  O   O11       1.0  0.358255368148427  0.6248209309368136  0.43206580851780524  1.0000
  O   O12       1.0  0.926165829505912  0.568051608515077  0.1926951847339566  1.0000
  O   O13       1.0  0.37103726651611163  0.8431500582159828  0.4601457376920168  1.0000
  O   O14       1.0  0.9109301244313031  0.5399747653687896  0.3830721334144514  1.0000
  O   O15       1.0  0.5277698380776313  0.6170583191148539  0.15697671982037792  1.0000
  O   O16       1.0  0.6289196109061094  0.15683389112400187  0.5398431959739656  1.0000
  O   O17       1.0  0.08903481373199904  0.46002531490866266  0.6169248643327949  1.0000
  O   O18       1.0  0.47219452642072907  0.382949442210574  0.8430323699036395  1.0000
