data_image0
_chemical_formula_structural       Ag4H20C8N20Cl4O16
_chemical_formula_sum              "Ag4 H20 C8 N20 Cl4 O16"
_cell_length_a       6.494147934481474
_cell_length_b       7.194957348007335
_cell_length_c       18.160766110137494
_cell_angle_alpha    89.99985610472218
_cell_angle_beta     97.58209986908282
_cell_angle_gamma    89.99993839692755

_space_group_name_H-M_alt    "P 1"
_space_group_IT_number       1

loop_
  _space_group_symop_operation_xyz
  'x, y, z'

loop_
  _atom_site_type_symbol
  _atom_site_label
  _atom_site_symmetry_multiplicity
  _atom_site_fract_x
  _atom_site_fract_y
  _atom_site_fract_z
  _atom_site_occupancy
  Ag  Ag1       1.0  0.9593356784283174  0.2151030570934083  0.8378499762947342  1.0000
  Ag  Ag2       1.0  0.040665880886749106  0.7151014746785905  0.6621490966553836  1.0000
  Ag  Ag3       1.0  0.040663346111792  0.784896400306181  0.162149600522973  1.0000
  Ag  Ag4       1.0  0.9593347068650145  0.28489937258055426  0.3378511010666969  1.0000
  H   H1        1.0  0.550943537937556  0.15892820113947437  0.7133925316030059  1.0000
  H   H2        1.0  0.4490550419630068  0.658929590972825  0.7866086655826976  1.0000
  H   H3        1.0  0.44905549641647724  0.8410712562583458  0.2866075963043215  1.0000
  H   H4        1.0  0.5509440120177658  0.34107125628376184  0.2133925645031454  1.0000
  H   H5        1.0  0.2854064230253712  0.13749109505785378  0.7134475920160311  1.0000
  H   H6        1.0  0.7145952874906812  0.6374922246869517  0.7865532164208844  1.0000
  H   H7        1.0  0.7145925917008283  0.8625083623435046  0.2865514337120416  1.0000
  H   H8        1.0  0.2854053100739051  0.36251001243272196  0.21344753239009148  1.0000
  H   H9        1.0  0.42229480750411597  0.3014830455995608  0.0371347765758188  1.0000
  H   H10       1.0  0.5777078698355425  0.8014831810436858  0.4628655658009109  1.0000
  H   H11       1.0  0.5777073238325486  0.6985178016603656  0.9628649398721337  1.0000
  H   H12       1.0  0.4222927277301381  0.19851766621368228  0.537135183010804  1.0000
  H   H13       1.0  0.20041505939226315  0.16668011274458644  0.9984616386854982  1.0000
  H   H14       1.0  0.7995850617465763  0.6666802035104239  0.501539620104289  1.0000
  H   H15       1.0  0.7995870817594124  0.8333193446512583  0.001538628852820508  1.0000
  H   H16       1.0  0.20041399223529063  0.3333192538838645  0.49846160998229283  1.0000
  H   H17       1.0  0.20603294004813216  0.4126399244309127  0.9822088657304563  1.0000
  H   H18       1.0  0.7939683289882355  0.9126399166854285  0.5177911001345379  1.0000
  H   H19       1.0  0.7939676477047186  0.5873595329659195  0.0177913319923704  1.0000
  H   H20       1.0  0.20603225876461553  0.08735954071140382  0.4822090975882887  1.0000
  C   C1        1.0  0.29972403659286334  0.28583159618728626  0.9901283712030137  1.0000
  C   C2        1.0  0.7002758878014674  0.7858317310637376  0.5098722102722704  1.0000
  C   C3        1.0  0.7002765413460708  0.7141678612113154  0.009871275430178612  1.0000
  C   C4        1.0  0.29972470976530025  0.21416772633132555  0.49012853854017635  1.0000
  C   C5        1.0  0.45279800589325  0.1917564718909973  0.8149554575841478  1.0000
  C   C6        1.0  0.5472021151642537  0.6917514661633534  0.6850479790018369  1.0000
  C   C7        1.0  0.5471994652502232  0.8082402057849691  0.1850440494195311  1.0000
  C   C8        1.0  0.4527953952327053  0.3082479912301537  0.3149537323588731  1.0000
  N   N1        1.0  0.2985714090293571  0.2157468254652173  0.8572420003164751  1.0000
  N   N2        1.0  0.7014301590889787  0.7157461086612287  0.6427576230408221  1.0000
  N   N3        1.0  0.7014276155118467  0.7842512420720665  0.142757576501964  1.0000
  N   N4        1.0  0.29856888507787727  0.28425473859712724  0.3572430559553936  1.0000
  N   N5        1.0  0.6405408715997752  0.21736723488356796  0.8579453997887472  1.0000
  N   N6        1.0  0.35945914057729317  0.7173668581378154  0.6420541520362733  1.0000
  N   N7        1.0  0.35945814312860586  0.7826294427931869  0.1420536259408038  1.0000
  N   N8        1.0  0.640539893775646  0.28263398912231014  0.3579459758703152  1.0000
  N   N9        1.0  0.6033637835219992  0.25619005676148987  0.9267239297221934  1.0000
  N   N10       1.0  0.3966361873743907  0.756191473618358  0.5732766831536082  1.0000
  N   N11       1.0  0.39663678460302526  0.7438094006388811  0.0732751658213786  1.0000
  N   N12       1.0  0.6033628567935523  0.24380798377769247  0.4267239958433464  1.0000
  N   N13       1.0  0.42950771039121355  0.14370500319527937  0.7432968627881849  1.0000
  N   N14       1.0  0.5704908246936711  0.6437078551507014  0.7567004928962788  1.0000
  N   N15       1.0  0.5704913043371604  0.8562916744814685  0.2567021629413659  1.0000
  N   N16       1.0  0.4295082096581809  0.356294381971729  0.24329963500957064  1.0000
  N   N17       1.0  0.40211754799625504  0.2532992474755246  0.9249829825957363  1.0000
  N   N18       1.0  0.5978824274355432  0.7533004557178631  0.5750176333425969  1.0000
  N   N19       1.0  0.5978814765438615  0.7467002099240645  0.0750165942219638  1.0000
  N   N20       1.0  0.40211661673240684  0.24669900167818784  0.4249830456543577  1.0000
  Cl  Cl1       1.0  0.9113530270973556  0.2496459872070673  0.6320190040772431  1.0000
  Cl  Cl2       1.0  0.08864695406692392  0.7496458199895886  0.8679816157319565  1.0000
  Cl  Cl3       1.0  0.088647560654401  0.7503548600520703  0.3679811936448445  1.0000
  Cl  Cl4       1.0  0.9113536336848326  0.25035502726954917  0.1320185819901312  1.0000
  O   O1        1.0  0.9198216962033501  0.37843498842825335  0.5711933152254217  1.0000
  O   O2        1.0  0.0801780730969597  0.8784344402023622  0.9288066170598555  1.0000
  O   O3        1.0  0.08017889154841379  0.6215658588308912  0.42880688249666576  1.0000
  O   O4        1.0  0.919822485209778  0.12157057664899901  0.07119192739114771  1.0000
  O   O5        1.0  0.7020186968110735  0.17155946579325843  0.6289779320171006  1.0000
  O   O6        1.0  0.2979813774164199  0.671560463570586  0.8710211172446877  1.0000
  O   O7        1.0  0.297981890940683  0.8284413814658862  0.3710222657049869  1.0000
  O   O8        1.0  0.7020176569376133  0.32843899382723424  0.1289790106626398  1.0000
  O   O9        1.0  0.9651218534368909  0.34692775411301824  0.7035281532015247  1.0000
  O   O10       1.0  0.03487641189287421  0.8469294872222973  0.7964717426446981  1.0000
  O   O11       1.0  0.0348787343148729  0.653073093146119  0.2964720445205629  1.0000
  O   O12       1.0  0.9651241660471542  0.15306858031400586  0.2035279039892401  1.0000
  O   O13       1.0  0.061129053028864205  0.09835990670718081  0.6275819957177973  1.0000
  O   O14       1.0  0.9388711556670304  0.5983588768152048  0.8724182332693361  1.0000
  O   O15       1.0  0.9388699813240748  0.9016409405529445  0.37241813218879116  1.0000
  O   O16       1.0  0.0611294418986432  0.40164197044216376  0.1275825155423789  1.0000
