data_image0
_chemical_formula_structural       Nd4H36C20S4N4O36
_chemical_formula_sum              "Nd4 H36 C20 S4 N4 O36"
_cell_length_a       6.348112918227957
_cell_length_b       10.383003072220543
_cell_length_c       17.07154887163355
_cell_angle_alpha    74.04262051268306
_cell_angle_beta     79.28346766068528
_cell_angle_gamma    72.19962242697827

_space_group_name_H-M_alt    "P 1"
_space_group_IT_number       1

loop_
  _space_group_symop_operation_xyz
  'x, y, z'

loop_
  _atom_site_type_symbol
  _atom_site_label
  _atom_site_symmetry_multiplicity
  _atom_site_fract_x
  _atom_site_fract_y
  _atom_site_fract_z
  _atom_site_occupancy
  Nd  Nd1       1.0  0.8244537116407713  0.5696308984941751  0.7516379340364026  1.0000
  Nd  Nd2       1.0  0.14563655161807543  0.9302889540576942  0.7483815332263217  1.0000
  Nd  Nd3       1.0  0.1755453032530668  0.4303718403359582  0.2483621447485689  1.0000
  Nd  Nd4       1.0  0.8543643949739277  0.0697106641911986  0.2516183885077509  1.0000
  H   H1        1.0  0.43309399927644393  0.8497665160836761  0.4880373874973216  1.0000
  H   H2        1.0  0.7706759178782435  0.6501980647992198  0.011792415040943584  1.0000
  H   H3        1.0  0.5669039625384543  0.15023310216521685  0.5119623125758536  1.0000
  H   H4        1.0  0.22932458007272086  0.3498025936434246  0.9882073637850792  1.0000
  H   H5        1.0  0.674010183348919  0.7720994099389672  0.42734859118603186  1.0000
  H   H6        1.0  0.8732447067297283  0.7276716949074071  0.07260555630399777  1.0000
  H   H7        1.0  0.32598985662957614  0.2279002083099257  0.572650633942551  1.0000
  H   H8        1.0  0.1267548846077136  0.2723289635352373  0.9273935259165423  1.0000
  H   H9        1.0  0.822865806920305  0.5005256270624159  0.5567480004275535  1.0000
  H   H10       1.0  0.8801350266728754  0.9993692608395861  0.9431728303000353  1.0000
  H   H11       1.0  0.17713454456523464  0.49947191079899517  0.4432520962921557  1.0000
  H   H12       1.0  0.1198654712780893  0.0006313976030583  0.05682694852598759  1.0000
  H   H13       1.0  0.7963617311113468  0.51923767233653  0.4505111439778274  1.0000
  H   H14       1.0  0.7662624197775472  0.9806957027340247  0.049418856780846475  1.0000
  H   H15       1.0  0.20364024989674323  0.4807609057186184  0.5494883348892472  1.0000
  H   H16       1.0  0.23373717155990215  0.0193049557086198  0.9505802254396938  1.0000
  H   H17       1.0  0.20884687213355596  0.7177648896825062  0.4639000461175796  1.0000
  H   H18       1.0  0.3903417544615167  0.7822621028250725  0.03616459761169468  1.0000
  H   H19       1.0  0.7911543859654984  0.2822326481788977  0.5361007472076124  1.0000
  H   H20       1.0  0.6096597779055275  0.2177375154238206  0.9638347383473299  1.0000
  H   H21       1.0  0.43856828183361796  0.645658659297176  0.3969108249054897  1.0000
  H   H22       1.0  0.4812248419827513  0.8543360872043166  0.10312007584381178  1.0000
  H   H23       1.0  0.5614301379537492  0.3543419991454684  0.6030894288651253  1.0000
  H   H24       1.0  0.5187756559682132  0.1456645712383207  0.8968797029822111  1.0000
  H   H25       1.0  0.4324821862024282  0.6228024821440172  0.5747409642314876  1.0000
  H   H26       1.0  0.6297439183755317  0.8771839428075197  0.9252434016339703  1.0000
  H   H27       1.0  0.5675207014191701  0.37719609591113823  0.42525921124106947  1.0000
  H   H28       1.0  0.3702561309343865  0.12281775582886921  0.07475623428400979  1.0000
  H   H29       1.0  0.7147601551015085  0.4864247606587285  0.9384924121430483  1.0000
  H   H30       1.0  0.1398056120045511  0.013436182600798902  0.5615368700379404  1.0000
  H   H31       1.0  0.28524092862448935  0.5135758977839161  0.06150678090793349  1.0000
  H   H32       1.0  0.8601939793328983  0.9865644758418385  0.43846221218259257  1.0000
  H   H33       1.0  0.49513084437965227  0.6045762073486927  0.9115362350539582  1.0000
  H   H34       1.0  0.011200611819916535  0.895396695084159  0.5884390912508406  1.0000
  H   H35       1.0  0.5048702393463461  0.3954244510939446  0.08846295799702379  1.0000
  H   H36       1.0  0.9887979451014459  0.10460500355222281  0.41156043383669066  1.0000
  C   C1        1.0  0.7318352848261824  0.7721202138138639  0.5483715798580419  1.0000
  C   C2        1.0  0.052213342760993216  0.727832924937843  0.9515785514721883  1.0000
  C   C3        1.0  0.26816267698871615  0.22787940443502924  0.4516281202151332  1.0000
  C   C4        1.0  0.947788510444525  0.2721666933110569  0.04842206686736009  1.0000
  C   C5        1.0  0.5853451853569283  0.7632952100834913  0.4893841401644678  1.0000
  C   C6        1.0  0.8378628764686341  0.7366007180122481  0.010535256934098005  1.0000
  C   C7        1.0  0.4146562098761209  0.23670336797165703  0.5106159244776405  1.0000
  C   C8        1.0  0.16213775861632512  0.26340098062414097  0.9894637932088411  1.0000
  C   C9        1.0  0.7126075336487363  0.5041808678814306  0.5135147583260176  1.0000
  C   C10       1.0  0.7303247950891253  0.9957878737764433  0.9864273297498579  1.0000
  C   C11       1.0  0.2873934129432669  0.4958187503674695  0.48648516340804787  1.0000
  C   C12       1.0  0.26967570286183923  0.004212784666194101  0.013572449076164592  1.0000
  C   C13       1.0  0.3569862092674116  0.6299569347203333  0.4601676079861717  1.0000
  C   C14       1.0  0.4470711955797883  0.8700357313936706  0.03988145073684282  1.0000
  C   C15       1.0  0.6430131078020482  0.3700416433348153  0.5398329316005359  1.0000
  C   C16       1.0  0.5529293023711691  0.12996492704897383  0.96011832808918  1.0000
  C   C17       1.0  0.0031049508491351745  0.2298505715813164  0.7974027778302923  1.0000
  C   C18       1.0  0.03002883428767009  0.2699791658658697  0.7026172791157987  1.0000
  C   C19       1.0  0.9968891754770579  0.7701490466675837  0.20259915451259045  1.0000
  C   C20       1.0  0.969974374172402  0.7300194121892788  0.297384178737289  1.0000
  S   S1        1.0  0.33139848271238054  0.5675817168170383  0.7426080710358531  1.0000
  S   S2        1.0  0.6413521503185327  0.9324421551093067  0.7574205502814306  1.0000
  S   S3        1.0  0.6686011086250687  0.4324189416256061  0.25739101118468705  1.0000
  S   S4        1.0  0.35864671810988114  0.0675574631395861  0.24257984639722704  1.0000
  N   N1        1.0  0.5164602975942574  0.630072396225998  0.5150103021915979  1.0000
  N   N2        1.0  0.6614172850135488  0.8698901042694089  0.9849555357887709  1.0000
  N   N3        1.0  0.48354154627983104  0.36992514163540596  0.48498990535856  1.0000
  N   N4        1.0  0.3385832129374151  0.13011055417323553  0.015044243037252195  1.0000
  O   O1        1.0  0.8336002085621176  0.8656180285597587  0.5256062437689051  1.0000
  O   O2        1.0  0.22484796926192258  0.6344765765412248  0.9743718532307426  1.0000
  O   O3        1.0  0.16639789038677583  0.1343826298828787  0.4743927276211861  1.0000
  O   O4        1.0  0.7751529773300803  0.365523041707668  0.025628068503330294  1.0000
  O   O5        1.0  0.7401814653318295  0.6830879508141336  0.6160843222419243  1.0000
  O   O6        1.0  0.03917111287923095  0.8167975753441611  0.8838595905765556  1.0000
  O   O7        1.0  0.25981559920098374  0.3169137478222552  0.3839150920151581  1.0000
  O   O8        1.0  0.9608313447641732  0.18320620367970974  0.11614126356674595  1.0000
  O   O9        1.0  0.9186097622787345  0.32689648719051695  0.8342149082288298  1.0000
  O   O10       1.0  0.07874364309719101  0.1730071040125409  0.6657947854911865  1.0000
  O   O11       1.0  0.08138539846353862  0.6731020908646315  0.16578658124705467  1.0000
  O   O12       1.0  0.9212592538558366  0.8269935544300965  0.33420580077077483  1.0000
  O   O13       1.0  0.07187994933173103  0.10177255598529913  0.8312973261758853  1.0000
  O   O14       1.0  0.004648120037125027  0.39807278436805404  0.6687331405625512  1.0000
  O   O15       1.0  0.928117747546608  0.8982270622635937  0.16870424205285417  1.0000
  O   O16       1.0  0.995354054006867  0.601926833880839  0.33126876015752765  1.0000
  O   O17       1.0  0.16896372940664164  0.5258959524966045  0.8123442322336627  1.0000
  O   O18       1.0  0.506938296986128  0.9744971882091208  0.6876521297776532  1.0000
  O   O19       1.0  0.8310357247968128  0.47410366575228846  0.18765557866996113  1.0000
  O   O20       1.0  0.4930636840219549  0.025501389846027706  0.3123473490894212  1.0000
  O   O21       1.0  0.2222445748496893  0.6082064835178329  0.6659707781585807  1.0000
  O   O22       1.0  0.4961013982830024  0.8915979075283718  0.8339913332937952  1.0000
  O   O23       1.0  0.7777544307127184  0.3917941749248045  0.3340288898369933  1.0000
  O   O24       1.0  0.5038989625339596  0.10840171072052132  0.16600917421531136  1.0000
  O   O25       1.0  0.3963380562831701  0.6899469883669411  0.7534234621027591  1.0000
  O   O26       1.0  0.8393741112313786  0.810092486465571  0.7465017449286718  1.0000
  O   O27       1.0  0.6036609492792381  0.3100536700756962  0.24657620589282192  1.0000
  O   O28       1.0  0.1606272933330929  0.18990817197706636  0.2534987305028408  1.0000
  O   O29       1.0  0.5412104353288003  0.45562046310201515  0.738708300533872  1.0000
  O   O30       1.0  0.7354122776844106  0.044205113570186014  0.7615656197411694  1.0000
  O   O31       1.0  0.45878857023360814  0.5443801953406222  0.2612913674617018  1.0000
  O   O32       1.0  0.26458717651904334  0.955794504678707  0.23843419116245454  1.0000
  O   O33       1.0  0.6559146801167728  0.5685189313810498  0.8939313650258283  1.0000
  O   O34       1.0  0.11845396257986357  0.9313104243150293  0.6060680673764621  1.0000
  O   O35       1.0  0.34408581783419123  0.43148172706159477  0.1060684138001946  1.0000
  O   O36       1.0  0.8815445943415058  0.06869127432135262  0.3939314577110692  1.0000
