data_image0
_chemical_formula_structural       La2H82C78N4O22
_chemical_formula_sum              "La2 H82 C78 N4 O22"
_cell_length_a       12.741251047981464
_cell_length_b       13.80993728539233
_cell_length_c       16.36900227649781
_cell_angle_alpha    76.63007395042806
_cell_angle_beta     74.74040786564572
_cell_angle_gamma    84.10998607480606

_space_group_name_H-M_alt    "P 1"
_space_group_IT_number       1

loop_
  _space_group_symop_operation_xyz
  'x, y, z'

loop_
  _atom_site_type_symbol
  _atom_site_label
  _atom_site_symmetry_multiplicity
  _atom_site_fract_x
  _atom_site_fract_y
  _atom_site_fract_z
  _atom_site_occupancy
  La  La1       1.0  0.374191882076012  0.040025199045217584  0.4390302775094669  1.0000
  La  La2       1.0  0.6258042215062147  0.9599700288427544  0.5609708103271558  1.0000
  H   H1        1.0  0.0170295262309992  0.33640849858579003  0.0020110917231192962  1.0000
  H   H2        1.0  0.9829725385565737  0.6635814336396209  0.9979940105198252  1.0000
  H   H3        1.0  0.04344721755681751  0.27775614204359295  0.10289886656445188  1.0000
  H   H4        1.0  0.9565569877213137  0.722241955278136  0.897105450377232  1.0000
  H   H5        1.0  0.1392928090435035  0.26475669081715136  0.004804245414994995  1.0000
  H   H6        1.0  0.8607140491551634  0.7352361668905018  0.995201113607429  1.0000
  H   H7        1.0  0.4264595658053025  0.6154550108512707  0.93479542121446  1.0000
  H   H8        1.0  0.5735379513716624  0.38454615379537666  0.06520545948817606  1.0000
  H   H9        1.0  0.404190566190664  0.5456915392178416  0.8634061475786082  1.0000
  H   H10       1.0  0.5958086075026827  0.4543088672405134  0.13659452466453106  1.0000
  H   H11       1.0  0.460429823285999  0.48648798777547614  0.9507748482586464  1.0000
  H   H12       1.0  0.5395743554054278  0.5135101243627176  0.049227638650037896  1.0000
  H   H13       1.0  0.009588725875829596  0.577325569165076  0.2146247527800682  1.0000
  H   H14       1.0  0.990411237382638  0.42267411534179905  0.785372222872681  1.0000
  H   H15       1.0  0.006437195883989893  0.6818821374172189  0.12923394734226426  1.0000
  H   H16       1.0  0.9935610617989783  0.318119790300159  0.870763575959536  1.0000
  H   H17       1.0  0.11613131416763171  0.6607933501060117  0.18005994833407607  1.0000
  H   H18       1.0  0.8838695006916027  0.3392055778776495  0.8199376008052965  1.0000
  H   H19       1.0  0.909050968651691  0.5229621945202112  0.14692836496515574  1.0000
  H   H20       1.0  0.09094732922815749  0.47703825311378983  0.853068209136083  1.0000
  H   H21       1.0  0.9203448392122271  0.42166784608529184  0.09580414000176762  1.0000
  H   H22       1.0  0.07965363654599139  0.5783295870549098  0.9041972458193753  1.0000
  H   H23       1.0  0.9358119456765053  0.24708488738816212  0.3531599395899931  1.0000
  H   H24       1.0  0.06418484223067368  0.7529147790848826  0.646843213902194  1.0000
  H   H25       1.0  0.772525003271632  0.1469273212341662  0.4282494695350252  1.0000
  H   H26       1.0  0.2274719188363932  0.8530664397218289  0.5717480571219297  1.0000
  H   H27       1.0  0.6021706498977224  0.31254922420641407  0.24268496434947193  1.0000
  H   H28       1.0  0.39782759654903543  0.6874534386138292  0.7573136435636056  1.0000
  H   H29       1.0  0.7618223350292297  0.41808947129967333  0.17025068412196726  1.0000
  H   H30       1.0  0.23817512660036044  0.5819124531439499  0.8297482311369464  1.0000
  H   H31       1.0  0.2947010122318403  0.2838370176758929  0.970289744693673  1.0000
  H   H32       1.0  0.7052995668276765  0.7161664147625899  0.029702721904357122  1.0000
  H   H33       1.0  0.39115515494088277  0.3748924474110281  0.9125605107192739  1.0000
  H   H34       1.0  0.6088412393866703  0.6251139979689455  0.08743227391139649  1.0000
  H   H35       1.0  0.4082081051924717  0.21757364204167834  0.8731533524076767  1.0000
  H   H36       1.0  0.591793207251122  0.7824327439596744  0.12684084065636375  1.0000
  H   H37       1.0  0.46060634828512553  0.106390418092694  0.7687239427706629  1.0000
  H   H38       1.0  0.5393950977256522  0.8936129781089621  0.23127201195827488  1.0000
  H   H39       1.0  0.2530688601815072  0.2783770498675864  0.6157587787442862  1.0000
  H   H40       1.0  0.7469302514762007  0.7216233911625167  0.3842376234218535  1.0000
  H   H41       1.0  0.1955240309431616  0.390968672078067  0.7217606068135396  1.0000
  H   H42       1.0  0.8044741221332998  0.6090355004584822  0.2782352902340932  1.0000
  H   H43       1.0  0.33266884945246034  0.7108183918349696  0.9863429832119193  1.0000
  H   H44       1.0  0.6673336348996697  0.2891812284108468  0.013658966734531989  1.0000
  H   H45       1.0  0.208902804960033  0.7359986416951472  0.059444738901760254  1.0000
  H   H46       1.0  0.7911006178749035  0.263997987085915  0.9405581907634684  1.0000
  H   H47       1.0  0.3399226009047212  0.6062049195880024  0.27449323501839723  1.0000
  H   H48       1.0  0.6600761862990367  0.39378650925871034  0.7255147241875263  1.0000
  H   H49       1.0  0.33228856219751174  0.7258135499284039  0.37116900383507107  1.0000
  H   H50       1.0  0.6677044416792555  0.2741801600870772  0.6288397526844278  1.0000
  H   H51       1.0  0.30562989989271483  0.9717403352086293  0.16244252563672748  1.0000
  H   H52       1.0  0.6943685214247636  0.028262958999235407  0.8375699771186548  1.0000
  H   H53       1.0  0.31092620365649987  0.8550222243101119  0.0654583694611759  1.0000
  H   H54       1.0  0.6890843599191285  0.14498173557519323  0.9345489788128986  1.0000
  H   H55       1.0  0.3487620908855718  0.3246510858316398  0.3535516388845963  1.0000
  H   H56       1.0  0.6512412409530411  0.6753463225016745  0.6464468852929031  1.0000
  H   H57       1.0  0.3696836131717944  0.4239574802446882  0.22891188578474697  1.0000
  H   H58       1.0  0.6303195915878987  0.5760436431135432  0.771087181361146  1.0000
  H   H59       1.0  0.2512571809127024  0.4463652261843266  0.18709176132946936  1.0000
  H   H60       1.0  0.748741100982997  0.5536374168806334  0.8129092866276223  1.0000
  H   H61       1.0  0.36114034514081084  0.3680262437895508  0.14302900550103456  1.0000
  H   H62       1.0  0.6388603515017337  0.6319763942802011  0.8569696966177317  1.0000
  H   H63       1.0  0.24436380707580702  0.19793171843985394  0.19948383737036576  1.0000
  H   H64       1.0  0.7556318089228287  0.8020747137887269  0.8005115592394174  1.0000
  H   H65       1.0  0.13940403145590352  0.2958843039163099  0.2102916354963043  1.0000
  H   H66       1.0  0.8605981455649785  0.7041227760122695  0.7897077403209207  1.0000
  H   H67       1.0  0.1506126236132772  0.1973182621873164  0.301382102176582  1.0000
  H   H68       1.0  0.849383190362161  0.8026844155057803  0.698617631552814  1.0000
  H   H69       1.0  0.16660599841058854  0.15413774604375874  0.573095552598275  1.0000
  H   H70       1.0  0.8333946692712787  0.8458656370065042  0.4269030141097615  1.0000
  H   H71       1.0  0.026986789957867092  0.2190140405825859  0.6507187772571683  1.0000
  H   H72       1.0  0.9730148427935036  0.7809863361864515  0.34928259920265947  1.0000
  H   H73       1.0  0.9310552527861661  0.13529900535024814  0.7267780203341799  1.0000
  H   H74       1.0  0.06894794073730992  0.864702853110856  0.2732221314229974  1.0000
  H   H75       1.0  0.9015234332290448  0.20005442597207693  0.627552929100574  1.0000
  H   H76       1.0  0.09847736564603339  0.7999466974425504  0.3724490938946444  1.0000
  H   H77       1.0  0.8965436037120967  0.022635401912793892  0.5831414519868331  1.0000
  H   H78       1.0  0.10345707520598073  0.9773672460346035  0.4168560301099332  1.0000
  H   H79       1.0  0.913413495284715  0.9720105491669957  0.6896683185640382  1.0000
  H   H80       1.0  0.08658722620422311  0.027989888532971505  0.3103265197098892  1.0000
  H   H81       1.0  0.012113410545048  0.9411667332880851  0.5974553111143023  1.0000
  H   H82       1.0  0.9878872997076799  0.05883443951474733  0.40254061177090245  1.0000
  C   C1        1.0  0.0743138370658372  0.47592972239579023  0.08858188716332188  1.0000
  C   C2        1.0  0.9256853277652795  0.5240706890013911  0.9114181750688176  1.0000
  C   C3        1.0  0.13431050122868976  0.4096958391050762  0.03774438346744797  1.0000
  C   C4        1.0  0.8656887126615445  0.590303087269895  0.9622553395751366  1.0000
  C   C5        1.0  0.240751672544576  0.43207761338870665  0.9886770644443172  1.0000
  C   C6        1.0  0.7592481925956492  0.5679250411625745  0.01132058958755504  1.0000
  C   C7        1.0  0.2868103121294823  0.5210951297195406  0.9881065092582375  1.0000
  C   C8        1.0  0.713191294035184  0.47890526186596116  0.011893037168590633  1.0000
  C   C9        1.0  0.2267772771149339  0.5853316876366961  0.040880909731583925  1.0000
  C   C10       1.0  0.7732261658184427  0.4146642011026671  0.9591215453333675  1.0000
  C   C11       1.0  0.12169966377774698  0.5610957977451393  0.09369854237976225  1.0000
  C   C12       1.0  0.8783004507723788  0.4389008870844151  0.9063014149598844  1.0000
  C   C13       1.0  0.0818343505204311  0.31697810190866  0.036865398708215494  1.0000
  C   C14       1.0  0.9181674938179186  0.683017055057981  0.9631375356376706  1.0000
  C   C15       1.0  0.3998487356605267  0.543841005503225  0.9317235572384703  1.0000
  C   C16       1.0  0.6001537888884984  0.45615713465921454  0.0682774435074194  1.0000
  C   C17       1.0  0.06067976293512339  0.6237977753917221  0.15725927460601244  1.0000
  C   C18       1.0  0.9393152975577977  0.3762026887801895  0.8427392072576508  1.0000
  C   C19       1.0  0.957970048058371  0.45499622746192614  0.1353739948161419  1.0000
  C   C20       1.0  0.04203237188414731  0.5450041575196849  0.8646253796755801  1.0000
  C   C21       1.0  0.8603081025820742  0.3362955789257215  0.25578495782935556  1.0000
  C   C22       1.0  0.13968858958083527  0.6637063274276896  0.7442171794196638  1.0000
  C   C23       1.0  0.8620546985946335  0.26089128302844955  0.3295184545253136  1.0000
  C   C24       1.0  0.13794035952431466  0.7391099113075087  0.670481721960634  1.0000
  C   C25       1.0  0.7710599914311729  0.20493264270061223  0.370873672143169  1.0000
  C   C26       1.0  0.2289374300015297  0.7950707618263948  0.6291261923162992  1.0000
  C   C27       1.0  0.6774024991290518  0.22237729048045196  0.3386796315377866  1.0000
  C   C28       1.0  0.3225932994958924  0.7776246669262433  0.6613171875473327  1.0000
  C   C29       1.0  0.6759347885996974  0.29917176064454043  0.2662416366872122  1.0000
  C   C30       1.0  0.32406511436344226  0.7008301439874103  0.7337567627663757  1.0000
  C   C31       1.0  0.7658237002799738  0.3570590415678296  0.224978242941269  1.0000
  C   C32       1.0  0.23417543970474947  0.6429435701991366  0.7750256831357162  1.0000
  C   C33       1.0  0.5801559916730669  0.1610458124801539  0.3789693212030726  1.0000
  C   C34       1.0  0.41984232393125615  0.8389546252762018  0.621028472920173  1.0000
  C   C35       1.0  0.3036308798159766  0.36157671006941433  0.9339319545521647  1.0000
  C   C36       1.0  0.6963673110833993  0.6384267125478047  0.06606468791719071  1.0000
  C   C37       1.0  0.2961982311254446  0.31034668808857196  0.8046043156435657  1.0000
  C   C38       1.0  0.7038023810090411  0.6896574547586667  0.19539228562075536  1.0000
  C   C39       1.0  0.37142376242670133  0.23075462475248545  0.8183794553227273  1.0000
  C   C40       1.0  0.6285800959569485  0.7692494966180166  0.1816158481901694  1.0000
  C   C41       1.0  0.40180339541417  0.1684122463080158  0.7594036185458319  1.0000
  C   C42       1.0  0.5981988756106632  0.8315904081868838  0.24059107963671517  1.0000
  C   C43       1.0  0.35948751641587523  0.184611193158247  0.6865289344864606  1.0000
  C   C44       1.0  0.6405123398621129  0.8153914663318603  0.313468109534405  1.0000
  C   C45       1.0  0.2845402431952664  0.2650331576233  0.6734368048796355  1.0000
  C   C46       1.0  0.715460360076982  0.7349709901627578  0.32655918637367876  1.0000
  C   C47       1.0  0.2526294817318373  0.32751418735468  0.7318250392638106  1.0000
  C   C48       1.0  0.7473686713446241  0.6724899851818763  0.26817085778382216  1.0000
  C   C49       1.0  0.3975928928026136  0.1180953633688517  0.6229323850528274  1.0000
  C   C50       1.0  0.6024039512856093  0.8819006275898575  0.3770653453829594  1.0000
  C   C51       1.0  0.273650533130862  0.6785771854045775  0.0463491478530571  1.0000
  C   C52       1.0  0.7263512042270152  0.321420946545281  0.9536538548609383  1.0000
  C   C53       1.0  0.32393806187880614  0.7229632414215246  0.16511799448277026  1.0000
  C   C54       1.0  0.6760630845244151  0.2770289422269556  0.8348856534411055  1.0000
  C   C55       1.0  0.33181739821043976  0.6865200417129103  0.25085312247757935  1.0000
  C   C56       1.0  0.6681806869438918  0.3134669584263748  0.7491515510507796  1.0000
  C   C57       1.0  0.3275144988737608  0.7525662245206775  0.3040995890901144  1.0000
  C   C58       1.0  0.6724873318544126  0.2474303977128756  0.6959061244893334  1.0000
  C   C59       1.0  0.31674600792122487  0.8557485729767224  0.2727790731164603  1.0000
  C   C60       1.0  0.6832624287740219  0.14424575654534527  0.727226281225306  1.0000
  C   C61       1.0  0.3117351116728884  0.8913814791991754  0.18665833434201318  1.0000
  C   C62       1.0  0.6882723238702582  0.10861879207677562  0.8133491587040922  1.0000
  C   C63       1.0  0.3146374805222151  0.8258871754146142  0.13250471789793036  1.0000
  C   C64       1.0  0.6853675385337683  0.1741109153032171  0.8674994271086475  1.0000
  C   C65       1.0  0.3110167110155545  0.9256010306794876  0.3316548744979714  1.0000
  C   C66       1.0  0.6889883813122779  0.0743962903637296  0.6683524559743361  1.0000
  C   C67       1.0  0.29246047536570796  0.2755712880633395  0.3430672088443245  1.0000
  C   C68       1.0  0.7075411621336087  0.7244276283776045  0.6569307783709419  1.0000
  C   C69       1.0  0.31446639374954094  0.3903827249178067  0.20309022578110358  1.0000
  C   C70       1.0  0.6855351456315333  0.6096191615675437  0.7969084398132793  1.0000
  C   C71       1.0  0.19583691923188698  0.2456641808856475  0.24238647425556786  1.0000
  C   C72       1.0  0.804161269293509  0.7543399718956181  0.7576118628360647  1.0000
  C   C73       1.0  0.1257976193942838  0.08786147599971632  0.5722654823837698  1.0000
  C   C74       1.0  0.8742013362238198  0.9121434250358149  0.4277313273400338  1.0000
  C   C75       1.0  0.9673028071810847  0.16398673810410003  0.6575033901440293  1.0000
  C   C76       1.0  0.032699677171052606  0.8360128821417162  0.3424985598024151  1.0000
  C   C77       1.0  0.95682851372122  0.9998425079148844  0.621927475495255  1.0000
  C   C78       1.0  0.043171351419005105  0.00016014663640360024  0.37807017853661756  1.0000
  N   N1        1.0  0.26685451445973746  0.3043769917455278  0.2665139018754913  1.0000
  N   N2        1.0  0.733147036157547  0.6956241596369567  0.7334836791076143  1.0000
  N   N3        1.0  0.0213022174080493  0.0832317425799687  0.6166217884509635  1.0000
  N   N4        1.0  0.9786976565944132  0.9167709070325002  0.38337647559190197  1.0000
  O   O1        1.0  0.9548532389691644  0.3857446004320835  0.217158917416242  1.0000
  O   O2        1.0  0.04514420905024249  0.6142587892784521  0.7828427770762258  1.0000
  O   O3        1.0  0.49895016312509455  0.17813036031028423  0.3452073012638976  1.0000
  O   O4        1.0  0.5010498403302606  0.8218678441132142  0.6547887251883041  1.0000
  O   O5        1.0  0.5798533020767849  0.09175769359859488  0.4465440057307362  1.0000
  O   O6        1.0  0.42014104038255334  0.9082405372968482  0.5534556643112011  1.0000
  O   O7        1.0  0.2597822580257443  0.37555355864634526  0.859038723131384  1.0000
  O   O8        1.0  0.7402167088285693  0.6244506072863204  0.14095700198114264  1.0000
  O   O9        1.0  0.4712731230754059  0.05199684731786649  0.63769798088736  1.0000
  O   O10       1.0  0.5287196722220032  0.9479984366185976  0.3623001346236733  1.0000
  O   O11       1.0  0.3545035716308007  0.1319704142896754  0.5588739946347445  1.0000
  O   O12       1.0  0.6454908754350444  0.868025571786589  0.44112730166136765  1.0000
  O   O13       1.0  0.3261258386330042  0.6522571827975909  0.11769960212257762  1.0000
  O   O14       1.0  0.6738751919275006  0.34773798077293344  0.8823035041584076  1.0000
  O   O15       1.0  0.29717517383369346  0.8885148037342532  0.4127016889282444  1.0000
  O   O16       1.0  0.7028349844212087  0.11147508714635992  0.587298643908639  1.0000
  O   O17       1.0  0.3212647192281537  0.018817315175233794  0.2997295401068385  1.0000
  O   O18       1.0  0.678726571951188  0.9811808285428896  0.7002848479285503  1.0000
  O   O19       1.0  0.2568386206304751  0.2002624121070937  0.398844212428763  1.0000
  O   O20       1.0  0.7431629814199001  0.7997365240891339  0.6011513347425036  1.0000
  O   O21       1.0  0.1763278191040598  0.022915186568781106  0.5326635429518234  1.0000
  O   O22       1.0  0.823669558017464  0.9770882426523285  0.46733327145263814  1.0000
