data_image0
_chemical_formula_structural       Gd2H20C16S2O20
_chemical_formula_sum              "Gd2 H20 C16 S2 O20"
_cell_length_a       7.714961657568413
_cell_length_b       8.51225520770367
_cell_length_c       10.52467747178368
_cell_angle_alpha    71.49108933390218
_cell_angle_beta     87.58693276568391
_cell_angle_gamma    67.85657430884368

_space_group_name_H-M_alt    "P 1"
_space_group_IT_number       1

loop_
  _space_group_symop_operation_xyz
  'x, y, z'

loop_
  _atom_site_type_symbol
  _atom_site_label
  _atom_site_symmetry_multiplicity
  _atom_site_fract_x
  _atom_site_fract_y
  _atom_site_fract_z
  _atom_site_occupancy
  Gd  Gd1       1.0  0.6791990987630643  0.2057631722269662  0.12235977371800288  1.0000
  Gd  Gd2       1.0  0.3208101669104127  0.794233232676305  0.8776421643274477  1.0000
  H   H1        1.0  0.22328617593694844  0.37841028638879937  0.7124967245456376  1.0000
  H   H2        1.0  0.77670019600005  0.6215986161351238  0.2874997907432262  1.0000
  H   H3        1.0  0.2767994644829415  0.7646874446215222  0.34845234768007327  1.0000
  H   H4        1.0  0.7231808789996494  0.23532026461542443  0.6515427492463746  1.0000
  H   H5        1.0  0.24542112012158418  0.17289338094457207  0.5875859606267541  1.0000
  H   H6        1.0  0.7545821886469923  0.8271084784106576  0.41241378852310373  1.0000
  H   H7        1.0  0.2378432729059128  0.6765886607808085  0.5933285570929598  1.0000
  H   H8        1.0  0.7621227530476846  0.32342602850167873  0.40666324692727335  1.0000
  H   H9        1.0  0.9446451892135601  0.3850044837179495  0.14048967105544116  1.0000
  H   H10       1.0  0.05535886633099816  0.6149920226470798  0.859507639877471  1.0000
  H   H11       1.0  0.7424287815314515  0.5467808380795561  0.0778540311108884  1.0000
  H   H12       1.0  0.25758081114171477  0.4532181878827403  0.9221415189569202  1.0000
  H   H13       1.0  0.08416540983778019  0.9257071662124832  0.13415406468252666  1.0000
  H   H14       1.0  0.9158402254052336  0.07429197921909748  0.8658463191561339  1.0000
  H   H15       1.0  0.07224577217009907  0.11503191418685081  0.04520964637476511  1.0000
  H   H16       1.0  0.9277619397924113  0.8849685390440811  0.9547960405565594  1.0000
  H   H17       1.0  0.9720707537783327  0.0674049483029222  0.3504977093501935  1.0000
  H   H18       1.0  0.027931205472171334  0.932596977312251  0.6495087126064832  1.0000
  H   H19       1.0  0.8050690782504689  0.031206898934890096  0.4340929030066719  1.0000
  H   H20       1.0  0.19492977037164402  0.9687964161137402  0.5659103987677199  1.0000
  C   C1        1.0  0.24107771971974057  0.4184078581736088  0.6052963392963023  1.0000
  C   C2        1.0  0.7589078623680338  0.5815997248170318  0.3946986395396834  1.0000
  C   C3        1.0  0.4134203550926543  0.08832018565104248  0.9683668152710824  1.0000
  C   C4        1.0  0.5865947959362005  0.9116641170613348  0.03163808220315196  1.0000
  C   C5        1.0  0.28687580093085785  0.5170111477505942  0.32909877062670034  1.0000
  C   C6        1.0  0.7131224905111894  0.4829868409125027  0.6709011734127586  1.0000
  C   C7        1.0  0.2791076003779338  0.348289906742103  0.398037181830752  1.0000
  C   C8        1.0  0.7208909725017706  0.6517107426353091  0.6019639665558786  1.0000
  C   C9        1.0  0.32296451501670026  0.5733486915361821  0.18450488495489747  1.0000
  C   C10       1.0  0.6770403075960659  0.4266491541897608  0.8154977585932954  1.0000
  C   C11       1.0  0.2690305224077321  0.6348582793734607  0.4007134510616411  1.0000
  C   C12       1.0  0.7309555680916023  0.36514796243614694  0.5992818598800584  1.0000
  C   C13       1.0  0.2548869733151519  0.3008797797795495  0.5349970651476214  1.0000
  C   C14       1.0  0.7451084832408983  0.6991222639882295  0.46500191209732844  1.0000
  C   C15       1.0  0.24807885122258008  0.5853006552450565  0.5382180817548348  1.0000
  C   C16       1.0  0.7518957395480046  0.41470852637614536  0.46177775019697265  1.0000
  S   S1        1.0  0.28117852133021876  0.19924586492677315  0.309714974338796  1.0000
  S   S2        1.0  0.7188231792636444  0.800753380146446  0.6902864471083137  1.0000
  O   O1        1.0  0.1641160574932954  0.3129074601094217  0.18385193928407523  1.0000
  O   O2        1.0  0.835887980965502  0.6870890611263363  0.8161482187706356  1.0000
  O   O3        1.0  0.20539920701684622  0.0706404802750384  0.39703455204927723  1.0000
  O   O4        1.0  0.794603001988584  0.929357423617148  0.6029672015035389  1.0000
  O   O5        1.0  0.44651061936431097  0.4627320542909459  0.13854240505931162  1.0000
  O   O6        1.0  0.5535004529815238  0.5372629877835351  0.861461733650437  1.0000
  O   O7        1.0  0.47865977503754925  0.10487699318623099  0.2862372622415634  1.0000
  O   O8        1.0  0.521344252030744  0.8951195379633463  0.7137647938943491  1.0000
  O   O9        1.0  0.42041996829996725  0.22873959344151726  0.9809975229064068  1.0000
  O   O10       1.0  0.5795930050487427  0.7712607137154633  0.01900424977205266  1.0000
  O   O11       1.0  0.8100897595002012  0.4150843377623161  0.11551872280380589  1.0000
  O   O12       1.0  0.18991819652197972  0.5849120987025244  0.8844832447642619  1.0000
  O   O13       1.0  0.015929268783629904  0.05615834907209211  0.12105441935823084  1.0000
  O   O14       1.0  0.9840820736093507  0.9438393636305163  0.8789528217798908  1.0000
  O   O15       1.0  0.8415619764324023  0.07598900394351916  0.3422592940016998  1.0000
  O   O16       1.0  0.15843583828082336  0.9240170083379127  0.6577461906830782  1.0000
  O   O17       1.0  0.2333643694996114  0.7353206373718423  0.11003743335056265  1.0000
  O   O18       1.0  0.7666477595361202  0.2646716876421991  0.8899607262863967  1.0000
  O   O19       1.0  0.2791909332080067  0.07762620369764049  0.9104845675959584  1.0000
  O   O20       1.0  0.7208253004982483  0.9223620693485086  0.08952117259711656  1.0000
