data_image0
_chemical_formula_structural       Ni12H72C120N12O52
_chemical_formula_sum              "Ni12 H72 C120 N12 O52"
_cell_length_a       18.47909270983214
_cell_length_b       18.47907679968724
_cell_length_c       18.478761433829686
_cell_angle_alpha    109.46988805865072
_cell_angle_beta     109.47046938310456
_cell_angle_gamma    109.47069423049608

_space_group_name_H-M_alt    "P 1"
_space_group_IT_number       1

loop_
  _space_group_symop_operation_xyz
  'x, y, z'

loop_
  _atom_site_type_symbol
  _atom_site_label
  _atom_site_symmetry_multiplicity
  _atom_site_fract_x
  _atom_site_fract_y
  _atom_site_fract_z
  _atom_site_occupancy
  Ni  Ni1       1.0  0.3572869404214886  0.46482323279871457  0.35728859650289024  1.0000
  Ni  Ni2       1.0  0.6427167280983426  3.712868640133561e-06  0.10752674988559364  1.0000
  Ni  Ni3       1.0  0.8924458615085414  0.5351591981414642  0.8924468507923821  1.0000
  Ni  Ni4       1.0  0.10755498294696499  7.34281334042009e-06  0.642706842842287  1.0000
  Ni  Ni5       1.0  0.9999906789547456  0.642701019825097  0.10753415047285857  1.0000
  Ni  Ni6       1.0  0.5351672309000435  0.8924515352157769  0.8924580083835353  1.0000
  Ni  Ni7       1.0  2.793563794375112e-06  0.10753581255076475  0.6427146404495048  1.0000
  Ni  Ni8       1.0  0.4648159733344031  0.3572729320816777  0.35729331837008266  1.0000
  Ni  Ni9       1.0  0.8924648193084157  0.8924673947433279  0.5351732029752444  1.0000
  Ni  Ni10      1.0  0.642706379760753  0.10753739079330414  0.9999900572160528  1.0000
  Ni  Ni11      1.0  0.3572828789298299  0.35728801995861653  0.464833249309379  1.0000
  Ni  Ni12      1.0  0.10751985702565767  0.6427130917946614  0.999991105639957  1.0000
  H   H1        1.0  0.41576020039983774  0.5620225698627834  0.704665590953404  1.0000
  H   H2        1.0  0.5842389407265857  0.2888753385643099  0.1462592032805646  1.0000
  H   H3        1.0  0.1426477711600356  0.4379730207807242  0.8537583291917414  1.0000
  H   H4        1.0  0.8573561027279697  0.7111246620151022  0.29532779386641306  1.0000
  H   H5        1.0  0.7111146085759046  0.2953545519560946  0.8573808561827931  1.0000
  H   H6        1.0  0.4379826762763275  0.8537444192937826  0.1426603827306679  1.0000
  H   H7        1.0  0.28888081321866116  0.14625874161171742  0.5842096686384154  1.0000
  H   H8        1.0  0.5620181824562637  0.7046629571098039  0.4157611460536331  1.0000
  H   H9        1.0  0.853746316902573  0.1426330790770792  0.4379642233914256  1.0000
  H   H10       1.0  0.2953539477093728  0.8573861563275358  0.7111268786102444  1.0000
  H   H11       1.0  0.7046618817556549  0.41578075811820275  0.5620296742675637  1.0000
  H   H12       1.0  0.14625503497927642  0.5842250079049833  0.2888855259391931  1.0000
  H   H13       1.0  0.41578413610108816  0.7046730971982811  0.5620375322493132  1.0000
  H   H14       1.0  0.584220374871201  0.14624343653530764  0.28890385166649685  1.0000
  H   H15       1.0  0.14262363654147245  0.8537607923268666  0.43796675232955107  1.0000
  H   H16       1.0  0.8573923813336322  0.2953662665993662  0.7111297992120739  1.0000
  H   H17       1.0  0.711133447332735  0.8573729969138953  0.2953457861321809  1.0000
  H   H18       1.0  0.4379794061153459  0.14264490899222432  0.8537584075614362  1.0000
  H   H19       1.0  0.2889069310938694  0.5842534466426912  0.14625982831313417  1.0000
  H   H20       1.0  0.5620414229235138  0.4157897216029908  0.7046725723968167  1.0000
  H   H21       1.0  0.8537540124289082  0.4379662007279352  0.14264311437005273  1.0000
  H   H22       1.0  0.2953631287081038  0.7111128602939586  0.8573900617525823  1.0000
  H   H23       1.0  0.7046553119773192  0.5620241893848997  0.4157580301360824  1.0000
  H   H24       1.0  0.1462405238254476  0.2888817567399897  0.5842073461463215  1.0000
  H   H25       1.0  0.35506307582775787  0.2127437975989395  0.08334998554438042  1.0000
  H   H26       1.0  0.6449441032628157  0.7282741558801432  0.8576886315606345  1.0000
  H   H27       1.0  0.8706036727027637  0.7872470437240366  0.1423204860690745  1.0000
  H   H28       1.0  0.12939399725440373  0.27170856812445976  0.9166509019591375  1.0000
  H   H29       1.0  0.27171264942084883  0.9166476671014295  0.12940739896750844  1.0000
  H   H30       1.0  0.7872434577517708  0.1423067545035649  0.8706104291832163  1.0000
  H   H31       1.0  0.7282663521375883  0.8576754150162743  0.6449326662097549  1.0000
  H   H32       1.0  0.2127362944898081  0.08333872550320359  0.3550684006255764  1.0000
  H   H33       1.0  0.14231043928765527  0.870604910325909  0.7872500199971242  1.0000
  H   H34       1.0  0.9166539540575231  0.12940896357442713  0.2717117121266811  1.0000
  H   H35       1.0  0.08335249587219805  0.3550686831537887  0.21274921200875946  1.0000
  H   H36       1.0  0.8576770640851097  0.6449304836208753  0.72826398754939  1.0000
  H   H37       1.0  0.3550664350845595  0.08333901708044068  0.21275851210901217  1.0000
  H   H38       1.0  0.6449098621234769  0.8576752283071656  0.7282806034559074  1.0000
  H   H39       1.0  0.8705889009743901  0.14229589444639146  0.7872537409541139  1.0000
  H   H40       1.0  0.12938627505432995  0.9166458395497088  0.27171668066098675  1.0000
  H   H41       1.0  0.271721591057883  0.1293998432394403  0.9166500025815837  1.0000
  H   H42       1.0  0.7872537033781912  0.8705917929687813  0.14231007916768607  1.0000
  H   H43       1.0  0.7282950877116863  0.6449244568224799  0.8576867392287683  1.0000
  H   H44       1.0  0.21273824872888278  0.3550572775339091  0.08334660995613774  1.0000
  H   H45       1.0  0.14230098873006378  0.7872444518233409  0.8705911019166451  1.0000
  H   H46       1.0  0.9166584705334914  0.27172392643142745  0.12938831331370448  1.0000
  H   H47       1.0  0.08334146672602569  0.21274985875371744  0.3550651276564807  1.0000
  H   H48       1.0  0.8576822098600233  0.728299892843623  0.6449263765943414  1.0000
  H   H49       1.0  0.46126713910729233  0.7015206117585393  0.8382873303787621  1.0000
  H   H50       1.0  0.5387133834896574  0.37697298406427393  0.24024149987813817  1.0000
  H   H51       1.0  0.13675682197555267  0.29846944017784693  0.759752994974079  1.0000
  H   H52       1.0  0.8632475096977076  0.6229905345806587  0.16171622072208441  1.0000
  H   H53       1.0  0.6230084586390561  0.16172953583073718  0.8632637352842637  1.0000
  H   H54       1.0  0.2984754325715215  0.7597539065821195  0.13677167272042826  1.0000
  H   H55       1.0  0.3770073209657738  0.2402629711952926  0.5387138327229195  1.0000
  H   H56       1.0  0.7015171479833244  0.8382843476857502  0.46126012270880806  1.0000
  H   H57       1.0  0.7597389799262332  0.1367515345990712  0.2984633149279078  1.0000
  H   H58       1.0  0.16173122757319203  0.8632534845695973  0.6229972695515259  1.0000
  H   H59       1.0  0.8382795466420488  0.4612819349556644  0.7015240443439978  1.0000
  H   H60       1.0  0.24024841935639785  0.5387110862011966  0.377002706510325  1.0000
  H   H61       1.0  0.46129773511807304  0.8382949785732804  0.701545033665127  1.0000
  H   H62       1.0  0.5387136160651664  0.2402367362677538  0.3770171229403304  1.0000
  H   H63       1.0  0.13675010562963769  0.759743877468523  0.29847172976678144  1.0000
  H   H64       1.0  0.863252588001572  0.1617363308370656  0.6230016178504699  1.0000
  H   H65       1.0  0.6230125528498294  0.8632540483458654  0.16172207210917125  1.0000
  H   H66       1.0  0.29847771068642004  0.13675180636402484  0.7597403484720432  1.0000
  H   H67       1.0  0.37701366806805947  0.538730348927956  0.24024843745107913  1.0000
  H   H68       1.0  0.7015328487767789  0.4612898391152527  0.8382942847014974  1.0000
  H   H69       1.0  0.7597556525006014  0.29846690919837465  0.1367678415413565  1.0000
  H   H70       1.0  0.16173406761474485  0.6230124204725128  0.8632707205493659  1.0000
  H   H71       1.0  0.8382715241771881  0.7015284209937607  0.461263340926408  1.0000
  H   H72       1.0  0.24023613433142546  0.377006726874292  0.538708751380355  1.0000
  C   C1        1.0  0.3918197399368495  0.5436301233752374  0.5436259381979269  1.0000
  C   C2        1.0  0.608167521347369  0.1517811781676244  0.15180424270161552  1.0000
  C   C3        1.0  2.2233396620652396e-05  0.45638870515783475  0.8482139153757587  1.0000
  C   C4        1.0  0.9999820664185606  0.848192083957599  0.4563541777076098  1.0000
  C   C5        1.0  0.8482097636582964  0.45638182488017504  2.4989082824227698e-05  1.0000
  C   C6        1.0  0.45637334540823105  0.8481968237648729  7.538824704154744e-06  1.0000
  C   C7        1.0  0.15178984093050477  0.15178901765168015  0.6081528180467259  1.0000
  C   C8        1.0  0.5436210865100861  0.5436312569852504  0.39181485128140997  1.0000
  C   C9        1.0  0.8482096045886678  0.9999987333124734  0.4563700878132907  1.0000
  C   C10       1.0  0.4563809890724855  9.207317191279051e-06  0.8481996380265358  1.0000
  C   C11       1.0  0.5436241633638518  0.39183290120571723  0.5436238349436382  1.0000
  C   C12       1.0  0.15181175705274802  0.6081835506807138  0.1518153814453669  1.0000
  C   C13       1.0  0.41369559531486993  0.62367687706638  0.6236824788961641  1.0000
  C   C14       1.0  0.5863041366304531  0.20995902421529417  0.20999529966970704  1.0000
  C   C15       1.0  1.1987798742929144e-05  0.37633588909275767  0.7900322595985615  1.0000
  C   C16       1.0  0.9999932053222483  0.7900336641782247  0.37631020985242014  1.0000
  C   C17       1.0  0.790024484737096  0.37633086798827264  1.2826208575319424e-05  1.0000
  C   C18       1.0  0.3763329148109948  0.7900213191630883  1.8640390756419546e-05  1.0000
  C   C19       1.0  0.20996641286820508  0.2099749867736165  0.5862882760049288  1.0000
  C   C20       1.0  0.6236738239442234  0.6236799886159617  0.4136880962503896  1.0000
  C   C21       1.0  0.7900391954200642  8.089550135469016e-06  0.37632104955699225  1.0000
  C   C22       1.0  0.3763308908661286  3.3833492735595637e-06  0.790021230412286  1.0000
  C   C23       1.0  0.6236723142343622  0.41370697690845754  0.6236798441522637  1.0000
  C   C24       1.0  0.20999150385806342  0.5863084047401018  0.20998805393257675  1.0000
  C   C25       1.0  0.42470241031387  0.6220376465450316  0.7016422869904704  1.0000
  C   C26       1.0  0.5752933060570841  0.2769145417293758  0.19734129609620518  1.0000
  C   C27       1.0  0.07959622493653029  0.3779571363266925  0.8026725965924726  1.0000
  C   C28       1.0  0.920398418000268  0.72308554086014  0.2983583786185164  1.0000
  C   C29       1.0  0.7230850837246409  0.29838793135677827  0.9204299220449812  1.0000
  C   C30       1.0  0.37796960333834323  0.8026737132683693  0.0796218233349536  1.0000
  C   C31       1.0  0.2769139430880189  0.19733249143170897  0.5752748829428287  1.0000
  C   C32       1.0  0.6220340190502611  0.7016421813810751  0.4247056173931368  1.0000
  C   C33       1.0  0.8026787369908421  0.0795959547524703  0.3779532062195302  1.0000
  C   C34       1.0  0.2983845288568931  0.9204197878469955  0.7230892616463365  1.0000
  C   C35       1.0  0.701632304427527  0.42471472529311455  0.6220448085524597  1.0000
  C   C36       1.0  0.19733081445776435  0.5752838536141809  0.27692861942063735  1.0000
  C   C37       1.0  0.42471226390473765  0.701634589779374  0.6220464777509065  1.0000
  C   C38       1.0  0.5752925155572088  0.1973160571929142  0.2769328304124344  1.0000
  C   C39       1.0  0.07958838369575026  0.8026815353971202  0.377950784240447  1.0000
  C   C40       1.0  0.9204205644778726  0.2983880397445945  0.7230893130123945  1.0000
  C   C41       1.0  0.723096629066369  0.9204143272201007  0.2983728066530347  1.0000
  C   C42       1.0  0.377962049999425  0.0796001424764156  0.8026690272883386  1.0000
  C   C43       1.0  0.27693742736697413  0.5753073302328957  0.1973413325568246  1.0000
  C   C44       1.0  0.6220472477019285  0.42472274648486064  0.7016391070598758  1.0000
  C   C45       1.0  0.8026751713086356  0.3779566539548043  0.07961089627389144  1.0000
  C   C46       1.0  0.29839267597273517  0.7230836865791374  0.9204327592249939  1.0000
  C   C47       1.0  0.7016293819166466  0.6220414701257226  0.42469407912033585  1.0000
  C   C48       1.0  0.19732815367130024  0.2769222300961402  0.5752845736896646  1.0000
  C   C49       1.0  0.3060701196401966  0.2255760111587293  0.04606627549930662  1.0000
  C   C50       1.0  0.6939347314906997  0.7399768139224464  0.9195084278870952  1.0000
  C   C51       1.0  0.8204972659592262  0.7744093859774852  0.08049169875685214  1.0000
  C   C52       1.0  0.17950805513576287  0.26000209642564454  0.9539313037857654  1.0000
  C   C53       1.0  0.2600002210795652  0.9539300933742396  0.17951982557197985  1.0000
  C   C54       1.0  0.7744085573638416  0.08047963479194212  0.820490367023517  1.0000
  C   C55       1.0  0.7399752301035819  0.9194999209292194  0.6939264601409506  1.0000
  C   C56       1.0  0.22557371822902178  0.04605987432592678  0.30608393135981515  1.0000
  C   C57       1.0  0.08049331233710422  0.8204944020184328  0.7744162559537031  1.0000
  C   C58       1.0  0.9539379329948477  0.17951772394517462  0.26000007923158835  1.0000
  C   C59       1.0  0.04607276603348251  0.3060822707215678  0.22558264506434972  1.0000
  C   C60       1.0  0.9194981068890871  0.693922832277252  0.73997983218689  1.0000
  C   C61       1.0  0.3060725328416396  0.04606556522035994  0.22559301414871413  1.0000
  C   C62       1.0  0.6939023299136267  0.9194923985699006  0.7399870579125576  1.0000
  C   C63       1.0  0.8204749271668348  0.08047930123905898  0.7744214280054396  1.0000
  C   C64       1.0  0.17950598137909438  0.9539342795777089  0.2600173948992293  1.0000
  C   C65       1.0  0.2600059210500163  0.17951174266908507  0.9539296434454981  1.0000
  C   C66       1.0  0.7744268814675551  0.8204840455246014  0.08048848525066181  1.0000
  C   C67       1.0  0.7399977457283596  0.6939153301976049  0.9195042123124112  1.0000
  C   C68       1.0  0.22557359303115734  0.3060677042312605  0.04606525722206102  1.0000
  C   C69       1.0  0.08048299711826697  0.7744223155447969  0.8204777712132839  1.0000
  C   C70       1.0  0.9539316358680666  0.26001248777812697  0.17950311500301577  1.0000
  C   C71       1.0  0.04606295674784631  0.22558266769306098  0.30606971029305197  1.0000
  C   C72       1.0  0.9195072720458412  0.7400037103191507  0.6939204157426959  1.0000
  C   C73       1.0  0.2887202925586295  0.2887148351539608  0.09244187113836233  1.0000
  C   C74       1.0  0.7112898232129443  0.8037163729725877  4.616338301968692e-06  1.0000
  C   C75       1.0  0.8037314885262534  0.7112681382057603  7.4429580722455575e-06  1.0000
  C   C76       1.0  0.19628050098511096  0.19627462365129839  0.9075512686274579  1.0000
  C   C77       1.0  0.19627383697618933  0.9075544171016999  0.19628127049607977  1.0000
  C   C78       1.0  0.7112551605320335  0.9999896554320952  0.8037148757317496  1.0000
  C   C79       1.0  0.8037066775671208  0.9999916229614811  0.7112750687429357  1.0000
  C   C80       1.0  0.28871932880245776  0.09243735892107446  0.2887293559007489  1.0000
  C   C81       1.0  2.4860809020625387e-06  0.803728999309918  0.7112675216388952  1.0000
  C   C82       1.0  0.9075566277506085  0.19628260027316452  0.19626435999553854  1.0000
  C   C83       1.0  0.0924477195890391  0.2887271393049461  0.28872502507571346  1.0000
  C   C84       1.0  0.9999839492950714  0.7112691429174801  0.8037052502901574  1.0000
  C   C85       1.0  0.4496898484496513  0.6986537470340295  0.7754285761206532  1.0000
  C   C86       1.0  0.5502957061650234  0.3257075551443123  0.24895704647307332  1.0000
  C   C87       1.0  0.07677932822849694  0.3013429806438026  0.7510456652603353  1.0000
  C   C88       1.0  0.9232272235588257  0.6742684698579569  0.22456792155178842  1.0000
  C   C89       1.0  0.6742797389301743  0.2245819740697146  0.9232492469754947  1.0000
  C   C90       1.0  0.3013486511411827  0.751044676596166  0.07678556149218711  1.0000
  C   C91       1.0  0.3257162945239855  0.2489630315257045  0.5502910311250276  1.0000
  C   C92       1.0  0.6986533777940593  0.7754327696323883  0.4496891438839938  1.0000
  C   C93       1.0  0.7510412954666421  0.0767622680354876  0.30133479287770387  1.0000
  C   C94       1.0  0.22459046362386192  0.923249379724261  0.6742839365143212  1.0000
  C   C95       1.0  0.7754272570596328  0.44970063523651765  0.6986560056749698  1.0000
  C   C96       1.0  0.24895986498766842  0.5502912211070737  0.3257205202788286  1.0000
  C   C97       1.0  0.44970508803955067  0.775436617017121  0.6986690651955314  1.0000
  C   C98       1.0  0.5502976781163014  0.24895051273158947  0.32573520731397565  1.0000
  C   C99       1.0  0.07676343045362453  0.7510427538882354  0.3013385598014225  1.0000
  C   C100      1.0  0.9232481905623473  0.2245976257243425  0.6742897304309211  1.0000
  C   C101      1.0  0.6742821117114206  0.9232355976080271  0.22457046739287292  1.0000
  C   C102      1.0  0.30135012394894284  0.07677851508450566  0.7510388269072765  1.0000
  C   C103      1.0  0.3257476178752583  0.5503093091890037  0.248972071505385  1.0000
  C   C104      1.0  0.6986649701502047  0.4497080130614749  0.7754281988163287  1.0000
  C   C105      1.0  0.7510511031341596  0.3013439223111689  0.07677960750131536  1.0000
  C   C106      1.0  0.22458728175018897  0.6742847698535712  0.9232577752770864  1.0000
  C   C107      1.0  0.7754224732437295  0.6986639071613326  0.44968497691334625  1.0000
  C   C108      1.0  0.2489559899795636  0.3257340571409485  0.5502972312639471  1.0000
  C   C109      1.0  0.3366974969198041  0.33669568035500674  0.19171996374883102  1.0000
  C   C110      1.0  0.6633109434456372  0.8550222404720954  0.9999986270040181  1.0000
  C   C111      1.0  0.8550349644269918  0.6632970928344265  1.3323027566727805e-05  1.0000
  C   C112      1.0  0.1449700153997852  0.14496712283740004  0.8082723128274978  1.0000
  C   C113      1.0  0.14497032371563992  0.808279338967111  0.14498262723037675  1.0000
  C   C114      1.0  0.6632741577840092  0.9999834673832735  0.8550085644362396  1.0000
  C   C115      1.0  0.8550026695994006  0.999983003956437  0.6632949350297537  1.0000
  C   C116      1.0  0.33669032547938843  0.19171568184862064  0.3366964551958703  1.0000
  C   C117      1.0  7.121220804358836e-07  0.8550202940664988  0.6632813677810248  1.0000
  C   C118      1.0  0.8082845871599033  0.1449777670064662  0.14496179081512398  1.0000
  C   C119      1.0  0.19172641717165814  0.33670753009483423  0.3366943450182376  1.0000
  C   C120      1.0  8.01561142717558e-07  0.6633044489623713  0.8550191338267367  1.0000
  N   N1        1.0  0.46382112363713934  0.7743933710687971  0.7743912378591136  1.0000
  N   N2        1.0  0.5361688806995347  0.31054855082059163  0.3105711361479494  1.0000
  N   N3        1.0  1.8451730937872403e-05  0.22562549148543817  0.6894466792094818  1.0000
  N   N4        1.0  0.9999959259881024  0.689426230990513  0.22560731409713256  1.0000
  N   N5        1.0  0.6894391684507752  0.2256084765841422  7.5411438303221364e-06  1.0000
  N   N6        1.0  0.2256101574256705  0.6894447536024019  1.7346280877541867e-05  1.0000
  N   N7        1.0  0.3105551696577962  0.3105745980572792  0.5361684787265446  1.0000
  N   N8        1.0  0.7743894743562268  0.77439555110675  0.46381328602679184  1.0000
  N   N9        1.0  0.6894321328614836  0.9999919723112711  0.2255967083994365  1.0000
  N   N10       1.0  0.22562390768319315  1.1919349219590764e-05  0.6894331957487269  1.0000
  N   N11       1.0  0.7743925536104539  0.4638246622441356  0.7743858105180833  1.0000
  N   N12       1.0  0.31058083595078056  0.5361709181633785  0.3105632834729448  1.0000
  O   O1        1.0  0.4001012896492  0.4001106740656155  0.40011462027288763  1.0000
  O   O2        1.0  0.599883646126969  0.9999975006214753  0.9999877802382855  1.0000
  O   O3        1.0  0.9999770903746636  0.5998747744969962  0.9999862266748922  1.0000
  O   O4        1.0  7.931934909913706e-06  0.99999274899983  0.599889608092326  1.0000
  O   O5        1.0  0.3837247419632774  0.5522651579014877  0.4765298404350133  1.0000
  O   O6        1.0  0.6162096673687429  0.09274371657511442  0.16849593161073537  1.0000
  O   O7        1.0  0.9242862550385524  0.447739275071335  0.8315013411081297  1.0000
  O   O8        1.0  0.07571753881047998  0.9071965482124895  0.5234517802196308  1.0000
  O   O9        1.0  0.9072270754833698  0.5234569246982871  0.07574995629045854  1.0000
  O   O10       1.0  0.44770374122519724  0.8314889668493419  0.9242671010458493  1.0000
  O   O11       1.0  0.09278344720091514  0.16850669345264885  0.6162425711975317  1.0000
  O   O12       1.0  0.5522560029669279  0.4765327925560429  0.3837211975787369  1.0000
  O   O13       1.0  0.8314829699409715  0.9242678304922549  0.44773091690608885  1.0000
  O   O14       1.0  0.5234521168377315  0.07574728099118755  0.9072386791441006  1.0000
  O   O15       1.0  0.47652884721736644  0.3837398108124858  0.5522623123171329  1.0000
  O   O16       1.0  0.1685161378146136  0.6162508644814937  0.09278526277336141  1.0000
  O   O17       1.0  0.38377515406750007  0.47655138612034154  0.5522828451283316  1.0000
  O   O18       1.0  0.6162582722218348  0.16851740139351531  0.09279828555686737  1.0000
  O   O19       1.0  0.9242548454884701  0.8314910069894738  0.44771102190814116  1.0000
  O   O20       1.0  0.07574831333730714  0.5234773201245774  0.907226464407117  1.0000
  O   O21       1.0  0.9072299084805165  0.07572579409332295  0.523449525835126  1.0000
  O   O22       1.0  0.4477481546587114  0.9242825857780445  0.8314675918665131  1.0000
  O   O23       1.0  0.09279784597766381  0.6162504164493823  0.168532658299803  1.0000
  O   O24       1.0  0.5522793903780328  0.38378377727589463  0.4765430443691232  1.0000
  O   O25       1.0  0.8314940369628232  0.44773660906251667  0.9242841684712815  1.0000
  O   O26       1.0  0.5234710617296445  0.907200484066344  0.07573013313150773  1.0000
  O   O27       1.0  0.47654401794090284  0.5522882539699837  0.38377420139894286  1.0000
  O   O28       1.0  0.16850210336873767  0.09275525204864721  0.6161983569998384  1.0000
  O   O29       1.0  0.3175046953064823  0.3927165273757041  0.2293485349968876  1.0000
  O   O30       1.0  0.6825678520674006  0.9119077044646248  0.0752083861458815  1.0000
  O   O31       1.0  0.8366544494082219  0.6072946508044054  0.9247941708094204  1.0000
  O   O32       1.0  0.16337154483636607  0.08815434035793866  0.7706425132500243  1.0000
  O   O33       1.0  0.08814103325482853  0.7706545390765952  0.16335929774393074  1.0000
  O   O34       1.0  0.6073182684454393  0.9247733063736019  0.8366647167639769  1.0000
  O   O35       1.0  0.9118150729139886  0.07518711609322543  0.6824747560736102  1.0000
  O   O36       1.0  0.3926975135185415  0.22933425901111798  0.3174906171348867  1.0000
  O   O37       1.0  0.9247957338665674  0.8366303083873492  0.6072632308875755  1.0000
  O   O38       1.0  0.7706598255305295  0.1633040718783292  0.08807556258330627  1.0000
  O   O39       1.0  0.22935429816114805  0.31751346023364846  0.3927114368389368  1.0000
  O   O40       1.0  0.07520836556836484  0.6825178904725462  0.9118552081247131  1.0000
  O   O41       1.0  0.3174673545799536  0.22934275924659892  0.3926841162634105  1.0000
  O   O42       1.0  0.6824452530873162  0.07519443175323935  0.9118063261698027  1.0000
  O   O43       1.0  0.8366536450051361  0.9247752906923312  0.6073177047726833  1.0000
  O   O44       1.0  0.16333862724579262  0.7706545661067848  0.08813139378357003  1.0000
  O   O45       1.0  0.08810274427992952  0.16330977738336844  0.7706526855149606  1.0000
  O   O46       1.0  0.6072682607996926  0.8366002864414315  0.9247891336500659  1.0000
  O   O47       1.0  0.9118664522311877  0.6825078525551617  0.07521665433220202  1.0000
  O   O48       1.0  0.3926818137677445  0.3174700709446086  0.22934573728746  1.0000
  O   O49       1.0  0.9247917436660346  0.6073023503791789  0.8366465883541637  1.0000
  O   O50       1.0  0.770656501811317  0.0881814468974368  0.16337232286845457  1.0000
  O   O51       1.0  0.2293472403260921  0.39269131829375675  0.317462358221519  1.0000
  O   O52       1.0  0.07521412324538801  0.9118734640759953  0.6825106500710377  1.0000
