data_image0
_chemical_formula_structural       Al4H64C100N12Cl4O32
_chemical_formula_sum              "Al4 H64 C100 N12 Cl4 O32"
_cell_length_a       6.588311262249196
_cell_length_b       28.224679839145157
_cell_length_c       31.76797066294954
_cell_angle_alpha    77.9518168025395
_cell_angle_beta     90.62122803583138
_cell_angle_gamma    90.0010124320257

_space_group_name_H-M_alt    "P 1"
_space_group_IT_number       1

loop_
  _space_group_symop_operation_xyz
  'x, y, z'

loop_
  _atom_site_type_symbol
  _atom_site_label
  _atom_site_symmetry_multiplicity
  _atom_site_fract_x
  _atom_site_fract_y
  _atom_site_fract_z
  _atom_site_occupancy
  Al  Al1       1.0  0.09929361735949271  0.4983408668954326  0.4992171679446926  1.0000
  Al  Al2       1.0  0.5984493160086402  0.5025470223155892  0.4983389433259403  1.0000
  Al  Al3       1.0  0.7129920894038762  0.0023662836671221  0.00038115335593859995  1.0000
  Al  Al4       1.0  0.21263180123116854  0.9973876326374338  0.0022739119692261073  1.0000
  H   H1        1.0  0.18962865873621843  0.6044519418156186  0.3966270055033333  1.0000
  H   H2        1.0  0.20838828683090335  0.6709474366192866  0.330202558561318  1.0000
  H   H3        1.0  0.5568092077602032  0.6729168639857334  0.3205430112268174  1.0000
  H   H4        1.0  0.5394894544420767  0.6081277558259472  0.388296597350262  1.0000
  H   H5        1.0  0.2188565795919857  0.8054609298293444  0.16301030712841677  1.0000
  H   H6        1.0  0.24504906835950646  0.8734086249563549  0.09835551154135659  1.0000
  H   H7        1.0  0.6459689717311791  0.9211308704851792  0.12286060835323548  1.0000
  H   H8        1.0  0.8082132982400767  0.8199168141707888  0.6435200337003761  1.0000
  H   H9        1.0  0.8244348007357872  0.8747510015955984  0.6971442725014894  1.0000
  H   H10       1.0  0.9776856338952272  0.680491491508647  0.8577616914794459  1.0000
  H   H11       1.0  0.9513432610012132  0.6255217221715127  0.8043536648985564  1.0000
  H   H12       1.0  0.2533356218879987  0.8460579730568939  0.867133258325623  1.0000
  H   H13       1.0  0.27237529132012384  0.8988931110322511  0.9214973328639147  1.0000
  H   H14       1.0  0.6315393409154736  0.9259651688733187  0.9069193399775768  1.0000
  H   H15       1.0  0.6129980154278983  0.8750268860414964  0.8509733044561612  1.0000
  H   H16       1.0  0.561531879828266  0.6652001483925716  0.620464742416587  1.0000
  H   H17       1.0  0.5627627567017016  0.6110154376847775  0.5678085216493826  1.0000
  H   H18       1.0  0.15761074575553377  0.6122772924769251  0.6643075798987397  1.0000
  H   H19       1.0  0.7886380251961428  0.21334989733826148  0.33480711884615016  1.0000
  H   H20       1.0  0.06798793973376151  0.28968601591790133  0.16365037517316944  1.0000
  H   H21       1.0  0.066566408124956  0.33493349053932764  0.3777593114013342  1.0000
  H   H22       1.0  0.053858065262133416  0.39230953727209783  0.4280663352999098  1.0000
  H   H23       1.0  0.6771805429613523  0.4305513490063931  0.4013565612293987  1.0000
  H   H24       1.0  0.6894448960832734  0.37538967242984  0.3491615154875376  1.0000
  H   H25       1.0  0.1566125837086716  0.11665380347692893  0.16037595661882154  1.0000
  H   H26       1.0  0.1544918081145426  0.06319842489651961  0.10638261209873427  1.0000
  H   H27       1.0  0.7478387675071404  0.11517417806307152  0.06441968161890797  1.0000
  H   H28       1.0  0.6646107494604081  0.30322135008925954  0.6554250700537023  1.0000
  H   H29       1.0  0.07088817562606661  0.3474878882728944  0.6887357703354624  1.0000
  H   H30       1.0  0.0664250636191923  0.4115884389962901  0.6213048486703909  1.0000
  H   H31       1.0  0.7486499166678727  0.09396536043716715  0.8805950317426576  1.0000
  H   H32       1.0  0.12492663390698772  0.19288574224646743  0.8451803633886286  1.0000
  H   H33       1.0  0.7516846989847467  0.3139954263183641  0.2425657459948951  1.0000
  H   H34       1.0  0.775392820451586  0.31686991540333753  0.18604057786605205  1.0000
  H   H35       1.0  0.7240625142642757  0.406419003518586  0.17201895022297714  1.0000
  H   H36       1.0  0.5153721916825093  0.3738529389921652  0.19768896575698136  1.0000
  H   H37       1.0  0.6350676267625063  0.39031795465344743  0.26939349812268176  1.0000
  H   H38       1.0  0.5935119369026367  0.44504671450454236  0.23119993836289854  1.0000
  H   H39       1.0  0.8450262847226712  0.42274468159423867  0.2439143372109882  1.0000
  H   H40       1.0  0.5844064130239844  0.3641549813863065  0.5262228946984562  1.0000
  H   H41       1.0  0.6257947792856839  0.3070829238139439  0.5623364800594075  1.0000
  H   H42       1.0  0.9602876027953188  0.3767017769638271  0.5202177674323635  1.0000
  H   H43       1.0  0.001537155614293793  0.32176817557756726  0.5577632570719258  1.0000
  H   H44       1.0  0.832300890235267  0.275837280298191  0.506086154975989  1.0000
  H   H45       1.0  0.04089612465726591  0.3103449521215111  0.48160177875974597  1.0000
  H   H46       1.0  0.789228557989219  0.3312787545558322  0.4688621997467166  1.0000
  H   H47       1.0  0.6779178157575033  0.12270446097362249  0.764565569008006  1.0000
  H   H48       1.0  0.8435029589061216  0.0900955107061989  0.8058840502320377  1.0000
  H   H49       1.0  0.9652852827157546  0.17909998445819036  0.7378162774321948  1.0000
  H   H50       1.0  0.12944344891477041  0.14339051786613774  0.7764174770175953  1.0000
  H   H51       1.0  0.0626908780640605  0.07076017218943059  0.7426391933297933  1.0000
  H   H52       1.0  0.16783722776636983  0.1199711249998856  0.7052265073545669  1.0000
  H   H53       1.0  0.9040700544766409  0.1074322988761267  0.7032973357551737  1.0000
  H   H54       1.0  0.8776469048365956  0.1583876238304569  0.9438084362724553  1.0000
  H   H55       1.0  0.06775801128925708  0.19902904617051584  0.9180619827564411  1.0000
  H   H56       1.0  0.1291658987887416  0.11966549926322763  0.9998249451931042  1.0000
  H   H57       1.0  0.32288833071081063  0.15806023898512223  0.9741534311436053  1.0000
  H   H58       1.0  0.1362203445788239  0.2311505565133913  0.9888215132856715  1.0000
  H   H59       1.0  0.18347711604832992  0.1883077716816076  0.03741991379238388  1.0000
  H   H60       1.0  0.9380516131509253  0.19302447641556603  0.013683891010948912  1.0000
  H   H61       1.0  0.3377954519252029  0.5562628792889369  0.5131949814526847  1.0000
  H   H62       1.0  0.837228408290507  0.4432240692011505  0.5298946198138665  1.0000
  H   H63       1.0  0.47594161936933693  0.9364880557344861  0.0023214725511025284  1.0000
  H   H64       1.0  0.9775292174010702  0.05721163522990481  0.9697815536651431  1.0000
  C   C1        1.0  0.3588054079873191  0.44807588974377677  0.4481103246821687  1.0000
  C   C2        1.0  0.3506729423404807  0.4351482759133918  0.5627817742744057  1.0000
  C   C3        1.0  0.8494715939420773  0.5529348178885131  0.5511361201563145  1.0000
  C   C4        1.0  0.8567419668988238  0.563021351319655  0.4349603631816804  1.0000
  C   C5        1.0  0.05285014542765509  0.6201727185172957  0.37972617067597964  1.0000
  C   C6        1.0  0.06304427228584332  0.6567702098885135  0.3430983082348788  1.0000
  C   C7        1.0  0.8837166287970177  0.6754699957160353  0.3214404971944091  1.0000
  C   C8        1.0  0.6941524280953076  0.658007150976225  0.33772457084589996  1.0000
  C   C9        1.0  0.6845499164649452  0.6220793426268332  0.3749737444018421  1.0000
  C   C10       1.0  0.8637887323765413  0.6025711496836691  0.39578886116795076  1.0000
  C   C11       1.0  0.9102772187126719  0.7827776746331168  0.2152553154831196  1.0000
  C   C12       1.0  0.8959577560305192  0.7123852040482603  0.2814443586654462  1.0000
  C   C13       1.0  0.0945351866523509  0.831094057712221  0.1538331771491244  1.0000
  C   C14       1.0  0.10907938718742832  0.8686133424836058  0.11798763787064809  1.0000
  C   C15       1.0  0.9451149988449004  0.9003931291573934  0.1063860775897467  1.0000
  C   C16       1.0  0.7708785469940052  0.8956254488894261  0.13175367808415217  1.0000
  C   C17       1.0  0.7591898841546014  0.8586789644654261  0.16832057857977387  1.0000
  C   C18       1.0  0.9188677255041782  0.8248787364949451  0.17916545779245746  1.0000
  C   C19       1.0  0.8899393443114576  0.65114698359519  0.7197943576070925  1.0000
  C   C20       1.0  0.8469396704168234  0.7240051073341006  0.6593504501582643  1.0000
  C   C21       1.0  0.8535265256639235  0.755314683597419  0.691471322369338  1.0000
  C   C22       1.0  0.8847683531998386  0.7347689425320354  0.7356595657882464  1.0000
  C   C23       1.0  0.9045285404351446  0.6840739626243534  0.7504544949016959  1.0000
  C   C24       1.0  0.8320654713996092  0.8051784019728386  0.6777629281616128  1.0000
  C   C25       1.0  0.8415879354200727  0.8356234648472096  0.7075236928636386  1.0000
  C   C26       1.0  0.874162617515097  0.8163462517591712  0.7510390083928086  1.0000
  C   C27       1.0  0.896662285276662  0.7656727953743995  0.7657827707336721  1.0000
  C   C28       1.0  0.931014657716901  0.7450838150061541  0.809879581589172  1.0000
  C   C29       1.0  0.9511223011284713  0.6952023780054475  0.8236003455887654  1.0000
  C   C30       1.0  0.9369911595856237  0.6647078086642466  0.7939580200329883  1.0000
  C   C31       1.0  0.8855874209088058  0.8491916867473106  0.7818841381314812  1.0000
  C   C32       1.0  0.9454528849160512  0.7765495537499661  0.8417791400384187  1.0000
  C   C33       1.0  0.118546428072527  0.8642359492976368  0.8755811354712077  1.0000
  C   C34       1.0  0.12885021195031504  0.8932225759786195  0.9059659091021927  1.0000
  C   C35       1.0  0.952783664042478  0.9150107515241004  0.9175505053460353  1.0000
  C   C36       1.0  0.7666643416355329  0.9083569446273073  0.8978400216545381  1.0000
  C   C37       1.0  0.7563447092253952  0.8799655668210989  0.8669413582066027  1.0000
  C   C38       1.0  0.9322051331049723  0.8577506767485659  0.8563211140564417  1.0000
  C   C39       1.0  0.6916707531591727  0.6420686278468323  0.6184326000001048  1.0000
  C   C40       1.0  0.6931452714332665  0.612075431935331  0.5889220261030914  1.0000
  C   C41       1.0  0.8600190503845087  0.5824111000249277  0.5851261399306011  1.0000
  C   C42       1.0  0.02765825680602769  0.5827924021612177  0.6129692800304695  1.0000
  C   C43       1.0  0.028009226682300395  0.6128908770134984  0.6426806839117489  1.0000
  C   C44       1.0  0.8610064243640282  0.6424160954074692  0.6450864874043205  1.0000
  C   C45       1.0  0.3169074791404398  0.2174332723141958  0.16352317891438867  1.0000
  C   C46       1.0  0.5759132643949698  0.16410680599351932  0.2089471908854534  1.0000
  C   C47       1.0  0.5736390598797814  0.1964185507711917  0.2404314677287047  1.0000
  C   C48       1.0  0.4272215338156257  0.2344064028412092  0.2353570333344095  1.0000
  C   C49       1.0  0.2991247353162337  0.24477205035704236  0.19835120131616427  1.0000
  C   C50       1.0  0.7063345520652932  0.1900370917892005  0.2760552089823419  1.0000
  C   C51       1.0  0.6868819294586288  0.2189362025958204  0.30693788188519716  1.0000
  C   C52       1.0  0.5409301475865221  0.25490861271132564  0.30265576060510563  1.0000
  C   C53       1.0  0.4084980510228818  0.2640619202691994  0.2664277942147137  1.0000
  C   C54       1.0  0.2635486191249825  0.3022662642654055  0.2611233564027629  1.0000
  C   C55       1.0  0.1390274489700687  0.31113154715139757  0.22400739990821714  1.0000
  C   C56       1.0  0.15904469165280233  0.281958414142764  0.19315882232864104  1.0000
  C   C57       1.0  0.533171344288597  0.2844543774431614  0.3361497724447701  1.0000
  C   C58       1.0  0.24562992726896482  0.33181527459166915  0.2944452792734252  1.0000
  C   C59       1.0  0.1994108669389973  0.35617984348080967  0.38273790939218333  1.0000
  C   C60       1.0  0.19232856007545965  0.3879491609835526  0.41083831507942387  1.0000
  C   C61       1.0  0.3644461213520814  0.4146981137974492  0.4174917951625828  1.0000
  C   C62       1.0  0.54433338036975  0.40969441061390904  0.39560869572675017  1.0000
  C   C63       1.0  0.5510520349789445  0.37889299957687683  0.3667340322402453  1.0000
  C   C64       1.0  0.3784679230778211  0.35226342185815435  0.3605229682171682  1.0000
  C   C65       1.0  0.28472697916716777  0.11623905386839792  0.13903047585382913  1.0000
  C   C66       1.0  0.2835685730377122  0.0864716029183583  0.10925088845436187  1.0000
  C   C67       1.0  0.45158479056688355  0.08590900950362367  0.08268317616715139  1.0000
  C   C68       1.0  0.6180847548776499  0.11598475271180321  0.08521709895929767  1.0000
  C   C69       1.0  0.615669850788734  0.14696997765458517  0.114105010788883  1.0000
  C   C70       1.0  0.4500754536702587  0.14646036381056865  0.14156675566759694  1.0000
  C   C71       1.0  0.5346252510591256  0.36401765513364387  0.6116203767956347  1.0000
  C   C72       1.0  0.5338227179645828  0.32734285232807997  0.6486363338604875  1.0000
  C   C73       1.0  0.368343180696634  0.3212967602230635  0.676572643873591  1.0000
  C   C74       1.0  0.19975957780990683  0.35235903186767087  0.6671199566007713  1.0000
  C   C75       1.0  0.19810631942795712  0.38809702383548483  0.6298001528336667  1.0000
  C   C76       1.0  0.3637965469907627  0.3950262739866445  0.6016194154770387  1.0000
  C   C77       1.0  0.40253349213867307  0.21571625168606087  0.7844084712591409  1.0000
  C   C78       1.0  0.37026007240014985  0.2815412299362805  0.7146609586799926  1.0000
  C   C79       1.0  0.6052752849177879  0.15172819706733517  0.8352367645950663  1.0000
  C   C80       1.0  0.6103826470449151  0.11518975085447641  0.8721670282335052  1.0000
  C   C81       1.0  0.4429996894356237  0.1051107221139915  0.8994850687936518  1.0000
  C   C82       1.0  0.26684040899819916  0.13445479280198921  0.8900777507444885  1.0000
  C   C83       1.0  0.26314795581866696  0.17166572731236576  0.8534517144761862  1.0000
  C   C84       1.0  0.42724688430329394  0.180038799250454  0.8250467773800448  1.0000
  C   C85       1.0  0.46049160292298563  0.0639132583305155  0.9372594651266438  1.0000
  C   C86       1.0  0.45231091071601537  0.0533209779949928  0.05118901882326549  1.0000
  C   C87       1.0  0.9532397564314369  0.9391619733754554  0.06661541625565799  1.0000
  C   C88       1.0  0.963520041731016  0.9451755196204704  0.9509467591784426  1.0000
  C   C89       1.0  0.7960593712348968  0.3373656965293249  0.21178248080609308  1.0000
  C   C90       1.0  0.6740634037585096  0.3839305709835727  0.20273445336042067  1.0000
  C   C91       1.0  0.6879377757914044  0.41226172972827857  0.2387247804207817  1.0000
  C   C92       1.0  0.6896268486124698  0.3435937118946342  0.5506491298780531  1.0000
  C   C93       1.0  0.898653278401952  0.340171587408264  0.5319455147056046  1.0000
  C   C94       1.0  0.8897060037814911  0.3129105999899125  0.4951401704813421  1.0000
  C   C95       1.0  0.8143667799047735  0.12556983627187182  0.7842888553953882  1.0000
  C   C96       1.0  0.9950528717953232  0.1420040298892715  0.7559144642514396  1.0000
  C   C97       1.0  0.0344320763078088  0.1081411994605617  0.7250881998820515  1.0000
  C   C98       1.0  0.041839567372825584  0.16278490148220473  0.9383589966453268  1.0000
  C   C99       1.0  0.1589064257238419  0.15622102863815707  0.9808547195116404  1.0000
  C   C100      1.0  0.10122671723632241  0.194284184496297  0.006498491065073605  1.0000
  N   N1        1.0  0.7293800533744488  0.7207750920237005  0.25555041538354567  1.0000
  N   N2        1.0  0.736637822007964  0.7567373414132347  0.22164457446112354  1.0000
  N   N3        1.0  0.08619986919613612  0.7689223403251192  0.23668675440943326  1.0000
  N   N4        1.0  0.07894187293277351  0.7328925503478273  0.27042563560784316  1.0000
  N   N5        1.0  0.8654543349231788  0.6734969643008099  0.6757494565335803  1.0000
  N   N6        1.0  0.9207802002663499  0.8268336934377345  0.8254716255826224  1.0000
  N   N7        1.0  0.4469038804819405  0.17726091905142033  0.1723640471882248  1.0000
  N   N8        1.0  0.3856628223253865  0.32119469746578483  0.3297939152182607  1.0000
  N   N9        1.0  0.23911340796105662  0.28339724462124855  0.7467992510931081  1.0000
  N   N10       1.0  0.25828858251097137  0.250330740441818  0.7825932157226843  1.0000
  N   N11       1.0  0.5030826879489895  0.20854971172892792  0.7492277501681526  1.0000
  N   N12       1.0  0.4893051557198619  0.24257707875906226  0.7139436935451258  1.0000
  Cl  Cl1       1.0  0.23596790050125796  0.5453332368165036  0.6139734666708847  1.0000
  Cl  Cl2       1.0  0.9017134719092254  0.14866678265974537  0.28475332144177656  1.0000
  Cl  Cl3       1.0  0.8165651556356793  0.18574950049156058  0.11568007124433421  1.0000
  Cl  Cl4       1.0  0.5500250752259604  0.8569933923196658  0.20094998643916986  1.0000
  O   O1        1.0  0.514514992189767  0.44921187933530143  0.5433538443528787  1.0000
  O   O2        1.0  0.1906976512794714  0.4532581838349047  0.4661608767541878  1.0000
  O   O3        1.0  0.022251685509608904  0.5408457538571483  0.4468943234901985  1.0000
  O   O4        1.0  0.17496730577840947  0.4527859715150981  0.5516528234552709  1.0000
  O   O5        1.0  0.0141803822915065  0.5451712621646861  0.5332702133884624  1.0000
  O   O6        1.0  0.5245869041604081  0.4686357102913164  0.45465661110164746  1.0000
  O   O7        1.0  0.34528148368525546  0.5308445450188941  0.49688087127456976  1.0000
  O   O8        1.0  0.6733929335160339  0.5391261680819354  0.5418655719275518  1.0000
  O   O9        1.0  0.6873364386314832  0.5543583399483937  0.4539465481050085  1.0000
  O   O10       1.0  0.8462222123901598  0.470017704107569  0.5050946390129099  1.0000
  O   O11       1.0  0.8986792744747947  0.6069025163947401  0.7313931120722401  1.0000
  O   O12       1.0  0.8280886458350026  0.7404266720407761  0.6205652536390572  1.0000
  O   O13       1.0  0.866888420670634  0.8933398578402675  0.7708283509617357  1.0000
  O   O14       1.0  0.9762202087395482  0.7605720545016156  0.8803149687554493  1.0000
  O   O15       1.0  0.22307726892735505  0.22847543966131667  0.12920767937043104  1.0000
  O   O16       1.0  0.6789598642685206  0.12723357274073524  0.21326787015154025  1.0000
  O   O17       1.0  0.6490276039467207  0.2773853510144876  0.3674700884506024  1.0000
  O   O18       1.0  0.12015708127177761  0.3641527809059469  0.29310612067152414  1.0000
  O   O19       1.0  0.28537507683609686  0.032824949604119504  0.04549999721592  1.0000
  O   O20       1.0  0.6375305422951387  0.046489254797840794  0.9475890166400658  1.0000
  O   O21       1.0  0.7964834460316011  0.9545070681651352  0.9674583257989368  1.0000
  O   O22       1.0  0.6179348498073411  0.048996562838333105  0.0320109802175566  1.0000
  O   O23       1.0  0.7894560956898006  0.9618823869563258  0.05433969679028653  1.0000
  O   O24       1.0  0.299013118508782  0.048741600364777996  0.956880483892746  1.0000
  O   O25       1.0  0.46733603564328524  0.9697616199676206  0.005531773919258895  1.0000
  O   O26       1.0  0.12226356544361754  0.946332831062797  0.047231730662474554  1.0000
  O   O27       1.0  0.1391620424496551  0.9588897672282997  0.9605581579729684  1.0000
  O   O28       1.0  0.9660007983108445  0.030533429240158207  0.994662059187533  1.0000
  O   O29       1.0  0.008967279157530997  0.34916044869348184  0.21598519460997068  1.0000
  O   O30       1.0  0.7060498578360496  0.3676581673924774  0.5866493026780829  1.0000
  O   O31       1.0  0.7744749824076963  0.16139070215567838  0.8099892446764796  1.0000
  O   O32       1.0  0.09508293590724999  0.1258633248116894  0.9147407711934006  1.0000
