data_image0
_chemical_formula_structural       Zn16H36C112S8Br4Cl16O52
_chemical_formula_sum              "Zn16 H36 C112 S8 Br4 Cl16 O52"
_cell_length_a       18.38974260715808
_cell_length_b       19.643683356989623
_cell_length_c       32.68312579985471
_cell_angle_alpha    86.10577054656929
_cell_angle_beta     73.67150900808669
_cell_angle_gamma    62.01372939512906

_space_group_name_H-M_alt    "P 1"
_space_group_IT_number       1

loop_
  _space_group_symop_operation_xyz
  'x, y, z'

loop_
  _atom_site_type_symbol
  _atom_site_label
  _atom_site_symmetry_multiplicity
  _atom_site_fract_x
  _atom_site_fract_y
  _atom_site_fract_z
  _atom_site_occupancy
  Zn  Zn1       1.0  0.874202544030446  0.5461401312340041  0.5183869802229212  1.0000
  Zn  Zn2       1.0  0.04519752333592208  0.48063506314036897  0.43903813837204814  1.0000
  Zn  Zn3       1.0  0.053036583650445876  0.3997497310696189  0.5245472034796919  1.0000
  Zn  Zn4       1.0  0.03980958078776101  0.5693384320308822  0.5160235547392844  1.0000
  Zn  Zn5       1.0  0.6248926366478288  0.18223501473494957  0.7364248237992329  1.0000
  Zn  Zn6       1.0  0.4783475960191127  0.34952731027237144  0.7250653878109858  1.0000
  Zn  Zn7       1.0  0.44603229068287215  0.26910043806363854  0.8119049779394274  1.0000
  Zn  Zn8       1.0  0.44930072356579126  0.20160191571985564  0.7248697834745954  1.0000
  Zn  Zn9       1.0  0.4675571319707857  0.7557818247360899  0.3144695901087076  1.0000
  Zn  Zn10      1.0  0.46273856984393574  0.6868122457552487  0.2286163994975112  1.0000
  Zn  Zn11      1.0  0.6256009233412386  0.7012792640339143  0.2278423774201883  1.0000
  Zn  Zn12      1.0  0.4470475224202915  0.8517931762466587  0.22964640443816364  1.0000
  Zn  Zn13      1.0  0.025307598400850263  0.9006386558823182  0.025237294248569225  1.0000
  Zn  Zn14      1.0  0.0654907996145582  0.04709101337017069  0.015682033216393207  1.0000
  Zn  Zn15      1.0  0.8771475383483819  0.06844037288237809  0.02395844719226403  1.0000
  Zn  Zn16      1.0  0.024251237342468795  0.9884134021568798  0.9389389071442976  1.0000
  H   H1        1.0  0.7932637491933578  0.9564976099182725  0.660407192477372  1.0000
  H   H2        1.0  0.31914266203074954  0.9703952500909307  0.40880867215108213  1.0000
  H   H3        1.0  0.567224804681416  0.4498186617404371  0.624010929618166  1.0000
  H   H4        1.0  0.5688507994486331  0.4987635404769221  0.6674049894140169  1.0000
  H   H5        1.0  0.6619519963255057  0.5472149841188525  0.6157679762818731  1.0000
  H   H6        1.0  0.6609938548678755  0.4979852326058988  0.5722445625049701  1.0000
  H   H7        1.0  0.360660788956075  0.6632240379863672  0.4256553696039873  1.0000
  H   H8        1.0  0.27287058577520895  0.7553175192107561  0.4239767633871878  1.0000
  H   H9        1.0  0.17000549201086568  0.7137399503555741  0.47295259388312866  1.0000
  H   H10       1.0  0.2580315976957621  0.6220002943179066  0.4750186587247285  1.0000
  H   H11       1.0  0.5583502085053949  0.7541816335454924  0.4245851044932892  1.0000
  H   H12       1.0  0.5551935872251405  0.6648662762360473  0.4249301139649617  1.0000
  H   H13       1.0  0.6520545574447779  0.6143201705615055  0.4733967648792402  1.0000
  H   H14       1.0  0.654929100167408  0.7038176261625821  0.4732441985609982  1.0000
  H   H15       1.0  0.3343511481740649  0.2032595547561513  0.6305301861667587  1.0000
  H   H16       1.0  0.2441793008691207  0.24621321887201464  0.6764752966567189  1.0000
  H   H17       1.0  0.1451713917011475  0.29598885189527374  0.6290581470343994  1.0000
  H   H18       1.0  0.23523712415978792  0.2531888231719464  0.58308875604299  1.0000
  H   H19       1.0  0.18156145048124717  0.6611228441281014  0.9619312539380901  1.0000
  H   H20       1.0  0.932352979477642  0.09570699484311969  0.8324102925576683  1.0000
  H   H21       1.0  0.9345269975878665  0.004138442166244299  0.831467962443938  1.0000
  H   H22       1.0  0.8384528134982432  0.051385475266179995  0.7828093038861681  1.0000
  H   H23       1.0  0.834700370658453  0.14353880958415738  0.7841932559604032  1.0000
  H   H24       1.0  0.17120026726387047  0.1999890434542522  0.968895224095725  1.0000
  H   H25       1.0  0.26407801849645546  0.11002073031653481  0.9675317939295668  1.0000
  H   H26       1.0  0.3570881670083921  0.16193507546143587  0.9188806762270189  1.0000
  H   H27       1.0  0.264168555046119  0.2515546347644174  0.9198580652162037  1.0000
  H   H28       1.0  0.9567475532074357  0.29307151045357216  0.09008525464845718  1.0000
  H   H29       1.0  0.2626423928696653  0.0095469517266693  0.0703984163099207  1.0000
  H   H30       1.0  0.16956182355004049  0.05776123767886788  0.11445080890230493  1.0000
  H   H31       1.0  0.2621641170805376  0.012765712826244202  0.1649625429367205  1.0000
  H   H32       1.0  0.35537610451461177  0.9662732084670012  0.12073324868968177  1.0000
  H   H33       1.0  0.9326213798501968  0.7438359399266828  0.08635270196460716  1.0000
  H   H34       1.0  0.9343937749817358  0.7897870204619722  0.13099087680605248  1.0000
  H   H35       1.0  0.8351874413915393  0.7451071036853492  0.18061878805503545  1.0000
  H   H36       1.0  0.8342639086613914  0.6983154079491172  0.13610384452966437  1.0000
  C   C1        1.0  0.8728633206245391  0.5637438143453223  0.4288636866078335  1.0000
  C   C2        1.0  0.13043512924564024  0.31342714304508945  0.44122613337663813  1.0000
  C   C3        1.0  0.8812023690194335  0.4140621140358646  0.568615389737012  1.0000
  C   C4        1.0  0.14120537719814763  0.4522241274995692  0.5666704060543566  1.0000
  C   C5        1.0  0.8603725112470285  0.6815888772122349  0.5608464750767936  1.0000
  C   C6        1.0  0.13479309445382645  0.5710942436958246  0.4300010491947717  1.0000
  C   C7        1.0  0.6622786357141379  0.30051881504856237  0.6881149144889988  1.0000
  C   C8        1.0  0.37293844542252685  0.43852550458485245  0.8081340289127396  1.0000
  C   C9        1.0  0.6175515866484389  0.1815286620481302  0.8276400980704324  1.0000
  C   C10       1.0  0.35423459674494506  0.18124226120459494  0.8104531219724295  1.0000
  C   C11       1.0  0.6153263139044824  0.0675552208609957  0.6864224444627567  1.0000
  C   C12       1.0  0.372523271809051  0.3359438761890202  0.6771060639397035  1.0000
  C   C13       1.0  0.3658652426051601  0.6765419923827379  0.315547499244147  1.0000
  C   C14       1.0  0.6379496271143524  0.5687174067314373  0.1861867451716108  1.0000
  C   C15       1.0  0.6471127566959041  0.6782401918051731  0.31550522910268347  1.0000
  C   C16       1.0  0.6168233548872807  0.8354327384865811  0.1810940903768953  1.0000
  C   C17       1.0  0.3746015200301259  0.9261139300239946  0.31796606337827876  1.0000
  C   C18       1.0  0.35947892752305705  0.81078025295173  0.18321786343089033  1.0000
  C   C19       1.0  0.13324271875360705  0.9199892113839211  0.07042745556913128  1.0000
  C   C20       1.0  0.9102029355706236  0.18295584485348118  0.061384165913153835  1.0000
  C   C21       1.0  0.8456678785189529  0.9455252952622994  0.06845631851597028  1.0000
  C   C22       1.0  0.8434531580842729  0.07573236123491259  0.940954374352934  1.0000
  C   C23       1.0  0.11926692522479264  0.8184837712418583  0.9395798318191666  1.0000
  C   C24       1.0  0.13271632135907652  0.06443378931189869  0.9246314761212417  1.0000
  C   C25       1.0  0.7196305299703029  0.8058603239001838  0.5978718994577508  1.0000
  C   C26       1.0  0.7489390112188868  0.9425823021878873  0.6513570567592667  1.0000
  C   C27       1.0  0.8076256029670714  0.7565977381204831  0.58605683986616  1.0000
  C   C28       1.0  0.6614777220505772  0.9917465495984883  0.6620555701990583  1.0000
  C   C29       1.0  0.7701236881688657  0.8751885484589719  0.6276484744012691  1.0000
  C   C30       1.0  0.6979616862870159  0.8739543668885827  0.6213068237503665  1.0000
  C   C31       1.0  0.20099763135696952  0.22096762576546777  0.37297781346155295  1.0000
  C   C32       1.0  0.3031652224635977  0.0160153192423778  0.38698567124873773  1.0000
  C   C33       1.0  0.1780470620848646  0.23806680666123015  0.4168035729276411  1.0000
  C   C34       1.0  0.32623429348499394  0.0011301238062344993  0.3431528996706703  1.0000
  C   C35       1.0  0.2579722635563114  0.09650302457751539  0.3980669766001199  1.0000
  C   C36       1.0  0.2470559052849525  0.14050443330346238  0.3622648024328754  1.0000
  C   C37       1.0  0.7243599710257768  0.32424875304869255  0.6592631366262935  1.0000
  C   C38       1.0  0.8320972803594843  0.38036088157424774  0.5998260786107181  1.0000
  C   C39       1.0  0.6912383459016739  0.3937165116233102  0.6400920379456494  1.0000
  C   C40       1.0  0.8681324370746353  0.30976144060836924  0.6195183177717994  1.0000
  C   C41       1.0  0.7426681871945889  0.4203764590752001  0.6116696446690639  1.0000
  C   C42       1.0  0.8154381169496645  0.2824970584339113  0.6485074179797294  1.0000
  C   C43       1.0  0.6083403657994851  0.4628539017011449  0.6372896878342971  1.0000
  C   C44       1.0  0.6667456324173597  0.49313311306183033  0.604995314046768  1.0000
  C   C45       1.0  0.30563276073530693  0.6487760616060712  0.34197237743829595  1.0000
  C   C46       1.0  0.18839131588465824  0.6001273376880505  0.3987088180792426  1.0000
  C   C47       1.0  0.28154240812109077  0.6605814591237403  0.38638614391963  1.0000
  C   C48       1.0  0.20992312370738397  0.5885567812953169  0.3535887357977714  1.0000
  C   C49       1.0  0.22493772266441434  0.6377987390453157  0.4135480443591178  1.0000
  C   C50       1.0  0.2679482674603337  0.6114568376786875  0.3257710744045283  1.0000
  C   C51       1.0  0.2947912991360725  0.6927769027887719  0.4229586056152925  1.0000
  C   C52       1.0  0.2305040377319756  0.6667406288989138  0.4537892893719047  1.0000
  C   C53       1.0  0.7098460409570038  0.6488330636771024  0.3414314064554134  1.0000
  C   C54       1.0  0.8211252520132816  0.5903946798245272  0.3975454445488609  1.0000
  C   C55       1.0  0.6787815193936312  0.6579014800238666  0.38590429108122487  1.0000
  C   C56       1.0  0.8552180963145519  0.5799520029882499  0.35224965076995585  1.0000
  C   C57       1.0  0.7319180985237492  0.6299618325723769  0.4126893038582581  1.0000
  C   C58       1.0  0.8009769382436004  0.6094316504816177  0.32482560892322715  1.0000
  C   C59       1.0  0.5972506965402573  0.6910849084435566  0.42274207406269687  1.0000
  C   C60       1.0  0.6577186753585449  0.6595204060376431  0.4531604080687401  1.0000
  C   C61       1.0  0.3123256068414193  0.3727258317263775  0.6501053801173882  1.0000
  C   C62       1.0  0.19785866551038103  0.4303338672328038  0.5955812657149552  1.0000
  C   C63       1.0  0.2764384002662723  0.33092518601916504  0.6385731676677651  1.0000
  C   C64       1.0  0.23134816071571865  0.4755638400098476  0.6077789845737415  1.0000
  C   C65       1.0  0.22192914611668607  0.3583662835974977  0.6124739991568832  1.0000
  C   C66       1.0  0.28732455708345117  0.4473761065931114  0.6343618684894495  1.0000
  C   C67       1.0  0.27290060238113517  0.25520530510629397  0.6436297036501486  1.0000
  C   C68       1.0  0.21097173839910247  0.2863832199710998  0.6139679423623863  1.0000
  C   C69       1.0  0.2984867407781593  0.5884407989561067  0.8188028391742321  1.0000
  C   C70       1.0  0.19680624249716064  0.670905705663408  0.9281539486939607  1.0000
  C   C71       1.0  0.32394836103537034  0.5141976546949677  0.8325549026363248  1.0000
  C   C72       1.0  0.17110180899140914  0.744208345441116  0.9136559276753928  1.0000
  C   C73       1.0  0.24311347451808282  0.6139385539123692  0.8935537211533813  1.0000
  C   C74       1.0  0.25208990938948256  0.6453876077652865  0.8534753718071926  1.0000
  C   C75       1.0  0.7804529006086511  0.10338655073830688  0.9152217862582361  1.0000
  C   C76       1.0  0.6687658255500608  0.15575658462760342  0.8593075469787267  1.0000
  C   C77       1.0  0.8114337163326155  0.09594205225664607  0.8707960776293575  1.0000
  C   C78       1.0  0.6350954820647984  0.1628374868008038  0.9046269535040993  1.0000
  C   C79       1.0  0.7580329951352598  0.12144698628817707  0.8441032292928697  1.0000
  C   C80       1.0  0.6896732381401022  0.13762775417642809  0.9318856245090217  1.0000
  C   C81       1.0  0.8929542114208077  0.06690745071249887  0.8340055238725983  1.0000
  C   C82       1.0  0.8323140857218904  0.09640806138451548  0.8036688336203924  1.0000
  C   C83       1.0  0.18961062621454525  0.09013817155563687  0.8928040646943955  1.0000
  C   C84       1.0  0.2976517493424282  0.14916166473680187  0.8363449468456781  1.0000
  C   C85       1.0  0.22580814711785274  0.12824477436836904  0.90772662395743  1.0000
  C   C86       1.0  0.26231990312223985  0.10982499973737697  0.8199571877622988  1.0000
  C   C87       1.0  0.27701490189240724  0.1567469712594445  0.880801974759791  1.0000
  C   C88       1.0  0.21006880945201087  0.08062679574685208  0.8475313264522484  1.0000
  C   C89       1.0  0.2321470518351347  0.15616033928688464  0.9480376900618881  1.0000
  C   C90       1.0  0.29037752518406995  0.18847833053567334  0.9174737710037918  1.0000
  C   C91       1.0  0.667663134948107  0.4427406723339615  0.14920554834254326  1.0000
  C   C92       1.0  0.8894702556133465  0.30713062843792455  0.09786392708164736  1.0000
  C   C93       1.0  0.6919254361001491  0.4935244135775391  0.1615920372743887  1.0000
  C   C94       1.0  0.86211169758424  0.25873298040335857  0.0858892087045362  1.0000
  C   C95       1.0  0.8183699877099997  0.37517455657356885  0.12088271968708857  1.0000
  C   C96       1.0  0.7393004559326499  0.3758730717365069  0.12592714585461812  1.0000
  C   C97       1.0  0.1891284446642985  0.8872849596210414  0.099769347901848  1.0000
  C   C98       1.0  0.2986696778941962  0.834976581964426  0.15654078708778482  1.0000
  C   C99       1.0  0.2246685292798605  0.9300177669380428  0.1106544978555348  1.0000
  C   C100      1.0  0.2628423179579969  0.7902036739156131  0.14658800195170582  1.0000
  C   C101      1.0  0.2763079523125854  0.9054339007328378  0.13819071161063332  1.0000
  C   C102      1.0  0.2095950650614213  0.8154946751018172  0.1187230421771659  1.0000
  C   C103      1.0  0.23064301654137148  0.004507448321817298  0.1034370367267954  1.0000
  C   C104      1.0  0.2889844261571355  0.9767009956188276  0.1348918425649828  1.0000
  C   C105      1.0  0.7820432402003592  0.9217565443248077  0.09529084080769933  1.0000
  C   C106      1.0  0.6684688204905173  0.8687258850629573  0.15176909607573927  1.0000
  C   C107      1.0  0.8121013125984647  0.8509428189860843  0.1133796509293603  1.0000
  C   C108      1.0  0.6356416154984502  0.9407794591479544  0.13319954034849252  1.0000
  C   C109      1.0  0.7577489633804434  0.8259630711647858  0.14067944047607034  1.0000
  C   C110      1.0  0.6911798654667503  0.9665927118621412  0.1055829751956382  1.0000
  C   C111      1.0  0.8929186524065998  0.7794802682351898  0.11652752725133556  1.0000
  C   C112      1.0  0.8311132643005055  0.7511819969000368  0.14758451832624792  1.0000
  S   S1        1.0  0.8637408416088163  0.7935944639770086  0.6040887051156006  1.0000
  S   S2        1.0  0.6043545300610588  0.9564407734360216  0.6437413891158245  1.0000
  S   S3        1.0  0.21303440893976242  0.15510602892887698  0.44472293801601387  1.0000
  S   S4        1.0  0.2933141721730408  0.08382166468857118  0.31518522747781924  1.0000
  S   S5        1.0  0.29107762557701045  0.5145396772174989  0.8881288935702116  1.0000
  S   S6        1.0  0.2031709522868752  0.7446551616236973  0.8582177673673999  1.0000
  S   S7        1.0  0.8030588405308524  0.45867660972306357  0.14449734185689067  1.0000
  S   S8        1.0  0.7511858880469049  0.29473010335192384  0.10239129882756966  1.0000
  Br  Br1       1.0  0.6357437399192277  0.7885515042281881  0.5852859549210123  1.0000
  Br  Br2       1.0  0.17884767961627548  0.2913532408477337  0.33061160308637483  1.0000
  Br  Br3       1.0  0.3188618751876506  0.6155931251615812  0.7620440706097753  1.0000
  Br  Br4       1.0  0.5559539799205948  0.4559807440778485  0.15945661338601985  1.0000
  Cl  Cl1       1.0  0.9775235753463745  0.2546359825142657  0.6098274222812491  1.0000
  Cl  Cl2       1.0  0.8653417635529193  0.1978149767239685  0.6715639595280863  1.0000
  Cl  Cl3       1.0  0.16229141172242836  0.5493306869538513  0.3313132801078781  1.0000
  Cl  Cl4       1.0  0.292265633451862  0.5904477953853585  0.2718650415415525  1.0000
  Cl  Cl5       1.0  0.9639849975379208  0.5282016766033024  0.3286523149923042  1.0000
  Cl  Cl6       1.0  0.8501676969639006  0.5963899926083798  0.2706658441531077  1.0000
  Cl  Cl7       1.0  0.20367025790486085  0.5675187181269832  0.5915238396710337  1.0000
  Cl  Cl8       1.0  0.32202677547232395  0.5076529194648244  0.6482903423645822  1.0000
  Cl  Cl9       1.0  0.5264735433440748  0.2002442124407366  0.9284801088060136  1.0000
  Cl  Cl10      1.0  0.6429590618512435  0.14634547821429322  0.986097907533221  1.0000
  Cl  Cl11      1.0  0.2800821756887757  0.0970325353541313  0.765798671532977  1.0000
  Cl  Cl12      1.0  0.1744579887171653  0.0305483853785873  0.8242305546093365  1.0000
  Cl  Cl13      1.0  0.2800654616307766  0.7048815619240755  0.17001398916008273  1.0000
  Cl  Cl14      1.0  0.17268608651674822  0.7548530801020092  0.10775653742295081  1.0000
  Cl  Cl15      1.0  0.5268620461404723  0.0006756626669499999  0.1440892932884026  1.0000
  Cl  Cl16      1.0  0.644996115716289  0.053131943288995793  0.0835311346568162  1.0000
  O   O1        1.0  0.9997614602416504  0.5001921037904182  0.5014177574436546  1.0000
  O   O2        1.0  0.8325356231289405  0.5594110533315657  0.4670933670032796  1.0000
  O   O3        1.0  0.09235268080969665  0.3720731623137538  0.42147862216910437  1.0000
  O   O4        1.0  0.9618541569894391  0.37338700635503125  0.5537914295235851  1.0000
  O   O5        1.0  0.9509681657747748  0.5494031824374159  0.41589342292648723  1.0000
  O   O6        1.0  0.8356639690926074  0.4826512406578443  0.5591012202943232  1.0000
  O   O7        1.0  0.13080861619592107  0.31367644494864066  0.48039102720124294  1.0000
  O   O8        1.0  0.11209161442555883  0.4051051160657195  0.5646291145922078  1.0000
  O   O9        1.0  0.9414480156202459  0.655023776441446  0.5543854142956944  1.0000
  O   O10       1.0  0.12737853886535083  0.5124333646822804  0.546290887591333  1.0000
  O   O11       1.0  0.8231663672587005  0.6501602093403419  0.5478729085829386  1.0000
  O   O12       1.0  0.1379132804694621  0.5084325147122967  0.4194007792094255  1.0000
  O   O13       1.0  0.09262570748910555  0.610196528060733  0.4661844508701448  1.0000
  O   O14       1.0  0.5004370826814863  0.2503174247996967  0.7498756840349827  1.0000
  O   O15       1.0  0.6881686047736864  0.23097937718812736  0.6980896252704767  1.0000
  O   O16       1.0  0.40236571551055533  0.437297564312466  0.7677559472164077  1.0000
  O   O17       1.0  0.537246820085592  0.22590165874562018  0.8407101799555862  1.0000
  O   O18       1.0  0.5849175873015041  0.3551160383613023  0.6996880460795155  1.0000
  O   O19       1.0  0.6616127357781779  0.15630014884545324  0.7888017221217539  1.0000
  O   O20       1.0  0.3815972695028691  0.3801291224805325  0.8302341349682792  1.0000
  O   O21       1.0  0.36797584246416193  0.22396819176358912  0.8319839657947341  1.0000
  O   O22       1.0  0.5359915590817578  0.10802160063262528  0.6878381561538023  1.0000
  O   O23       1.0  0.384962675558171  0.16380944267667988  0.7704427531696325  1.0000
  O   O24       1.0  0.6583339773283825  0.0859310209225868  0.7038640520463133  1.0000
  O   O25       1.0  0.421368871351561  0.3633551121048271  0.6800348361415304  1.0000
  O   O26       1.0  0.37034936794521667  0.27642397057425677  0.6947916682501686  1.0000
  O   O27       1.0  0.5006784878922161  0.750161539551975  0.25181372688240344  1.0000
  O   O28       1.0  0.40206437105096166  0.6983071827103515  0.3362494556230473  1.0000
  O   O29       1.0  0.5591708291737375  0.5869011666093016  0.20366278282264721  1.0000
  O   O30       1.0  0.6754431128373638  0.6621200868876967  0.2753911234328896  1.0000
  O   O31       1.0  0.3754893028566996  0.6779969477169915  0.2755109760271636  1.0000
  O   O32       1.0  0.5680771279683371  0.7168838209723204  0.336898243143942  1.0000
  O   O33       1.0  0.6748387470631767  0.6093888729283561  0.18818266549873655  1.0000
  O   O34       1.0  0.6609362352877144  0.7755612962617773  0.1985631622516237  1.0000
  O   O35       1.0  0.39184193046907745  0.9305240572618129  0.2773843785658059  1.0000
  O   O36       1.0  0.5364491873291115  0.8661465029310162  0.1861820202121578  1.0000
  O   O37       1.0  0.39459772865583176  0.8649291660959334  0.33814960602104094  1.0000
  O   O38       1.0  0.4095770992248759  0.7390674616883857  0.18345373267214884  1.0000
  O   O39       1.0  0.3581340849740542  0.8659486252348074  0.20263280589940547  1.0000
  O   O40       1.0  0.0006595823427418001  0.0008182612160609999  0.0010570760992863002  1.0000
  O   O41       1.0  0.0849077054698811  0.8915365816126907  0.0681614786125309  1.0000
  O   O42       1.0  0.9921339156765042  0.1504135270071032  0.048163297094006886  1.0000
  O   O43       1.0  0.8218019605816025  0.0170816646599334  0.06440644686044551  1.0000
  O   O44       1.0  0.13828518568458736  0.9765909314951886  0.05029943534452031  1.0000
  O   O45       1.0  0.9213788698478779  0.8901425700516865  0.05259606609940456  1.0000
  O   O46       1.0  0.8617036142495922  0.1565648912893494  0.055728659993107485  1.0000
  O   O47       1.0  0.8195151817496154  0.10582500039335227  0.9787283673509036  1.0000
  O   O48       1.0  0.1002147783570067  0.879162536331826  0.9186982968853884  1.0000
  O   O49       1.0  0.9190116921773351  0.023829693825717896  0.9213696322854403  1.0000
  O   O50       1.0  0.0978017046783747  0.8156080698371894  0.9801103848991064  1.0000
  O   O51       1.0  0.14031330326915992  0.060722721832696905  0.9625793733385494  1.0000
  O   O52       1.0  0.0807351362936686  0.05053955192876459  0.9125262059864312  1.0000
