data_image0
_chemical_formula_structural       NiH30C30N6O6
_chemical_formula_sum              "Ni1 H30 C30 N6 O6"
_cell_length_a       8.402499545237992
_cell_length_b       9.758830429849287
_cell_length_c       9.65869536830243
_cell_angle_alpha    59.03819998724604
_cell_angle_beta     85.68375703431384
_cell_angle_gamma    85.25777053682444

_space_group_name_H-M_alt    "P 1"
_space_group_IT_number       1

loop_
  _space_group_symop_operation_xyz
  'x, y, z'

loop_
  _atom_site_type_symbol
  _atom_site_label
  _atom_site_symmetry_multiplicity
  _atom_site_fract_x
  _atom_site_fract_y
  _atom_site_fract_z
  _atom_site_occupancy
  Ni  Ni1       1.0  0.4999978927972748  0.500000247358642  0.5000003458971066  1.0000
  H   H1        1.0  0.21022957104387535  0.6354793941309042  0.04785952093035922  1.0000
  H   H2        1.0  0.789774032651522  0.36449606937104306  0.9521428399095272  1.0000
  H   H3        1.0  0.23701276676091962  0.43410898907371376  0.1059169978336031  1.0000
  H   H4        1.0  0.7629897536015946  0.5658614004287799  0.8941003980256781  1.0000
  H   H5        1.0  0.4066002135240012  0.6395560412094383  0.8618098368539506  1.0000
  H   H6        1.0  0.593403571520746  0.36041219350733655  0.13819820042431993  1.0000
  H   H7        1.0  0.5190846126726713  0.6534660777374484  0.0022802620741445485  1.0000
  H   H8        1.0  0.4809203670688476  0.3465021259847986  0.9977277144626058  1.0000
  H   H9        1.0  0.3866373448725753  0.20937905598382395  0.7657307138785612  1.0000
  H   H10       1.0  0.6133670145775981  0.7906127703263836  0.23427687461060034  1.0000
  H   H11       1.0  0.4374942910781812  0.9169125010394905  0.8582846284287271  1.0000
  H   H12       1.0  0.5625135626815806  0.08308287347386306  0.1417188905555449  1.0000
  H   H13       1.0  0.6315905206404154  0.8392132364398323  0.6987283500323472  1.0000
  H   H14       1.0  0.3684207942241358  0.1607868017604872  0.3012736502444824  1.0000
  H   H15       1.0  0.7028121272642168  0.3433785620382396  0.3732145597360842  1.0000
  H   H16       1.0  0.2971823406480709  0.6566267203440787  0.6267848563167533  1.0000
  H   H17       1.0  0.06906967054815992  0.7141910948052156  0.3567784852678459  1.0000
  H   H18       1.0  0.9309341457479192  0.28582244465462747  0.6432110248450087  1.0000
  H   H19       1.0  0.24019674575775699  0.8431152436755766  0.10503351331647816  1.0000
  H   H20       1.0  0.7598068524082819  0.1569065328768176  0.8949570674000425  1.0000
  H   H21       1.0  0.2336566481197266  0.1385666146793483  0.9272955601214719  1.0000
  H   H22       1.0  0.7663373897902872  0.861455329446862  0.07269865371063136  1.0000
  H   H23       1.0  0.06672326728060801  0.3152283432092062  0.9972856435398897  1.0000
  H   H24       1.0  0.9332685320623425  0.6847876299870278  0.002713771827615245  1.0000
  H   H25       1.0  0.9526993087704272  0.5073587657153668  0.3450409360376767  1.0000
  H   H26       1.0  0.04729519055871379  0.4926453475949159  0.6549580273400155  1.0000
  H   H27       1.0  0.8273871928948895  0.5620586877733587  0.4388395520331158  1.0000
  H   H28       1.0  0.17260969493381137  0.4379453367537707  0.5611603389226971  1.0000
  H   H29       1.0  0.8306981692971078  0.801751770656118  0.5314804750213539  1.0000
  H   H30       1.0  0.16930102082632456  0.1982559134510069  0.4685122599876267  1.0000
  C   C1        1.0  0.31805593008866145  0.4931197307796609  0.27161903479193944  1.0000
  C   C2        1.0  0.6819437762418731  0.5068675432204302  0.7283869859627288  1.0000
  C   C3        1.0  0.29824933799800146  0.5330220533405453  0.09910019529868215  1.0000
  C   C4        1.0  0.7017530970536541  0.4669521113192018  0.9009080679744913  1.0000
  C   C5        1.0  0.44738558628999675  0.5732971789154176  0.9865460830279603  1.0000
  C   C6        1.0  0.5526157788383445  0.426672313656546  0.01346147934732769  1.0000
  C   C7        1.0  0.4684525297950586  0.16800187447517348  0.7006802745197902  1.0000
  C   C8        1.0  0.5315457646026472  0.8319936944061013  0.2993258285189031  1.0000
  C   C9        1.0  0.4986136901542508  0.007633436412945098  0.7498463842211578  1.0000
  C   C10       1.0  0.5013892627269171  0.9923668455431167  0.2501549921851168  1.0000
  C   C11       1.0  0.6067173633530133  0.9649315439704865  0.659977095628328  1.0000
  C   C12       1.0  0.3932891754063945  0.035068698590244196  0.3400220004311052  1.0000
  C   C13       1.0  0.6822991871764971  0.08573219699549378  0.5209960414616717  1.0000
  C   C14       1.0  0.31770128474249765  0.9142717345480805  0.4790036672696018  1.0000
  C   C15       1.0  0.6444824257369249  0.2452943775160037  0.47779118702955253  1.0000
  C   C16       1.0  0.3555144926146525  0.7547084511449711  0.5222093003122767  1.0000
  C   C17       1.0  0.7993363216978793  0.06087236212097482  0.41599861509341446  1.0000
  C   C18       1.0  0.20066172941073293  0.9391328004836839  0.5840016677960235  1.0000
  C   C19       1.0  0.9685338727020467  0.9442256030064017  0.31563592957551395  1.0000
  C   C20       1.0  0.03146163997450202  0.055785708094532475  0.684357296622281  1.0000
  C   C21       1.0  0.06731237556992653  0.8435697659202926  0.279614758789208  1.0000
  C   C22       1.0  0.9326878557418895  0.1564438397289933  0.7203759826093403  1.0000
  C   C23       1.0  0.16271341987857113  0.9173037815874211  0.13869048541454282  1.0000
  C   C24       1.0  0.8372866866597944  0.08271452714416938  0.8613010176234114  1.0000
  C   C25       1.0  0.1612153056710355  0.0849633117333468  0.038699835671252514  1.0000
  C   C26       1.0  0.8387823782690094  0.9150561744711039  0.9612943396471825  1.0000
  C   C27       1.0  0.0661192319512125  0.18567245103234598  0.07607603977194093  1.0000
  C   C28       1.0  0.9338761541639544  0.8143435095626685  0.9239200461875614  1.0000
  C   C29       1.0  0.9674337137101575  0.11413066284998757  0.21659034257659474  1.0000
  C   C30       1.0  0.03256173345076971  0.8858829060127106  0.7834069361549326  1.0000
  N   N1        1.0  0.5405608572295292  0.2838808517968445  0.5657735891965744  1.0000
  N   N2        1.0  0.4594325677064362  0.7161184554550958  0.43422991858899723  1.0000
  N   N3        1.0  0.8604874527594862  0.9145266298917888  0.44176811719572845  1.0000
  N   N4        1.0  0.1395117660988916  0.08547980476095061  0.5582273123215771  1.0000
  N   N5        1.0  0.8610702775517752  0.1829452708066057  0.28180840705604027  1.0000
  N   N6        1.0  0.1389277717688913  0.8170598382098292  0.7181939739557067  1.0000
  O   O1        1.0  0.4443505251335084  0.5437689382484193  0.29579723119713475  1.0000
  O   O2        1.0  0.5556453843405222  0.45622682659244873  0.7042037480188341  1.0000
  O   O3        1.0  0.21006405718078722  0.4193705917966852  0.37827978915500177  1.0000
  O   O4        1.0  0.7899356482557779  0.580616655409294  0.6217272806608208  1.0000
  O   O5        1.0  0.8441791124350927  0.5535502544267742  0.341097595175427  1.0000
  O   O6        1.0  0.1558221582771537  0.4464692191764498  0.658893250734998  1.0000
