data_image0
_chemical_formula_structural       Zn2H36C28S8N4O4
_chemical_formula_sum              "Zn2 H36 C28 S8 N4 O4"
_cell_length_a       7.020749169209277
_cell_length_b       9.591173290796933
_cell_length_c       16.70081912752489
_cell_angle_alpha    93.59909904894498
_cell_angle_beta     99.10354308677252
_cell_angle_gamma    92.87173315272337

_space_group_name_H-M_alt    "P 1"
_space_group_IT_number       1

loop_
  _space_group_symop_operation_xyz
  'x, y, z'

loop_
  _atom_site_type_symbol
  _atom_site_label
  _atom_site_symmetry_multiplicity
  _atom_site_fract_x
  _atom_site_fract_y
  _atom_site_fract_z
  _atom_site_occupancy
  Zn  Zn1       1.0  0.5712832476426329  0.794993463020127  0.24672945733345136  1.0000
  Zn  Zn2       1.0  0.4287195434334166  0.205002357286709  0.7532676757683633  1.0000
  H   H1        1.0  0.6437887584399745  0.4943903279623072  0.4900682503522376  1.0000
  H   H2        1.0  0.3562992816750636  0.5056225222634936  0.5099095652380257  1.0000
  H   H3        1.0  0.16363379796735703  0.6330609197094148  0.40485114526895677  1.0000
  H   H4        1.0  0.8364353765066782  0.3669508430373297  0.5951289456332561  1.0000
  H   H5        1.0  0.8955960265581808  0.6781441881927108  0.09631667377693282  1.0000
  H   H6        1.0  0.1043815257683818  0.32182734281596476  0.9036981561048948  1.0000
  H   H7        1.0  0.34501534190716393  0.449314562266437  0.010658562092594097  1.0000
  H   H8        1.0  0.6549532774283051  0.5506706105782085  0.9893526089391075  1.0000
  H   H9        1.0  0.2781438568894359  0.8937759361060028  0.3495350056769908  1.0000
  H   H10       1.0  0.7218842965194839  0.1062302980798719  0.6504696401996882  1.0000
  H   H11       1.0  0.6205859540696251  0.19075211522442712  0.4026077168024004  1.0000
  H   H12       1.0  0.37942804117051315  0.8092572625804022  0.597395497594576  1.0000
  H   H13       1.0  0.532341728077995  0.2274387152000301  0.4968296457158488  1.0000
  H   H14       1.0  0.4676693737560741  0.7725706495621053  0.5031745702599653  1.0000
  H   H15       1.0  0.4229405248652612  0.3001090881149011  0.40636997904760364  1.0000
  H   H16       1.0  0.577066003011396  0.6998971611601588  0.5936314100436064  1.0000
  H   H17       1.0  0.10556979732965031  0.16921359430987337  0.4406836393167595  1.0000
  H   H18       1.0  0.894435450698019  0.8307938142367347  0.5593069308312837  1.0000
  H   H19       1.0  0.10113133815081449  0.9823490723677535  0.4311002996702058  1.0000
  H   H20       1.0  0.8988823020705115  0.0176551978382307  0.5688907138300083  1.0000
  H   H21       1.0  0.23625050814795398  0.0786313230329228  0.5195799026248267  1.0000
  H   H22       1.0  0.7637471306666158  0.921371828827482  0.4804165724077834  1.0000
  H   H23       1.0  0.4695756732061795  0.05785004224718187  0.16248064786030622  1.0000
  H   H24       1.0  0.5303826039417885  0.942148822366782  0.8375219807973269  1.0000
  H   H25       1.0  0.6405308103474995  0.3262928892549794  0.0752636010169638  1.0000
  H   H26       1.0  0.35940419405609697  0.6737029381857481  0.9247271563354361  1.0000
  H   H27       1.0  0.42524027971401074  0.23620647832186845  0.092561707637806  1.0000
  H   H28       1.0  0.5746933762497052  0.7637735997756819  0.9074331285030511  1.0000
  H   H29       1.0  0.4968173057626544  0.21922660886943385  0.9942586325131161  1.0000
  H   H30       1.0  0.5031259427472321  0.7807472226675711  0.005733611708762984  1.0000
  H   H31       1.0  0.9371123765319496  0.17414210357298995  0.0674946057566714  1.0000
  H   H32       1.0  0.06284648099043008  0.8258640371342522  0.9325131390156188  1.0000
  H   H33       1.0  0.7951017773501192  0.07714371886344651  0.9827666667021833  1.0000
  H   H34       1.0  0.2048686287921129  0.9228624363781178  0.017240661297009293  1.0000
  H   H35       1.0  0.8908388642593792  0.9890394820356078  0.07170592486125572  1.0000
  H   H36       1.0  0.1091305293792999  0.010971893465601599  0.9283027379403566  1.0000
  C   C1        1.0  0.7735590475138282  0.6511062964777992  0.37707173108222497  1.0000
  C   C2        1.0  0.22650902694118  0.34891055480096606  0.6229222580202604  1.0000
  C   C3        1.0  0.8888821823507769  0.5736103605839844  0.4396343958396542  1.0000
  C   C4        1.0  0.1111941108635648  0.4264180673834658  0.5603546166936368  1.0000
  C   C5        1.0  0.8002157453060618  0.4965608246574646  0.4942167631940535  1.0000
  C   C6        1.0  0.1998472185614943  0.5034634209023068  0.5057705852688272  1.0000
  C   C7        1.0  0.09163756247999535  0.5753570186328927  0.4468737140653475  1.0000
  C   C8        1.0  0.9084516383838661  0.42467038377947103  0.5531143337542376  1.0000
  C   C9        1.0  0.2845808882225427  0.648742956842092  0.12478407476944404  1.0000
  C   C10       1.0  0.7153974071650708  0.3512370097800073  0.8752251497515006  1.0000
  C   C11       1.0  0.1385355089578297  0.5723792196531647  0.061639270267406204  1.0000
  C   C12       1.0  0.8614364527403708  0.4275944098553379  0.9383746657892758  1.0000
  C   C13       1.0  0.9418488218555511  0.600879807810557  0.053742829888449334  1.0000
  C   C14       1.0  0.0581199374171035  0.3990896849397032  0.9462659365718978  1.0000
  C   C15       1.0  0.19293051712602247  0.4702293384435236  0.006636161835885401  1.0000
  C   C16       1.0  0.8070564418101895  0.5297506422156812  0.9933724509767217  1.0000
  C   C17       1.0  0.3893968846866472  0.9815155995220337  0.3588015600127577  1.0000
  C   C18       1.0  0.6105962013233395  0.0184862979812479  0.6412143179481262  1.0000
  C   C19       1.0  0.49221150110475514  0.20775539594399814  0.4306334538024075  1.0000
  C   C20       1.0  0.5078009514241657  0.7922529161832514  0.5693714107468751  1.0000
  C   C21       1.0  0.1912902350220094  0.07792312567556789  0.45339289364351754  1.0000
  C   C22       1.0  0.8087119150810125  0.9220821326976391  0.5466027715802682  1.0000
  C   C23       1.0  0.6011550235124403  0.026699879923341996  0.13926731128179173  1.0000
  C   C24       1.0  0.39881021579576276  0.9732958649196278  0.8607338684892627  1.0000
  C   C25       1.0  0.5488911520857727  0.22911452134244567  0.06012715635014132  1.0000
  C   C26       1.0  0.4510434849547025  0.7708770945643051  0.9398658054256546  1.0000
  C   C27       1.0  0.830352437699247  0.08519896434780347  0.04955510556622761  1.0000
  C   C28       1.0  0.1696110772865111  0.9148113321845271  0.9504561114988948  1.0000
  S   S1        1.0  0.8881748795149704  0.7610772671241435  0.3216963378937123  1.0000
  S   S2        1.0  0.11184812548405888  0.23893447512181612  0.6782818305586391  1.0000
  S   S3        1.0  0.5291655643062825  0.6295491340219782  0.35922868798599694  1.0000
  S   S4        1.0  0.47090014503788774  0.3704571819005125  0.6407713129643968  1.0000
  S   S5        1.0  0.22857305631337974  0.7974019968002464  0.17413805474597416  1.0000
  S   S6        1.0  0.7714084790064106  0.2025821630347977  0.8258709550579512  1.0000
  S   S7        1.0  0.507710393320977  0.5883688878216161  0.14746103461590823  1.0000
  S   S8        1.0  0.4922807489596295  0.41162585252192935  0.8525382628789304  1.0000
  N   N1        1.0  0.3596070437026953  0.08419615918035107  0.4124512882733456  1.0000
  N   N2        1.0  0.6404107739410918  0.9158069710695284  0.5875489443341522  1.0000
  N   N3        1.0  0.6568849483423946  0.10927100154076187  0.08465744028247713  1.0000
  N   N4        1.0  0.34306455674658315  0.8907267710616297  0.9153487442175037  1.0000
  O   O1        1.0  0.5310461436071634  0.9824738992168278  0.32111705178874683  1.0000
  O   O2        1.0  0.46901522371546633  0.017515588890802295  0.6788897771488751  1.0000
  O   O3        1.0  0.6873444827284273  0.9216719319760212  0.1629915064283054  1.0000
  O   O4        1.0  0.31263477064396034  0.0783363430696369  0.8370141076508447  1.0000
