data_image0
_chemical_formula_structural       Zn4H25C49N5O17
_chemical_formula_sum              "Zn4 H25 C49 N5 O17"
_cell_length_a       19.166198453696257
_cell_length_b       19.222077406782113
_cell_length_c       19.524597504372174
_cell_angle_alpha    89.93194586582912
_cell_angle_beta     85.2287091809826
_cell_angle_gamma    85.53452251410286

_space_group_name_H-M_alt    "P 1"
_space_group_IT_number       1

loop_
  _space_group_symop_operation_xyz
  'x, y, z'

loop_
  _atom_site_type_symbol
  _atom_site_label
  _atom_site_symmetry_multiplicity
  _atom_site_fract_x
  _atom_site_fract_y
  _atom_site_fract_z
  _atom_site_occupancy
  Zn  Zn1       1.0  0.43939563921824737  0.5609990702361359  0.44214851400180777  1.0000
  Zn  Zn2       1.0  0.44228971166928227  0.4472803498420321  0.5627608044130666  1.0000
  Zn  Zn3       1.0  0.5528845522447837  0.5633367517646448  0.5529930246306307  1.0000
  Zn  Zn4       1.0  0.5655069567667682  0.438149279434306  0.44250098128998144  1.0000
  H   H1        1.0  0.3972093381122903  0.5318582824804281  0.23528674756980184  1.0000
  H   H2        1.0  0.5526656147007998  0.7754202960935858  0.569211361782365  1.0000
  H   H3        1.0  0.22188568915488824  0.5670830068827328  0.42414247399884875  1.0000
  H   H4        1.0  0.9161519166001924  0.4349186494539908  0.3951631951411656  1.0000
  H   H5        1.0  0.7844331733435368  0.4316658627271862  0.40078818289872226  1.0000
  H   H6        1.0  0.2273669079788547  0.4640883695043314  0.619971303285041  1.0000
  H   H7        1.0  0.8959656788012041  0.559982797069175  0.5791201400781885  1.0000
  H   H8        1.0  0.0954704334375478  0.46478182767225473  0.628422429175316  1.0000
  H   H9        1.0  0.7642921883088221  0.5607367819023139  0.5820528092765399  1.0000
  H   H10       1.0  0.45647645076433446  0.5488060149153497  0.008133312430871292  1.0000
  H   H11       1.0  0.5974069761363908  0.3984972681799661  0.10410216292969919  1.0000
  H   H12       1.0  0.3792756846206515  0.5541014638408086  0.9026888418944095  1.0000
  H   H13       1.0  0.5929347038660638  0.4632600889750691  0.8910055873321665  1.0000
  H   H14       1.0  0.5981827853341954  0.41460573610991264  0.23023777721620312  1.0000
  H   H15       1.0  0.6609939450452416  0.44595486554036523  0.7886684007446688  1.0000
  H   H16       1.0  0.02932262565497721  0.5982685875681569  0.4296599575970177  1.0000
  H   H17       1.0  0.5220027286302198  0.33480124836061265  0.03644431082254578  1.0000
  H   H18       1.0  0.36164977012023053  0.4833712630818708  0.059001345754396084  1.0000
  H   H19       1.0  0.559021289909424  0.2199153038147159  0.4063586902808751  1.0000
  H   H20       1.0  0.5523059458176078  0.08964623369642771  0.4095083894409654  1.0000
  H   H21       1.0  0.44615524891695896  0.9054375932184867  0.3781947036498605  1.0000
  H   H22       1.0  0.4426040076256399  0.7748897861296695  0.3861348664490618  1.0000
  H   H23       1.0  0.45907532214152985  0.2367000047145497  0.6117620467622727  1.0000
  H   H24       1.0  0.551752124434003  0.9061899471484836  0.5640137778041207  1.0000
  H   H25       1.0  0.4587148333929463  0.10577993581403428  0.6172766016060932  1.0000
  C   C1        1.0  0.5082261994891583  0.3132267885466362  0.5056314377451654  1.0000
  C   C2        1.0  0.5007255248708732  0.4470091543927452  0.02205513081371179  1.0000
  C   C3        1.0  0.48013226148335525  0.5014855048179997  0.9815837134046671  1.0000
  C   C4        1.0  0.4968786756964435  0.690473557466312  0.4835382759007912  1.0000
  C   C5        1.0  0.4917495256097623  0.5118394989305202  0.7609689451533865  1.0000
  C   C6        1.0  0.49712325766407156  0.76785353306245  0.478368703500365  1.0000
  C   C7        1.0  0.5285691532096877  0.8046203354207436  0.5282997103581477  1.0000
  C   C8        1.0  0.5282856297557785  0.8766771197585116  0.5254843788996694  1.0000
  C   C9        1.0  0.4977844242112823  0.912788963845195  0.4713481661030484  1.0000
  C   C10       1.0  0.4684058939053061  0.8761198268739461  0.42010549122955604  1.0000
  C   C11       1.0  0.4667849075744357  0.8040238960717048  0.4244209725187388  1.0000
  C   C12       1.0  0.49573757617491765  0.4545037465479495  0.09782586332688936  1.0000
  C   C13       1.0  0.5325343481161795  0.12258236133860123  0.4533550115124072  1.0000
  C   C14       1.0  0.5359198309463481  0.19444608710821848  0.45171601283522017  1.0000
  C   C15       1.0  0.5036582471863511  0.09106703030355591  0.5131424422752815  1.0000
  C   C16       1.0  0.31084010080193986  0.5122355909849646  0.5152643185199535  1.0000
  C   C17       1.0  0.5084290557872535  0.23570341712819248  0.5085018916687928  1.0000
  C   C18       1.0  0.4799346411794758  0.20398388707069162  0.5681313780325253  1.0000
  C   C19       1.0  0.47927121810153755  0.13184536484371281  0.5711330112515112  1.0000
  C   C20       1.0  0.7671172207876823  0.49572099813686776  0.4920131785426916  1.0000
  C   C21       1.0  0.798225094571734  0.5324253300584516  0.5422022517094047  1.0000
  C   C22       1.0  0.8706794246939962  0.5322620997718205  0.5405884651537463  1.0000
  C   C23       1.0  0.5526007049263911  0.4265342058610744  0.13291991271014328  1.0000
  C   C24       1.0  0.9127822201061022  0.49632346789339  0.48752371364443553  1.0000
  C   C25       1.0  0.8819700264734961  0.46126573286350253  0.43616909635543516  1.0000
  C   C26       1.0  0.8093594189426413  0.4598392629401075  0.43924535301055545  1.0000
  C   C27       1.0  0.12169412404617928  0.5417732251445743  0.47096881317963807  1.0000
  C   C28       1.0  0.6889487140932999  0.4961593619456722  0.4946960869612055  1.0000
  C   C29       1.0  0.19474419898128295  0.5431169348667667  0.4683259761452587  1.0000
  C   C30       1.0  0.0866354538919794  0.5116383021160756  0.5292551315589975  1.0000
  C   C31       1.0  0.23257591750989096  0.5140761447054557  0.520911161256599  1.0000
  C   C32       1.0  0.197075445891862  0.4856880925715218  0.5790681350480325  1.0000
  C   C33       1.0  0.12445761981250311  0.48609589951539794  0.5838433755716392  1.0000
  C   C34       1.0  0.5539780174330103  0.436273147387631  0.20330153111827798  1.0000
  C   C35       1.0  0.49297953432029834  0.5119171058745877  0.6837597871318335  1.0000
  C   C36       1.0  0.5009961178404723  0.4864733948369207  0.3162484011295916  1.0000
  C   C37       1.0  0.4986631513676869  0.4754438647213703  0.24058579062407393  1.0000
  C   C38       1.0  0.4413668870973098  0.5027263664834365  0.20674964022483514  1.0000
  C   C39       1.0  0.43848935157869556  0.4912233922052566  0.13619206606534107  1.0000
  C   C40       1.0  0.6165102854948401  0.45819763803695673  0.7559597022735642  1.0000
  C   C41       1.0  0.08430258403551252  0.5771080475827545  0.4152971944153021  1.0000
  C   C42       1.0  0.36974289582716585  0.5624932608754207  0.7678367426612878  1.0000
  C   C43       1.0  0.5243685405745424  0.37547577547001515  0.9956253733768745  1.0000
  C   C44       1.0  0.37210674278766476  0.5136711564322952  0.10534137694907739  1.0000
  C   C45       1.0  0.5467032239543812  0.48328696216256617  0.8662066426958642  1.0000
  C   C46       1.0  0.5505663263902251  0.48634309714108076  0.7945957596282935  1.0000
  C   C47       1.0  0.4302687693705138  0.5364223456412063  0.8008679443951792  1.0000
  C   C48       1.0  0.42756235858782077  0.5344905400318325  0.873056670631392  1.0000
  C   C49       1.0  0.48488635828097426  0.5054484885236761  0.9064704917483297  1.0000
  N   N1        1.0  0.4966347367229105  0.9859737730527556  0.46409635453244374  1.0000
  N   N2        1.0  0.49937678782229983  0.018480053953126695  0.5200761326711711  1.0000
  N   N3        1.0  0.9867495394231653  0.49511839938146807  0.4810304559626246  1.0000
  N   N4        1.0  0.014159744250093776  0.5053827235716641  0.5366394479021392  1.0000
  N   N5        1.0  0.3203600800358899  0.5829098431614811  0.740336899184342  1.0000
  O   O1        1.0  0.5001737552720655  0.5024305258067656  0.49935801789523265  1.0000
  O   O2        1.0  0.46064022282645567  0.4638660343950534  0.6592061318163686  1.0000
  O   O3        1.0  0.551377461373349  0.45332665359401864  0.3442469281198583  1.0000
  O   O4        1.0  0.5227080867425825  0.5608493822014466  0.6524433148459037  1.0000
  O   O5        1.0  0.4526674010906363  0.5278683564288472  0.34588090197455296  1.0000
  O   O6        1.0  0.623446272622637  0.44749831325596284  0.693967136023346  1.0000
  O   O7        1.0  0.11228055396367861  0.5864433117468195  0.35761353651599836  1.0000
  O   O8        1.0  0.5426262913293057  0.35854096483204506  0.9359679461651637  1.0000
  O   O9        1.0  0.32941294760104256  0.5599496654823285  0.12892196762403063  1.0000
  O   O10       1.0  0.33967983043226  0.5517223673938149  0.4705773084893961  1.0000
  O   O11       1.0  0.6637360765773649  0.4542677294824671  0.4541823415941477  1.0000
  O   O12       1.0  0.46559693320686074  0.3471673017665892  0.5495558984163437  1.0000
  O   O13       1.0  0.5349542877113933  0.6611384263395124  0.5276181282585168  1.0000
  O   O14       1.0  0.5496365964494102  0.33938882068780174  0.4595359614281944  1.0000
  O   O15       1.0  0.45885317333694786  0.6597617519452684  0.4440391207333219  1.0000
  O   O16       1.0  0.3421475639075808  0.470190393519971  0.5555141015131894  1.0000
  O   O17       1.0  0.654013665096457  0.5386960627119919  0.5372091889576609  1.0000
