data_image0
_chemical_formula_structural       Cu8H52C36S8N4Cl8
_chemical_formula_sum              "Cu8 H52 C36 S8 N4 Cl8"
_cell_length_a       7.935439418448
_cell_length_b       11.880556718735665
_cell_length_c       14.48357101092021
_cell_angle_alpha    93.06460301286852
_cell_angle_beta     91.12274467167154
_cell_angle_gamma    105.85351224262581

_space_group_name_H-M_alt    "P 1"
_space_group_IT_number       1

loop_
  _space_group_symop_operation_xyz
  'x, y, z'

loop_
  _atom_site_type_symbol
  _atom_site_label
  _atom_site_symmetry_multiplicity
  _atom_site_fract_x
  _atom_site_fract_y
  _atom_site_fract_z
  _atom_site_occupancy
  Cu  Cu1       1.0  0.6849574762131779  0.9630823639911839  0.234479084781789  1.0000
  Cu  Cu2       1.0  0.3150496055030417  0.036919498927837  0.7655191597559395  1.0000
  Cu  Cu3       1.0  0.5362993637521711  0.7301875337995652  0.23671489171616145  1.0000
  Cu  Cu4       1.0  0.46370179827830066  0.2698152269671965  0.763281937640514  1.0000
  Cu  Cu5       1.0  0.5069374298461966  0.2440138601861364  0.2575797806646136  1.0000
  Cu  Cu6       1.0  0.49306241334527096  0.7559827590547812  0.7424195275456926  1.0000
  Cu  Cu7       1.0  0.6609038558515934  0.4641121702967936  0.2538510118346551  1.0000
  Cu  Cu8       1.0  0.339088258977526  0.5358871068060438  0.7461510778474505  1.0000
  H   H1        1.0  0.087206833331571  0.1486043655283282  0.23911401000421514  1.0000
  H   H2        1.0  0.9128023570561083  0.8513966096919319  0.7608918169485008  1.0000
  H   H3        1.0  0.2054845925743862  0.05819687028768069  0.2875350498209528  1.0000
  H   H4        1.0  0.794521158654895  0.9417988503451441  0.7124677447150065  1.0000
  H   H5        1.0  0.9279074001385224  0.8290268749141416  0.3398165721969733  1.0000
  H   H6        1.0  0.07208954414223  0.1709688749755571  0.6601854241577811  1.0000
  H   H7        1.0  0.8590775402374362  0.8756836432381689  0.4478085895185871  1.0000
  H   H8        1.0  0.1409179885450271  0.12431474506397679  0.5521928134000619  1.0000
  H   H9        1.0  0.08670096310406439  0.9211290934556614  0.4221714208431919  1.0000
  H   H10       1.0  0.9132963432938438  0.07886753280468638  0.5778313084748703  1.0000
  H   H11       1.0  0.3052763722497077  0.9942902401155892  0.1436456185907034  1.0000
  H   H12       1.0  0.6947321579351422  0.005715128286027501  0.8563555578002708  1.0000
  H   H13       1.0  0.23092161415186735  0.8686291995972792  0.9946957492983302  1.0000
  H   H14       1.0  0.769089650370283  0.13137967191774183  0.005303541675118597  1.0000
  H   H15       1.0  0.9134071315311302  0.784211883425641  0.9465637534600263  1.0000
  H   H16       1.0  0.08660613532871511  0.2157987379545858  0.053433566932334  1.0000
  H   H17       1.0  0.6147849986727036  0.7979976501560909  0.962637332181558  1.0000
  H   H18       1.0  0.38522192235274844  0.20200684677858052  0.0373610247015606  1.0000
  H   H19       1.0  0.5577053176088782  0.8754585924780399  0.0627381591150069  1.0000
  H   H20       1.0  0.44229798415420146  0.12454328261757301  0.9372607296043967  1.0000
  H   H21       1.0  0.3530953372249003  0.6226637522138035  0.9612665552031389  1.0000
  H   H22       1.0  0.6469162195910839  0.37733370762834534  0.0387294822808641  1.0000
  H   H23       1.0  0.2537797894327483  0.6791851156063089  0.05813431429597671  1.0000
  H   H24       1.0  0.7462292500029051  0.3208123525225375  0.9418616923881233  1.0000
  H   H25       1.0  0.2831829794202533  0.5341377413817979  0.05666866822858199  1.0000
  H   H26       1.0  0.7168318112451004  0.4658614624080498  0.9433302467450204  1.0000
  H   H27       1.0  0.5625603655648773  0.44055918586271753  0.43767752023399004  1.0000
  H   H28       1.0  0.43743369533573434  0.5594356956895794  0.5623244027390797  1.0000
  H   H29       1.0  0.5964667135163211  0.3592839354931315  0.533642693507666  1.0000
  H   H30       1.0  0.4035255251505844  0.6407065634455761  0.4663576357934432  1.0000
  H   H31       1.0  0.6529195779970536  0.12806770204141318  0.4352154608113211  1.0000
  H   H32       1.0  0.34707196164058024  0.8719271875441237  0.5647871217433718  1.0000
  H   H33       1.0  0.4329709181804589  0.0392351471275774  0.4230430893445175  1.0000
  H   H34       1.0  0.5670188438417298  0.9607615044997571  0.576958166810762  1.0000
  H   H35       1.0  0.5062696533512608  0.1280482681688113  0.529161454085525  1.0000
  H   H36       1.0  0.49371921986320894  0.8719492644794257  0.4708391388700477  1.0000
  H   H37       1.0  0.8843791704817292  0.3323131033955633  0.556126134525563  1.0000
  H   H38       1.0  0.11561343030233209  0.6676782719137859  0.4438749277388609  1.0000
  H   H39       1.0  0.1820988383196749  0.34225853340686996  0.4953267691726567  1.0000
  H   H40       1.0  0.8178977923448301  0.6577424850210251  0.5046740711097968  1.0000
  H   H41       1.0  0.23546368201178322  0.38532628443680755  0.3276092838990366  1.0000
  H   H42       1.0  0.7645304603600775  0.6146808859193627  0.672394554382187  1.0000
  H   H43       1.0  0.9216123048371613  0.3348444394204151  0.16227785413686044  1.0000
  H   H44       1.0  0.07837765084613572  0.665155722086311  0.8377256280901835  1.0000
  H   H45       1.0  0.13361515602093724  0.4355369151983408  0.18344651926900468  1.0000
  H   H46       1.0  0.8663749797663411  0.5644606135599942  0.8165533987049899  1.0000
  H   H47       1.0  0.006264878791924296  0.6542073514487611  0.29572278985559564  1.0000
  H   H48       1.0  0.9937316067123872  0.3457963020085871  0.7042754012461075  1.0000
  H   H49       1.0  0.001814667360477518  0.7313974527508832  0.1936570524509591  1.0000
  H   H50       1.0  0.9981803657925709  0.2686026949704257  0.8063388971790392  1.0000
  H   H51       1.0  0.17341697918019613  0.6636897156302269  0.2119859751776758  1.0000
  H   H52       1.0  0.8265776802077623  0.33630955496008136  0.7880113126336001  1.0000
  C   C1        1.0  0.03406019069939973  0.9764296481010676  0.17221669817672594  1.0000
  C   C2        1.0  0.965943099415739  0.023572226234193697  0.8277842616872775  1.0000
  C   C3        1.0  0.076952643451115  0.05830160841944831  0.2578794827655031  1.0000
  C   C4        1.0  0.9230513340453681  0.9416958745086177  0.7421212949895165  1.0000
  C   C5        1.0  0.9525469763860953  0.9014072327827664  0.3928224959422836  1.0000
  C   C6        1.0  0.04745070765955011  0.09859027086204011  0.6071782048129608  1.0000
  C   C7        1.0  0.1694520868333028  0.955376294498478  0.11999704116580999  1.0000
  C   C8        1.0  0.8305534031632859  0.04463083983483071  0.8800034838073287  1.0000
  C   C9        1.0  0.1281494898665798  0.8852512629067775  0.0379153276281485  1.0000
  C   C10       1.0  0.8718580063503509  0.11475762154518783  0.9620825363823756  1.0000
  C   C11       1.0  0.9526106208482827  0.8390739920633193  0.01034350643162439  1.0000
  C   C12       1.0  0.04739887382370259  0.1609366420004008  0.9896530773793445  1.0000
  C   C13       1.0  0.8230204159435456  0.864066297843912  0.06529084884765268  1.0000
  C   C14       1.0  0.1769863482737861  0.1359408333598537  0.9347069299993152  1.0000
  C   C15       1.0  0.6334281970293246  0.8158700488501722  0.0378099937546565  1.0000
  C   C16       1.0  0.3665812413764655  0.184134439797802  0.962188393928365  1.0000
  C   C17       1.0  0.33786707217930717  0.6240299460212313  0.03634535502863661  1.0000
  C   C18       1.0  0.6621443122979825  0.37597014707620957  0.9636528659453563  1.0000
  C   C19       1.0  0.7855863019625319  0.3723471449321066  0.4262409870439043  1.0000
  C   C20       1.0  0.2144090137456088  0.6276477322233943  0.5737616417106538  1.0000
  C   C21       1.0  0.6057188945765121  0.36492614684603103  0.4585203984480942  1.0000
  C   C22       1.0  0.3942780574695276  0.6350696035505691  0.5414802171435937  1.0000
  C   C23       1.0  0.5174887046398098  0.12227655780439049  0.4537254823511958  1.0000
  C   C24       1.0  0.48250519945268183  0.8777209580170081  0.5462758625857234  1.0000
  C   C25       1.0  0.9142443608362355  0.3511829113314563  0.484488586088709  1.0000
  C   C26       1.0  0.08575060052003637  0.6488110899602972  0.5155119289394748  1.0000
  C   C27       1.0  0.0790978376868665  0.3567503334438769  0.45042916959085494  1.0000
  C   C28       1.0  0.9208940640679301  0.6432454325123089  0.5495741459271457  1.0000
  C   C29       1.0  0.10953356962073  0.38110222172043245  0.3581294115673686  1.0000
  C   C30       1.0  0.8904597961332713  0.6188970507321512  0.6418740742777588  1.0000
  C   C31       1.0  0.9744003164032975  0.399074182151729  0.302733058297136  1.0000
  C   C32       1.0  0.02559053973565283  0.6009250990944537  0.6972690159850147  1.0000
  C   C33       1.0  0.995314537205509  0.416600616725482  0.20110765667725872  1.0000
  C   C34       1.0  0.004680087238654059  0.5833986515837566  0.7988958445678167  1.0000
  C   C35       1.0  0.03406830040627538  0.6558579677302916  0.2219231235581915  1.0000
  C   C36       1.0  0.9659270870986418  0.344143055854758  0.778074939798181  1.0000
  S   S1        1.0  0.9148663232605613  0.030994231505530902  0.3461632397710872  1.0000
  S   S2        1.0  0.08513513297293679  0.9690032594557818  0.6538381975655553  1.0000
  S   S3        1.0  0.5544294568676308  0.6748082174967536  0.09043084144356331  1.0000
  S   S4        1.0  0.4455796155383567  0.3251953945271282  0.9095675036576766  1.0000
  S   S5        1.0  0.44323826970681063  0.2369850075850124  0.4043571966090696  1.0000
  S   S6        1.0  0.5567574391796413  0.7630107479687496  0.5956406420565372  1.0000
  S   S7        1.0  0.8983781021526056  0.5267475622316837  0.15904321410626213  1.0000
  S   S8        1.0  0.10161401267650656  0.47325171487115364  0.8409588755758366  1.0000
  N   N1        1.0  0.8633711060851539  0.9298425679685565  0.14618468370242252  1.0000
  N   N2        1.0  0.13663723043858766  0.07015929055366849  0.8538142666168015  1.0000
  N   N3        1.0  0.8162887014093059  0.397013920135457  0.3368925705508374  1.0000
  N   N4        1.0  0.18370557256563566  0.6029844725634916  0.6631081265863302  1.0000
  Cl  Cl1       1.0  0.6232200407723738  0.6250145604084665  0.34338327312857336  1.0000
  Cl  Cl2       1.0  0.376766326709692  0.3749829812868198  0.6566152178824965  1.0000
  Cl  Cl3       1.0  0.40687699602833755  0.3698204685820913  0.1697864166610898  1.0000
  Cl  Cl4       1.0  0.593119071092616  0.6301761630888619  0.830212845349358  1.0000
  Cl  Cl5       1.0  0.636325551878201  0.13445240757040716  0.1687840391200695  1.0000
  Cl  Cl6       1.0  0.3636815298380183  0.8655494553486204  0.8312142054176663  1.0000
  Cl  Cl7       1.0  0.4188257720049647  0.8717291341918807  0.29144853091678874  1.0000
  Cl  Cl8       1.0  0.5811796850212899  0.12827185624639267  0.7085496556392173  1.0000
