data_image0
_chemical_formula_structural       Na4H56C40Cl4O32
_chemical_formula_sum              "Na4 H56 C40 Cl4 O32"
_cell_length_a       9.263927966
_cell_length_b       9.667963360853959
_cell_length_c       16.738
_cell_angle_alpha    90.0
_cell_angle_beta     90.0
_cell_angle_gamma    115.57982128550256

_space_group_name_H-M_alt    "P 1"
_space_group_IT_number       1

loop_
  _space_group_symop_operation_xyz
  'x, y, z'

loop_
  _atom_site_type_symbol
  _atom_site_label
  _atom_site_symmetry_multiplicity
  _atom_site_fract_x
  _atom_site_fract_y
  _atom_site_fract_z
  _atom_site_occupancy
  Na  Na1       1.0  0.6355681736631383  0.2556627716250119  0.0075176245668516  1.0000
  Na  Na2       1.0  0.36442988974810936  0.24433983744323476  0.5075188194527414  1.0000
  Na  Na3       1.0  0.3644246792844685  0.7443332725724974  0.9924817779902  1.0000
  Na  Na4       1.0  0.6355703813493392  0.7556630872085108  0.4924811805472586  1.0000
  H   H1        1.0  0.9336589459202003  0.5524660725902706  0.9265647030708593  1.0000
  H   H2        1.0  0.06632813382920948  0.9475245534788854  0.4265641056279108  1.0000
  H   H3        1.0  0.06632277980263271  0.4475196509258978  0.0734335046003096  1.0000
  H   H4        1.0  0.9336790847103134  0.05248181139997851  0.5734335046003096  1.0000
  H   H5        1.0  0.15256116641959494  0.8912367041460243  0.0479250806547995  1.0000
  H   H6        1.0  0.8474246958339222  0.6087608023773612  0.5479232883259613  1.0000
  H   H7        1.0  0.8474409309216782  0.1087558998243736  0.9520773091169801  1.0000
  H   H8        1.0  0.15256754836573802  0.3912386820472662  0.4520773091169801  1.0000
  H   H9        1.0  0.9741708017939601  0.7576274568918607  0.0033952682518787  1.0000
  H   H10       1.0  0.02581881554787204  0.7423711963738953  0.5033952682518787  1.0000
  H   H11       1.0  0.025829515316878812  0.2423731742751372  0.9966041343051727  1.0000
  H   H12       1.0  0.9741787799169758  0.25763058153548  0.49660532919106254  1.0000
  H   H13       1.0  0.9645101397456843  0.8945897788419472  0.1471436252837819  1.0000
  H   H14       1.0  0.035474310384522305  0.6053974070000905  0.6471418329549508  1.0000
  H   H15       1.0  0.035487031024786106  0.105406265355569  0.8528551798303283  1.0000
  H   H16       1.0  0.9645233310937229  0.3946020774245369  0.3528587644879906  1.0000
  H   H17       1.0  0.8234392359291505  0.6770091746508768  0.2332787668777598  1.0000
  H   H18       1.0  0.17655699618715212  0.8229825981606498  0.7332775719918772  1.0000
  H   H19       1.0  0.17655572991649393  0.3229891630313801  0.7667224280081228  1.0000
  H   H20       1.0  0.8234475927331603  0.1770203264910961  0.2667206356792917  1.0000
  H   H21       1.0  0.7335482050883542  0.42094963016512577  0.1807294778348663  1.0000
  H   H22       1.0  0.2664496176820705  0.07903807125228471  0.680725893177204  1.0000
  H   H23       1.0  0.2664468067706808  0.5790464140323834  0.8192729119369133  1.0000
  H   H24       1.0  0.733550745442159  0.9209602664299794  0.3192711196080751  1.0000
  H   H25       1.0  0.9401919399286598  0.46884791230395717  0.190883020671528  1.0000
  H   H26       1.0  0.05981114208017151  0.0311466695676899  0.6908812283426897  1.0000
  H   H27       1.0  0.059802601222600164  0.5311446916664408  0.8091133946708098  1.0000
  H   H28       1.0  0.9401950890304108  0.9688551083416854  0.3091145895566996  1.0000
  H   H29       1.0  0.6289161866391098  0.5793411268220083  0.0652294180905741  1.0000
  H   H30       1.0  0.3710814576005106  0.9206609666708658  0.5652300155335155  1.0000
  H   H31       1.0  0.37107817045858843  0.42066065108736694  0.9347699844664845  1.0000
  H   H32       1.0  0.6289262776601704  0.0793465449503685  0.4347735691241468  1.0000
  H   H33       1.0  0.6813721872706539  0.864026801141641  0.9060933205878854  1.0000
  H   H34       1.0  0.3186350800436344  0.6359798793207219  0.4060969052455476  1.0000
  H   H35       1.0  0.31864281752583407  0.1359680963134977  0.0939060819691733  1.0000
  H   H36       1.0  0.681357450810232  0.3640322192700012  0.5939096666268355  1.0000
  H   H37       1.0  0.7562777860238441  0.7569290907872741  0.9641145895567006  1.0000
  H   H38       1.0  0.243727839100174  0.7430787364174591  0.464118174214363  1.0000
  H   H39       1.0  0.2437345431400431  0.2430646599254942  0.0358830206715268  1.0000
  H   H40       1.0  0.7562662419171886  0.2569368024003751  0.5358860078862477  1.0000
  H   H41       1.0  0.846654961294803  0.8272370123610173  0.8056410562791285  1.0000
  H   H42       1.0  0.15334277497159837  0.6727604941623683  0.305643446050901  1.0000
  H   H43       1.0  0.15333873046769506  0.17274412418566246  0.1943541641773194  1.0000
  H   H44       1.0  0.8466626633374761  0.32725389791309584  0.6943559565061506  1.0000
  H   H45       1.0  0.7775601024418606  0.5812160506003323  0.7461990679890036  1.0000
  H   H46       1.0  0.2224397007091882  0.918786042892542  0.2461990679890036  1.0000
  H   H47       1.0  0.22242063585203206  0.4187650859463404  0.2538009320109964  1.0000
  H   H48       1.0  0.777582400143409  0.0812317894100403  0.7538015294539377  1.0000
  H   H49       1.0  0.6499074948667954  0.348779398979147  0.826440434938462  1.0000
  H   H50       1.0  0.3501040847475991  0.1512220633467223  0.3264392400525722  1.0000
  H   H51       1.0  0.35007751523657765  0.6512040310522735  0.1735601625044794  1.0000
  H   H52       1.0  0.6499137442955246  0.848793475471112  0.6735619548333105  1.0000
  H   H53       1.0  0.487743623075602  0.3979264835611573  0.8146146493009923  1.0000
  H   H54       1.0  0.5122632140215373  0.1020692450528529  0.3146176365157132  1.0000
  H   H55       1.0  0.5122451421160791  0.6020580932126336  0.1853847532560664  1.0000
  H   H56       1.0  0.48775189337559527  0.8979474405073518  0.6853865455848975  1.0000
  C   C1        1.0  0.9899858187787984  0.4845215870453501  0.9547180069303352  1.0000
  C   C2        1.0  0.010007502115200902  0.0154752883110305  0.4547180069303352  1.0000
  C   C3        1.0  0.009996940386365314  0.5154664299555591  0.0452802007408266  1.0000
  C   C4        1.0  0.9899938484379619  0.9845276363407153  0.5452796032978853  1.0000
  C   C5        1.0  0.049683781459535226  0.7799086611811035  0.0572308519536406  1.0000
  C   C6        1.0  0.9503042857188078  0.7200865518575341  0.5572278647389197  1.0000
  C   C7        1.0  0.9503204287797831  0.2200862362740352  0.9427721352610803  1.0000
  C   C8        1.0  0.049690588100055846  0.27991637279421167  0.4427751224758012  1.0000
  C   C9        1.0  0.9609179415295944  0.7833649426905112  0.1316865814314738  1.0000
  C   C10       1.0  0.039081160846734554  0.7166451779989629  0.6316937507468054  1.0000
  C   C11       1.0  0.03907988400220571  0.2166253677951389  0.8683176006691369  1.0000
  C   C12       1.0  0.9609191102507069  0.2833577466527828  0.3683104313538053  1.0000
  C   C13       1.0  0.8803481476465862  0.6625086173560959  0.1788302067152614  1.0000
  C   C14       1.0  0.11963028588321836  0.8374556336384984  0.6788236348428711  1.0000
  C   C15       1.0  0.11965165274308734  0.3374908670685315  0.8211662086270763  1.0000
  C   C16       1.0  0.8803685730909052  0.1625369703318995  0.3211757677141804  1.0000
  C   C17       1.0  0.8531351560130959  0.5011722862877549  0.1606081969171953  1.0000
  C   C18       1.0  0.1468615007975914  0.9988252202356308  0.6606070020313055  1.0000
  C   C19       1.0  0.14685666349218  0.4988214644250135  0.8393918030828047  1.0000
  C   C20       1.0  0.8531403664767298  0.0011788511584854004  0.3393918030828047  1.0000
  C   C21       1.0  0.5062435273159736  0.5018935872397847  0.046146493009914  1.0000
  C   C22       1.0  0.4937546796581957  0.9981073595107192  0.5461482853387523  1.0000
  C   C23       1.0  0.4937531267333243  0.4981013102153611  0.9538523121041962  1.0000
  C   C24       1.0  0.5062497712219454  0.0019024455952561003  0.4538552993189171  1.0000
  C   C25       1.0  0.6861334970157031  0.7527411876444887  0.9102539132512817  1.0000
  C   C26       1.0  0.31387325357742674  0.7472643460755037  0.4102539132512817  1.0000
  C   C27       1.0  0.31387291814844087  0.24725141632590922  0.0897454893057699  1.0000
  C   C28       1.0  0.6861257540107459  0.2527477525152193  0.5897496714063806  1.0000
  C   C29       1.0  0.7595213382923873  0.7247916358101207  0.8356972159158786  1.0000
  C   C30       1.0  0.24048316136252634  0.7752184848793533  0.3356990082447098  1.0000
  C   C31       1.0  0.24048221718560114  0.275208995356877  0.1643033815270627  1.0000
  C   C32       1.0  0.7595191766195697  0.2247890267418811  0.6643051738558938  1.0000
  C   C33       1.0  0.7225782557260915  0.5875265738738165  0.8029597323455633  1.0000
  C   C34       1.0  0.27742281093424037  0.9124663456800803  0.3029669016608949  1.0000
  C   C35       1.0  0.27740595100191  0.412443095249138  0.1970336957820535  1.0000
  C   C36       1.0  0.7225910789670067  0.0875572203343609  0.6970360855538331  1.0000
  C   C37       1.0  0.6098263703042762  0.4381140699902134  0.8389861393236941  1.0000
  C   C38       1.0  0.39018089148724755  0.0618873923356631  0.3389849444378044  1.0000
  C   C39       1.0  0.39015868581248736  0.5618670665564667  0.1610150555621956  1.0000
  C   C40       1.0  0.6098358120867644  0.938130439966919  0.6610174453339681  1.0000
  Cl  Cl1       1.0  0.6085841420646717  0.9789430009887496  0.1218090572350334  1.0000
  Cl  Cl2       1.0  0.39142368798417243  0.5210625327312357  0.6218126418927028  1.0000
  Cl  Cl3       1.0  0.3914118112099061  0.021059923662996  0.8781879555502456  1.0000
  Cl  Cl4       1.0  0.6085868149358903  0.4789415386628804  0.3781867606643559  1.0000
  O   O1        1.0  0.5960268903704389  0.9276916441540025  0.203858286533638  1.0000
  O   O2        1.0  0.4039849814209333  0.5723276504744491  0.7038600788624692  1.0000
  O   O3        1.0  0.40397009634646963  0.0723135739824841  0.7961399211375308  1.0000
  O   O4        1.0  0.596022799853138  0.4276775676620375  0.2961393236945895  1.0000
  O   O5        1.0  0.7143384689222785  0.1437911727757353  0.1170486318556598  1.0000
  O   O6        1.0  0.2856709517806806  0.3562102895501341  0.6170587883857124  1.0000
  O   O7        1.0  0.28565645090997555  0.8562094583912626  0.8829477834866779  1.0000
  O   O8        1.0  0.7143379549624954  0.6437926351016117  0.3829406141713463  1.0000
  O   O9        1.0  0.44908008122182264  0.9532467979154973  0.0915886007886257  1.0000
  O   O10       1.0  0.550925681942367  0.5467541488350065  0.5915927828892364  1.0000
  O   O11       1.0  0.5509126336856057  0.0467561267362484  0.908407814553712  1.0000
  O   O12       1.0  0.44908707191590497  0.4532453355896209  0.408407814553712  1.0000
  O   O13       1.0  0.6713171940155291  0.8946883986859433  0.0710180427769131  1.0000
  O   O14       1.0  0.32868964860438155  0.6053125480645605  0.5710174453339718  1.0000
  O   O15       1.0  0.3286782425378903  0.105313379223432  0.9289783725654175  1.0000
  O   O16       1.0  0.671325688859703  0.3946926700719332  0.4289783725654175  1.0000
  O   O17       1.0  0.1435575041268038  0.5240727314579132  0.9244342215318468  1.0000
  O   O18       1.0  0.8564427237186296  0.9759350957468201  0.4244354164177295  1.0000
  O   O19       1.0  0.85643314389597  0.4759256062243438  0.0755657784681532  1.0000
  O   O20       1.0  0.14356087777274953  0.024063241935437  0.5755609989246011  1.0000
  O   O21       1.0  0.8822887825403214  0.3294716976606722  0.9375540685864507  1.0000
  O   O22       1.0  0.1177095109378712  0.1705194439838493  0.4375564583582303  1.0000
  O   O23       1.0  0.11770317500512566  0.6705151725978667  0.0624441390847181  1.0000
  O   O24       1.0  0.8822896807038632  0.8294834806678963  0.5624441390847181  1.0000
  O   O25       1.0  0.39451540960604353  0.5523685994886449  0.0744599115784439  1.0000
  O   O26       1.0  0.605481763925802  0.9476300537771181  0.5744623013502235  1.0000
  O   O27       1.0  0.605470025191714  0.4476205642546418  0.925538296092725  1.0000
  O   O28       1.0  0.3945307138521273  0.0523831915559754  0.4255412833074459  1.0000
  O   O29       1.0  0.4796712181468409  0.3561323110688335  0.0785583701756494  1.0000
  O   O30       1.0  0.5203262825298438  0.1438714447417837  0.5785601625044805  1.0000
  O   O31       1.0  0.5203377346097255  0.6438683200981643  0.92144521448202  1.0000
  O   O32       1.0  0.4796700954391185  0.8561372136218282  0.42144521448202  1.0000
