data_image0
_chemical_formula_structural       Br4C54Cl4H20N16Zn4
_chemical_formula_sum              "Br4 C54 Cl4 H20 N16 Zn4"
_cell_length_a       18.57553355210399
_cell_length_b       18.84619744643929
_cell_length_c       18.77765272302249
_cell_angle_alpha    103.61194374118543
_cell_angle_beta     109.8367763852372
_cell_angle_gamma    110.1452006100735

_space_group_name_H-M_alt    "P 1"
_space_group_IT_number       1

loop_
  _space_group_symop_operation_xyz
  'x, y, z'

loop_
  _atom_site_type_symbol
  _atom_site_label
  _atom_site_symmetry_multiplicity
  _atom_site_fract_x
  _atom_site_fract_y
  _atom_site_fract_z
  _atom_site_occupancy
  Br  Br1       1.0  0.43545503582664213  0.08348350353737996  0.16586232313293436  1.0000
  Br  Br2       1.0  0.426827321401653  0.15568185066079815  0.03176922833631577  1.0000
  Br  Br3       1.0  0.31027175884377545  0.8943624094813527  0.0352913886252323  1.0000
  Br  Br4       1.0  0.2530059100204624  0.9815716729679235  0.9214937820359947  1.0000
  C   C1        1.0  0.9578670420813041  0.4423296111235047  0.2593330200630604  1.0000
  C   C2        1.0  0.9634464316986636  0.25839623674821877  0.45271225259331527  1.0000
  C   C3        1.0  0.10008812341369118  0.7352625422614593  0.4356581379981819  1.0000
  C   C4        1.0  0.10199962385470222  0.4395176679010715  0.7386084826308944  1.0000
  C   C5        1.0  0.9600628521877538  0.39011413123617433  0.6888604495121982  1.0000
  C   C6        1.0  0.9580648885527979  0.6854410918477924  0.3852236431921978  1.0000
  C   C7        1.0  0.8484665127567935  0.5778954232209729  0.5778729119823893  1.0000
  C   C8        1.0  0.20233722370987545  0.7268241902850361  0.7265314911971783  1.0000
  C   C9        1.0  0.033701973459017286  0.7577755068883362  0.40913920505282414  1.0000
  C   C10       1.0  0.03533099671960828  0.4136083932402028  0.7612817194277071  1.0000
  C   C11       1.0  0.5203527020731542  0.9824428263163155  0.06758776575150444  1.0000
  C   C12       1.0  0.5238031112261294  0.06397433766316826  0.9808636127888234  1.0000
  C   C13       1.0  0.43715906882692906  0.9988812924816695  0.9059744358411732  1.0000
  C   C14       1.0  0.45514493704995135  0.9102392090470062  0.9834549302775173  1.0000
  C   C15       1.0  0.26155333831677313  0.7990176244801078  0.798662787571928  1.0000
  C   C16       1.0  0.5205096052742206  0.0634110250723552  0.062474119840352685  1.0000
  C   C17       1.0  0.38797453388129793  0.9331580118645062  0.9318533676898609  1.0000
  C   C18       1.0  0.09791212041438514  0.33344180637066506  0.47859142223882145  1.0000
  C   C19       1.0  0.09414804213822943  0.4741554057657708  0.33457908453620877  1.0000
  C   C20       1.0  0.35505575334561  0.9736700676160694  0.9885031681452359  1.0000
  C   C21       1.0  0.4328050882673863  0.06053002489795029  0.057006291700922376  1.0000
  C   C22       1.0  0.31719228370216945  0.8606507336608045  0.8599832724447861  1.0000
  C   C23       1.0  0.5929039306322323  0.13563195695449787  0.13325705718074227  1.0000
  C   C24       1.0  0.6483848757784615  0.19770582116349536  0.1941367024963938  1.0000
  C   C25       1.0  0.04488772442666546  0.17866835677473603  0.43671308712001183  1.0000
  C   C26       1.0  0.03988965883837642  0.42838558502617013  0.17914813396002668  1.0000
  C   C27       1.0  0.046287953235712075  0.11225883403487555  0.4261276045722155  1.0000
  C   C28       1.0  0.04218540324181671  0.4198871820620127  0.11303313943709269  1.0000
  C   C29       1.0  0.04725736222221138  0.04005232105139097  0.41771884019108535  1.0000
  C   C30       1.0  0.04426803837155546  0.4142935963199789  0.04135277443826608  1.0000
  C   C31       1.0  0.046344554336080514  0.973095285596571  0.41273097096207306  1.0000
  C   C32       1.0  0.04467599051481847  0.41222125533386134  0.9751605498369357  1.0000
  C   C33       1.0  0.04379662455943402  0.900439632214507  0.4095122247551614  1.0000
  C   C34       1.0  0.04343748640243924  0.4115129302747675  0.9032292807852755  1.0000
  C   C35       1.0  0.3098764285920054  0.6110687673379686  0.5345823183353672  1.0000
  C   C36       1.0  0.31089867224633844  0.5379496870200596  0.6101668711874737  1.0000
  C   C37       1.0  0.04030093557343404  0.833768978887171  0.40845897382504837  1.0000
  C   C38       1.0  0.04111042550364636  0.412124671138848  0.837087765990539  1.0000
  C   C39       1.0  0.7917008075151414  0.5999341458144939  0.5994461652183815  1.0000
  C   C40       1.0  0.732345420760076  0.609342587807113  0.6081890773457274  1.0000
  C   C41       1.0  0.6623026592278336  0.6126716618041784  0.610778107286741  1.0000
  C   C42       1.0  0.5940035794326519  0.610458429595745  0.6079973909953438  1.0000
  C   C43       1.0  0.5174992953514561  0.6038433594289073  0.6009996733226046  1.0000
  C   C44       1.0  0.4456815178945702  0.5949791261977353  0.5919538530000849  1.0000
  C   C45       1.0  0.7563977932201311  0.2736638371125508  0.3452756646185192  1.0000
  C   C46       1.0  0.7450560722870561  0.3516167010693606  0.27510899110951925  1.0000
  C   C47       1.0  0.03197781188944764  0.4443674048772408  0.25189107676032313  1.0000
  C   C48       1.0  0.03704146730775191  0.2511208075417386  0.45287343802264246  1.0000
  C   C49       1.0  0.3634653809532296  0.5828451552590083  0.580278352180578  1.0000
  C   C50       1.0  0.7112746002740877  0.26892437571943617  0.26576122397327134  1.0000
  C   C51       1.0  0.8793295955551482  0.5971864423664  0.5222022580911341  1.0000
  C   C52       1.0  0.8757867452221503  0.5197848616763563  0.594936081721343  1.0000
  C   C53       1.0  0.17001889079791258  0.6445556115200831  0.7191676502031329  1.0000
  C   C54       1.0  0.1705783099143119  0.7195424111389458  0.6441544049205347  1.0000
  Cl  Cl1       1.0  0.8617704048130361  0.41752934011729076  0.181199469979802  1.0000
  Cl  Cl2       1.0  0.8696007454777044  0.18122007220875247  0.4346246345073155  1.0000
  Cl  Cl3       1.0  0.3308902518098548  0.6692634567231509  0.48042143344906657  1.0000
  Cl  Cl4       1.0  0.3333426942304954  0.48568855176589665  0.6699400444648235  1.0000
  H   H1        1.0  0.5860795907599508  0.9901103848868826  0.08467312752981813  1.0000
  H   H2        1.0  0.57692808480121  0.05061243717675259  0.9807947958347043  1.0000
  H   H3        1.0  0.5402976791899762  0.1256403680599051  0.9809329758389184  1.0000
  H   H4        1.0  0.5047724863022793  0.9726854603771002  0.11700600032211372  1.0000
  H   H5        1.0  0.3968298406864789  0.02677131099967049  0.8811332170025493  1.0000
  H   H6        1.0  0.4217177635756571  0.8541365215326809  0.9908693477330389  1.0000
  H   H7        1.0  0.16445917666587212  0.3576256130391542  0.48916400212824135  1.0000
  H   H8        1.0  0.161391932394153  0.4871864433789951  0.3587065997535034  1.0000
  H   H9        1.0  0.7501997822751605  0.22389847128884802  0.36603478279477025  1.0000
  H   H10       1.0  0.7282521778188807  0.37645728608747925  0.22900272396276475  1.0000
  H   H11       1.0  0.8736069866175596  0.6401152793474124  0.49364027346820905  1.0000
  H   H12       1.0  0.8668604693923211  0.48922550435047896  0.635833523507081  1.0000
  H   H13       1.0  0.1778587384274887  0.6212889643872758  0.7674935740593086  1.0000
  H   H14       1.0  0.1790169847481096  0.7678664829832869  0.6209430004844804  1.0000
  H   H15       1.0  0.1690935303197846  0.7719862989319282  0.45892609405017015  1.0000
  H   H16       1.0  0.17088795317057065  0.46245861763777907  0.7753013179503512  1.0000
  H   H17       1.0  0.8936073304404032  0.36578317884107736  0.6786467278981049  1.0000
  H   H18       1.0  0.8916200208181945  0.6750385700799696  0.3603041679217256  1.0000
  H   H19       1.0  0.48731819888154587  0.8959667136002234  0.9467060419671679  1.0000
  H   H20       1.0  0.447099012744843  0.9670635749932185  0.8559437077517768  1.0000
  N   N1        1.0  0.974831016585554  0.46798448005957016  0.3388623024784038  1.0000
  N   N2        1.0  0.9791801016283229  0.3372330704964455  0.4747083610222305  1.0000
  N   N3        1.0  0.06277113162305173  0.38397071970241103  0.49202001991782396  1.0000
  N   N4        1.0  0.059508721223096535  0.48871089470396367  0.3855627771571051  1.0000
  N   N5        1.0  0.2345178796028335  0.5855989451085293  0.537514805383651  1.0000
  N   N6        1.0  0.23518171874726326  0.5398345655921942  0.5848379474723658  1.0000
  N   N7        1.0  0.8130960877520934  0.3522902737517626  0.3971629260178915  1.0000
  N   N8        1.0  0.8061309481505601  0.4011873441828512  0.35323257626911436  1.0000
  N   N9        1.0  0.9187198695336037  0.5520188137586003  0.5060303992118022  1.0000
  N   N10       1.0  0.9165402308378744  0.5045056068447876  0.5507364518252588  1.0000
  N   N11       1.0  0.12479142214417747  0.5931185924657213  0.6386863943933746  1.0000
  N   N12       1.0  0.12517238036985393  0.6392585318816232  0.5926198469915889  1.0000
  N   N13       1.0  0.06646036614566952  0.6567642171110534  0.4280830738117911  1.0000
  N   N14       1.0  0.0687607204406362  0.4317261718289984  0.6598815686669043  1.0000
  N   N15       1.0  0.9805929353558012  0.40116768827865446  0.6290790808511345  1.0000
  N   N16       1.0  0.9782239860319706  0.6258898322116336  0.3968467602308791  1.0000
  Zn  Zn1       1.0  0.9119468903161516  0.5109154223346408  0.3932514907092609  1.0000
  Zn  Zn2       1.0  0.9147171589591707  0.3942002181641157  0.5111103573347009  1.0000
  Zn  Zn3       1.0  0.12581022946443446  0.4855572606707952  0.5975899154688021  1.0000
  Zn  Zn4       1.0  0.12392343061465275  0.5965536197715264  0.4841537334996814  1.0000
