data_image0
_chemical_formula_structural       Zn3H52C64N4O18
_chemical_formula_sum              "Zn3 H52 C64 N4 O18"
_cell_length_a       8.996363198717322
_cell_length_b       12.324193861243966
_cell_length_c       15.907505746794056
_cell_angle_alpha    76.97646624577618
_cell_angle_beta     76.06249541125277
_cell_angle_gamma    79.05467483997381

_space_group_name_H-M_alt    "P 1"
_space_group_IT_number       1

loop_
  _space_group_symop_operation_xyz
  'x, y, z'

loop_
  _atom_site_type_symbol
  _atom_site_label
  _atom_site_symmetry_multiplicity
  _atom_site_fract_x
  _atom_site_fract_y
  _atom_site_fract_z
  _atom_site_occupancy
  Zn  Zn1       1.0  0.9999997530674634  0.49999994237147416  0.5000003137229285  1.0000
  Zn  Zn2       1.0  0.6576702848691623  0.6451634894588808  0.5617061861783554  1.0000
  Zn  Zn3       1.0  0.3423308527418881  0.3548366810115553  0.4382938220029686  1.0000
  H   H1        1.0  0.26555631278164066  0.026363787133867302  0.8554553031023532  1.0000
  H   H2        1.0  0.7344402412108337  0.9736363962194547  0.14454532944112944  1.0000
  H   H3        1.0  0.3792149777171047  0.043382906998999694  0.9282382833788887  1.0000
  H   H4        1.0  0.6207817387568396  0.9566164353297496  0.07176310287482573  1.0000
  H   H5        1.0  0.8914069720676493  0.8983669024204635  0.8342106104713665  1.0000
  H   H6        1.0  0.10859416277329359  0.10163326654848248  0.16578751244833262  1.0000
  H   H7        1.0  0.27007451420987394  0.9216524238811984  0.05668676945183651  1.0000
  H   H8        1.0  0.7299231847638693  0.07834775575090451  0.9433130785805588  1.0000
  H   H9        1.0  0.12562414994130924  0.9274603211179625  0.994630332485734  1.0000
  H   H10       1.0  0.8743745324556115  0.07254069631798642  0.005368605745886203  1.0000
  H   H11       1.0  0.9648045200016924  0.5538687038778677  0.3039563573201177  1.0000
  H   H12       1.0  0.035196297263254885  0.4461331511441742  0.6960452855434484  1.0000
  H   H13       1.0  0.7702222023160701  0.8148604672382762  0.7426473180436234  1.0000
  H   H14       1.0  0.2297790940829785  0.18513886020561193  0.2573509301657708  1.0000
  H   H15       1.0  0.41829539793280174  0.3794129962169849  0.7327081214374618  1.0000
  H   H16       1.0  0.5817042697340256  0.6205888600238013  0.2672911638344644  1.0000
  H   H17       1.0  0.329979718908305  0.201384468885351  0.8190726860507669  1.0000
  H   H18       1.0  0.670017496314493  0.7986182358224311  0.18092741453308753  1.0000
  H   H19       1.0  0.5020905464242417  0.728453915386041  0.9972869992456665  1.0000
  H   H20       1.0  0.4979096059169025  0.2715454162795509  0.00271266189535168  1.0000
  H   H21       1.0  0.5486332185406936  0.8619904844396232  0.997186930758673  1.0000
  H   H22       1.0  0.4513656254143328  0.13800969147126102  0.0028121327626493805  1.0000
  H   H23       1.0  0.6077421021922403  0.8049359867020128  0.8992509334390063  1.0000
  H   H24       1.0  0.3922554352234043  0.19506503445515486  0.10074878930370092  1.0000
  H   H25       1.0  0.4059686617047261  0.8044995501146205  0.8100671730183819  1.0000
  H   H26       1.0  0.594032637464437  0.1954997788307509  0.18993296045264432  1.0000
  H   H27       1.0  0.32292127212691923  0.7115776829473576  0.9071277403052633  1.0000
  H   H28       1.0  0.677078719579491  0.2884224907437982  0.0928724239666039  1.0000
  H   H29       1.0  0.31503423290051563  0.6720965362101623  0.7712736400520159  1.0000
  H   H30       1.0  0.6849669019404273  0.3279036327587905  0.2287244828676833  1.0000
  H   H31       1.0  0.7633181843777876  0.017114148366374603  0.7059328953743673  1.0000
  H   H32       1.0  0.2366783723847944  0.982886036488431  0.2940696224307331  1.0000
  H   H33       1.0  0.8533364747130889  0.19852157274320356  0.6251169204545093  1.0000
  H   H34       1.0  0.14666253449351532  0.8014777636445986  0.37488478203866993  1.0000
  H   H35       1.0  0.3273560100595105  0.022595461937484605  0.6113372673334823  1.0000
  H   H36       1.0  0.6726465993425066  0.9774030237635929  0.38866472059832796  1.0000
  H   H37       1.0  0.05784176483180664  0.7913979744208034  0.5272197680222847  1.0000
  H   H38       1.0  0.9421621492628562  0.2085996650329989  0.4727803038470526  1.0000
  H   H39       1.0  0.3122895124850232  0.7351625867838721  0.5092760848535108  1.0000
  H   H40       1.0  0.6877139160119513  0.26483757674462544  0.4907229827261972  1.0000
  H   H41       1.0  0.035775822934262166  0.9403337575156528  0.13841377805135827  1.0000
  H   H42       1.0  0.9642230210207569  0.05966641839523129  0.8615852854699639  1.0000
  H   H43       1.0  0.8620488031918896  0.9122648788889834  0.28407481859528627  1.0000
  H   H44       1.0  0.1379531590543408  0.08773697241184662  0.7159260397571998  1.0000
  H   H45       1.0  0.5758418904307306  0.8583921377847618  0.643743148695819  1.0000
  H   H46       1.0  0.4241598934127495  0.14160466658542253  0.3562573606442925  1.0000
  H   H47       1.0  0.1944359493751548  0.5938568935886863  0.6786732235397679  1.0000
  H   H48       1.0  0.8055640395611475  0.406143278600986  0.32132505547046725  1.0000
  H   H49       1.0  0.18500652783536958  0.11497554209721982  0.5185122289238748  1.0000
  H   H50       1.0  0.8149950935266329  0.8850221032975373  0.4814875267059975  1.0000
  H   H51       1.0  0.13966216979182625  0.5800088277051999  0.15486891369511824  1.0000
  H   H52       1.0  0.8603365153752024  0.41999219123223236  0.8451319097981269  1.0000
  C   C1        1.0  0.36109455717627253  0.8695184370426008  0.9308430960687986  1.0000
  C   C2        1.0  0.6389044492602237  0.130480897843718  0.06915672116275569  1.0000
  C   C3        1.0  0.3705601915555263  0.9912099551135612  0.8819785806213435  1.0000
  C   C4        1.0  0.6294375083415885  0.008790225019033898  0.1180218958315962  1.0000
  C   C5        1.0  0.10146802846148263  0.7609640149303801  0.13775067944398245  1.0000
  C   C6        1.0  0.8985306557821744  0.23903700350656018  0.8622495156287259  1.0000
  C   C7        1.0  0.9562636383565177  0.8308350373087164  0.8004166362504535  1.0000
  C   C8        1.0  0.0437366736959959  0.16916345183082632  0.1995818933391789  1.0000
  C   C9        1.0  0.23288617847337184  0.8784868210602925  0.013144839698107032  1.0000
  C   C10       1.0  0.7671115205003715  0.1215133585718107  0.9868550083342882  1.0000
  C   C11       1.0  0.9810090397411881  0.6378787390971824  0.2667945593042517  1.0000
  C   C12       1.0  0.018991776600401498  0.36212311542436754  0.7332064551387704  1.0000
  C   C13       1.0  0.11057285719982707  0.7916082571996269  0.8081791640118682  1.0000
  C   C14       1.0  0.8894284391992213  0.20839107024425377  0.19181908419752605  1.0000
  C   C15       1.0  0.9748631807662277  0.6990972715351164  0.7044805332964404  1.0000
  C   C16       1.0  0.025138117479556913  0.3009020569097629  0.29551897175403513  1.0000
  C   C17       1.0  0.8894058423903385  0.7843923645653774  0.7494675857382306  1.0000
  C   C18       1.0  0.11059529337398287  0.2156078049040674  0.2505311656020126  1.0000
  C   C19       1.0  0.49459993906634725  0.29993889181668015  0.728244598633232  1.0000
  C   C20       1.0  0.5053984211377267  0.7000638091698835  0.271754717439542  1.0000
  C   C21       1.0  0.4450313144205182  0.19943072194454461  0.7769335512881954  1.0000
  C   C22       1.0  0.554966061437021  0.8005711407376807  0.22306604616481004  1.0000
  C   C23       1.0  0.5422604834765252  0.09729480361959729  0.7682473962181363  1.0000
  C   C24       1.0  0.45773689422775016  0.9027070600636194  0.23175345807595696  1.0000
  C   C25       1.0  0.7997193736542415  0.720763712499391  0.39279432532595143  1.0000
  C   C26       1.0  0.20028160332207529  0.2792372999966021  0.6072061859862217  1.0000
  C   C27       1.0  0.5144129970584146  0.8125705940726036  0.9572973008339644  1.0000
  C   C28       1.0  0.485585848743348  0.18742958283927183  0.04270301952843875  1.0000
  C   C29       1.0  0.3210594025334146  0.7999997501917521  0.8730900885581296  1.0000
  C   C30       1.0  0.6789394423449764  0.20000042621963132  0.12690960338373  1.0000
  C   C31       1.0  0.6964606627872456  0.4074235223541437  0.6203676423288585  1.0000
  C   C32       1.0  0.30353916551432286  0.5925774918610857  0.3796311398122257  1.0000
  C   C33       1.0  0.19561815504591348  0.7038746517364984  0.7661227706245199  1.0000
  C   C34       1.0  0.8043831422765065  0.29612467620788147  0.23387610600541822  1.0000
  C   C35       1.0  0.6888095183338905  0.09686741797398213  0.7121174191531809  1.0000
  C   C36       1.0  0.31118802185185496  0.9031336046846691  0.2878841888511516  1.0000
  C   C37       1.0  0.7380757782649567  0.19781378431790841  0.666533089990722  1.0000
  C   C38       1.0  0.26192176007405976  0.8021872373397516  0.33346726117252246  1.0000
  C   C39       1.0  0.6415796293835997  0.3006600791249383  0.6729547084583984  1.0000
  C   C40       1.0  0.35841905393669293  0.6993409388115099  0.3270448581937657  1.0000
  C   C41       1.0  0.3594603014262816  0.9378575240897931  0.5975052816496529  1.0000
  C   C42       1.0  0.6405409986662464  0.06214180535607741  0.4024954802419103  1.0000
  C   C43       1.0  0.03315235999458823  0.8827853715344672  0.5150957888687344  1.0000
  C   C44       1.0  0.9668492632141508  0.1172122748612736  0.48490522360221905  1.0000
  C   C45       1.0  0.1367082027038578  0.9471034975378602  0.5261997586992422  1.0000
  C   C46       1.0  0.8632934195815096  0.052894148357388794  0.4738006253511741  1.0000
  C   C47       1.0  0.3497122365752645  0.7883840589148436  0.543471219334684  1.0000
  C   C48       1.0  0.6502902084985394  0.21161526680980816  0.45652875804579923  1.0000
  C   C49       1.0  0.90850363091144  0.6566042738180684  0.6429681092367403  1.0000
  C   C50       1.0  0.09149996099038303  0.34339504918635544  0.3570323404737508  1.0000
  C   C51       1.0  0.02156511119371629  0.8551372374720431  0.17338726774654836  1.0000
  C   C52       1.0  0.9784358657826074  0.14486377502394993  0.8266132435656246  1.0000
  C   C53       1.0  0.9233044113336744  0.8393173809880636  0.25591896872654735  1.0000
  C   C54       1.0  0.0766973884310858  0.16068531133733194  0.7440811359156997  1.0000
  C   C55       1.0  0.9032268789287695  0.731270383791454  0.30419292071418624  1.0000
  C   C56       1.0  0.09677622829873658  0.26873146378816415  0.6958071531272197  1.0000
  C   C57       1.0  0.48191265687164975  0.8568595174340177  0.6125953332255635  1.0000
  C   C58       1.0  0.518087658874343  0.1431389737075079  0.387405710046238  1.0000
  C   C59       1.0  0.12755649823955648  0.6594052156491372  0.7140227425547394  1.0000
  C   C60       1.0  0.8724459449875112  0.34059410907452303  0.2859759779846557  1.0000
  C   C61       1.0  0.1038029543599066  0.0644197287831432  0.5109160872034765  1.0000
  C   C62       1.0  0.8961971989046091  0.9355796033829481  0.48908420235808586  1.0000
  C   C63       1.0  0.07846428836218423  0.6521629942768357  0.18415785098675033  1.0000
  C   C64       1.0  0.9215370126537152  0.3478363356695198  0.8158435393253569  1.0000
  N   N1        1.0  0.27582415582410397  0.8933855294344896  0.5537482849353949  1.0000
  N   N2        1.0  0.7241782901730714  0.1066137967906613  0.44625232086563227  1.0000
  N   N3        1.0  0.4745464549678714  0.7643760426509447  0.5785174730856824  1.0000
  N   N4        1.0  0.5254559901059324  0.23562328307370714  0.4214825042948078  1.0000
  O   O1        1.0  0.5049148683507099  0.9935947938216574  0.8121760806737014  1.0000
  O   O2        1.0  0.4950825093535655  0.006407069861566602  0.18782477362039174  1.0000
  O   O3        1.0  0.16854612725045107  0.8444740415734132  0.8572578425900231  1.0000
  O   O4        1.0  0.8314540241673214  0.15552528959168652  0.1427411901304581  1.0000
  O   O5        1.0  0.7652151284247566  0.6905386470853759  0.6416800695981237  1.0000
  O   O6        1.0  0.23478616982103526  0.30946068135949645  0.3583194354523584  1.0000
  O   O7        1.0  0.596867954139931  0.49737146301991697  0.6210861160035323  1.0000
  O   O8        1.0  0.4031318750850018  0.5026295516958045  0.37891329455809597  1.0000
  O   O9        1.0  0.9996877740683914  0.59267808376255  0.5944170083837222  1.0000
  O   O10       1.0  0.0003156544285829078  0.4073220797659474  0.40558205919598583  1.0000
  O   O11       1.0  0.8089472394756784  0.6237520882359463  0.44832000337581235  1.0000
  O   O12       1.0  0.19105275038399577  0.3762480844542182  0.5516789040549668  1.0000
  O   O13       1.0  0.7056051381297408  0.8036011497303548  0.4141889006293979  1.0000
  O   O14       1.0  0.2943959994813169  0.19639902074007415  0.5858111075519332  1.0000
  O   O15       1.0  0.20445205932452376  0.7680560906895053  0.058680694623568314  1.0000
  O   O16       1.0  0.7955456396492265  0.23194408894259774  0.9413191534088271  1.0000
  O   O17       1.0  0.8358784575724483  0.4016547243557867  0.5781731521711181  1.0000
  O   O18       1.0  0.16412054886404798  0.598344610530532  0.42182666506044353  1.0000
