data_image0
_chemical_formula_structural       Ca2H12C8N16O18
_chemical_formula_sum              "Ca2 H12 C8 N16 O18"
_cell_length_a       6.419299812006297
_cell_length_b       8.107301416002334
_cell_length_c       11.118092472725637
_cell_angle_alpha    102.85525960335079
_cell_angle_beta     89.99989584377748
_cell_angle_gamma    90.00013530080895

_space_group_name_H-M_alt    "P 1"
_space_group_IT_number       1

loop_
  _space_group_symop_operation_xyz
  'x, y, z'

loop_
  _atom_site_type_symbol
  _atom_site_label
  _atom_site_symmetry_multiplicity
  _atom_site_fract_x
  _atom_site_fract_y
  _atom_site_fract_z
  _atom_site_occupancy
  Ca  Ca1       1.0  0.13788570189241509  0.7499988044907296  0.7500003564744235  1.0000
  Ca  Ca2       1.0  0.8621158146265983  0.2500002874065785  0.2499997852786464  1.0000
  H   H1        1.0  0.5903492741048523  0.6534449732031506  0.7275200853002846  1.0000
  H   H2        1.0  0.5903494847102237  0.846553395403923  0.7724793582432669  1.0000
  H   H3        1.0  0.4096491268094055  0.3465528526339056  0.27247895224918045  1.0000
  H   H4        1.0  0.4096504740049697  0.15344443132520516  0.2275205788847217  1.0000
  H   H5        1.0  0.8264410836388121  0.0162588093636273  0.7264073326514408  1.0000
  H   H6        1.0  0.8264401289932619  0.4837427115764826  0.7735933546777504  1.0000
  H   H7        1.0  0.17355731727696616  0.9837402816402944  0.2735919095237449  1.0000
  H   H8        1.0  0.17355827192282186  0.5162589115427209  0.22640809590718192  1.0000
  H   H9        1.0  0.8468372007888759  0.0378980088994894  0.8714728912945233  1.0000
  H   H10       1.0  0.8468397384257854  0.4621022820499475  0.6285284743156936  1.0000
  H   H11       1.0  0.15316120012705164  0.9621023481620766  0.128527455085532  1.0000
  H   H12       1.0  0.15316177809322795  0.5378968098473605  0.3714716674373761  1.0000
  C   C1        1.0  0.2627241899025705  0.10666557281668079  0.5810203579294608  1.0000
  C   C2        1.0  0.2627256498429986  0.3933350006108753  0.918980790158912  1.0000
  C   C3        1.0  0.737274211013208  0.8933335181872478  0.41897888424571755  1.0000
  C   C4        1.0  0.7372727510756506  0.6066653546691468  0.08101775706283122  1.0000
  C   C5        1.0  0.28388542446601406  0.2489655910172388  0.6848769101776497  1.0000
  C   C6        1.0  0.28388523031345153  0.251033752810585  0.8151240159893195  1.0000
  C   C7        1.0  0.7161145342534213  0.7510334990972254  0.3151214324177404  1.0000
  C   C8        1.0  0.7161147284015925  0.748962807860913  0.18487481693379243  1.0000
  N   N1        1.0  0.3171961722387735  0.3868882460672651  0.6437758688020808  1.0000
  N   N2        1.0  0.317193897823543  0.11311115374864758  0.8562250301388303  1.0000
  N   N3        1.0  0.6828022286741273  0.6131095806605629  0.35622406832654724  1.0000
  N   N4        1.0  0.6828076186981917  0.886887936367124  0.14377331245591313  1.0000
  N   N5        1.0  0.2866818675337085  0.16246891470275673  0.4782406947348293  1.0000
  N   N6        1.0  0.28668281105753823  0.33753195985059387  0.021761349943339794  1.0000
  N   N7        1.0  0.7133180911858757  0.837531441469345  0.5217587520654307  1.0000
  N   N8        1.0  0.7133171476620531  0.6624683963215078  0.9782380968569272  1.0000
  N   N9        1.0  0.21581683834797616  0.9473371069405729  0.5954456591776421  1.0000
  N   N10       1.0  0.21581735878095287  0.5526618981975134  0.904555194698844  1.0000
  N   N11       1.0  0.7841831203700947  0.0526619840646632  0.404553582996904  1.0000
  N   N12       1.0  0.7841794843340464  0.44733845797197347  0.09544425210269483  1.0000
  N   N13       1.0  0.20420027902629556  0.8240362846176338  0.4961181814503135  1.0000
  N   N14       1.0  0.2042023681926111  0.6759654904058082  0.0038822081852175443  1.0000
  N   N15       1.0  0.795799679693296  0.17596407155446772  0.5038812653499464  1.0000
  N   N16       1.0  0.7957960327231604  0.32403360059811354  0.9961170339899613  1.0000
  O   O1        1.0  0.3216001962994851  0.3353713929730162  0.5173837775786083  1.0000
  O   O2        1.0  0.3215992457592022  0.16462801424643916  0.9826171177620894  1.0000
  O   O3        1.0  0.6783982046162932  0.6646276980309054  0.4826154645965773  1.0000
  O   O4        1.0  0.6784007129603893  0.8353723419256627  0.017382329038170524  1.0000
  O   O5        1.0  0.23732245452969639  0.8368591338719185  0.3874104861177942  1.0000
  O   O6        1.0  0.23732573542185514  0.6631426959346313  0.11258897686531813  1.0000
  O   O7        1.0  0.7626743885852959  0.1631412222975612  0.6125889606837377  1.0000
  O   O8        1.0  0.7626711076914675  0.3368551290103382  0.887409161105623  1.0000
  O   O9        1.0  0.15390015824108616  0.679436206461773  0.5183978810820308  1.0000
  O   O10       1.0  0.15389966080216058  0.8205652231559809  0.9816016334962542  1.0000
  O   O11       1.0  0.8461044738838835  0.3205628845473925  0.48160136109060403  1.0000
  O   O12       1.0  0.8460987401137671  0.179435133905578  0.018398712883801203  1.0000
  O   O13       1.0  0.49420026376053977  0.7499991030527937  0.7499993112764615  1.0000
  O   O14       1.0  0.5057996949561739  0.2499999888432072  0.2500008304772408  1.0000
  O   O15       1.0  0.85200743192204  0.9538335821845153  0.7912516194075253  1.0000
  O   O16       1.0  0.852010084137973  0.5461664931769761  0.7087496140499071  1.0000
  O   O17       1.0  0.14799096899373862  0.04616550881940641  0.20874762276765318  1.0000
  O   O18       1.0  0.1479929901834964  0.45383386477927695  0.29125163190740017  1.0000
