data_image0
_chemical_formula_structural       Cu4H24C20N8Cl4
_chemical_formula_sum              "Cu4 H24 C20 N8 Cl4"
_cell_length_a       7.554909303502129
_cell_length_b       8.074494941037585
_cell_length_c       11.072339833189716
_cell_angle_alpha    89.99940776479343
_cell_angle_beta     90.00050951911514
_cell_angle_gamma    109.75917858052007

_space_group_name_H-M_alt    "P 1"
_space_group_IT_number       1

loop_
  _space_group_symop_operation_xyz
  'x, y, z'

loop_
  _atom_site_type_symbol
  _atom_site_label
  _atom_site_symmetry_multiplicity
  _atom_site_fract_x
  _atom_site_fract_y
  _atom_site_fract_z
  _atom_site_occupancy
  Cu  Cu1       1.0  0.17618180722863738  0.9955369163544457  0.0319574943401761  1.0000
  Cu  Cu2       1.0  0.6761824552410048  0.995543275006533  0.46804030412393877  1.0000
  Cu  Cu3       1.0  0.8238256987404781  0.004457830484078299  0.9680409102857936  1.0000
  Cu  Cu4       1.0  0.32382381727801857  0.0044621055095675  0.5319553910035211  1.0000
  H   H1        1.0  0.837749676240108  0.546187860569148  0.537885917825861  1.0000
  H   H2        1.0  0.3377639884695824  0.5461816995545873  0.9621190073167798  1.0000
  H   H3        1.0  0.16224071927057793  0.4538244772990012  0.46212151819541  1.0000
  H   H4        1.0  0.662243711741894  0.4538170213792583  0.0378775909917906  1.0000
  H   H5        1.0  0.8457713611891364  0.7641979849849391  0.5687728966024679  1.0000
  H   H6        1.0  0.3457745066132816  0.7641844425778571  0.9312168782453514  1.0000
  H   H7        1.0  0.15422316924628632  0.2358182458207025  0.4312200889932641  1.0000
  H   H8        1.0  0.6542173505267356  0.2358039966626109  0.0687842358107034  1.0000
  H   H9        1.0  0.0454702041158797  0.7031360634716818  0.6023453169643035  1.0000
  H   H10       1.0  0.5454817855531928  0.7031283955526532  0.897653004005477  1.0000
  H   H11       1.0  0.9545176443458061  0.29688693517613973  0.39765489379693975  1.0000
  H   H12       1.0  0.4545152919154561  0.296877174493801  0.10234359424438823  1.0000
  H   H13       1.0  0.31442768081855377  0.0761447842336622  0.27898146038303656  1.0000
  H   H14       1.0  0.8144194444412419  0.0761328649175397  0.2210169340082118  1.0000
  H   H15       1.0  0.6855860846790521  0.923852485648176  0.7210151379497347  1.0000
  H   H16       1.0  0.18559192210875622  0.9238511941262431  0.7789778580642875  1.0000
  H   H17       1.0  0.8067835215118748  0.5169360015596354  0.32188551813779054  1.0000
  H   H18       1.0  0.3067770448075181  0.5169440451157854  0.1781194226180105  1.0000
  H   H19       1.0  0.1932209348812109  0.4830680902815417  0.6781246274124797  1.0000
  H   H20       1.0  0.6932162862013981  0.4830655802094128  0.8218834976652332  1.0000
  H   H21       1.0  0.9305799797561818  0.6384792060209605  0.11508994380071158  1.0000
  H   H22       1.0  0.43055935094851344  0.6384812565083633  0.38492116093924983  1.0000
  H   H23       1.0  0.06942744611932028  0.3615049341704121  0.8849192986828529  1.0000
  H   H24       1.0  0.5694367213596365  0.36152168212225166  0.615088984589548  1.0000
  C   C1        1.0  0.001670358014152432  0.7402684060801192  0.41422310571235244  1.0000
  C   C2        1.0  0.5016773669950183  0.740280223533972  0.085777358055843  1.0000
  C   C3        1.0  0.9983105680195266  0.25972954069361975  0.5857771051225029  1.0000
  C   C4        1.0  0.4983195963761275  0.2597319789977703  0.9142219496229487  1.0000
  C   C5        1.0  0.9297683911214205  0.6840930860851129  0.5379904444021051  1.0000
  C   C6        1.0  0.4297799611253623  0.6840936129679207  0.9620040680519395  1.0000
  C   C7        1.0  0.07021837197579121  0.31591667464302725  0.4620088632544963  1.0000
  C   C8        1.0  0.5702182356682926  0.3159079559220643  0.03799162706506821  1.0000
  C   C9        1.0  0.199445360818345  0.9510781912158137  0.2872524638104181  1.0000
  C   C10       1.0  0.699451467659344  0.9510833068752902  0.21274852453937146  1.0000
  C   C11       1.0  0.8005424414590152  0.04891696177525519  0.7127450376018132  1.0000
  C   C12       1.0  0.300552371947596  0.048926101884006805  0.7872462674138561  1.0000
  C   C13       1.0  0.9210184923043131  0.6424159271715267  0.31184235036679553  1.0000
  C   C14       1.0  0.4210130282986882  0.6424158817072367  0.1881524089144193  1.0000
  C   C15       1.0  0.07899415386434333  0.35758534387188934  0.6881542479473596  1.0000
  C   C16       1.0  0.5789913478864789  0.35757760363522095  0.8118423831008101  1.0000
  C   C17       1.0  0.9868200304850631  0.7073630179968686  0.19872077910057584  1.0000
  C   C18       1.0  0.48681157919669726  0.7073790106887118  0.30127660295238473  1.0000
  C   C19       1.0  0.013175573122566724  0.29262136595461646  0.8012758192250401  1.0000
  C   C20       1.0  0.5131778110470719  0.292630695901792  0.6987199952581166  1.0000
  N   N1        1.0  0.12337384614522762  0.866438958932889  0.18558840168275026  1.0000
  N   N2        1.0  0.6233830450231325  0.8664521591433356  0.3144001150849363  1.0000
  N   N3        1.0  0.8766213689461537  0.13353747686889508  0.8144045840659119  1.0000
  N   N4        1.0  0.37663879615647733  0.13354892242092117  0.6855865485920987  1.0000
  N   N5        1.0  0.14895822489124555  0.8936668498189633  0.40043456487280343  1.0000
  N   N6        1.0  0.6489566958504014  0.893662776982559  0.09958822303154591  1.0000
  N   N7        1.0  0.8510435242380296  0.10632668954340829  0.5995837090723484  1.0000
  N   N8        1.0  0.3510569895890612  0.10632388620607001  0.9004273415220468  1.0000
  Cl  Cl1       1.0  0.07270730003573082  0.2372086767688089  0.0922878581218782  1.0000
  Cl  Cl2       1.0  0.5726973352882538  0.2372066448956005  0.4077132440765396  1.0000
  Cl  Cl3       1.0  0.9273053461565723  0.7627925942438977  0.90771415910109  1.0000
  Cl  Cl4       1.0  0.4272998563173119  0.7627922926143781  0.5922896762591138  1.0000
