data_image0
_chemical_formula_structural       Cd4H40C36N8Cl4O12F4
_chemical_formula_sum              "Cd4 H40 C36 N8 Cl4 O12 F4"
_cell_length_a       6.851293157383834
_cell_length_b       12.738179434003124
_cell_length_c       13.912188692277178
_cell_angle_alpha    90.00000046150095
_cell_angle_beta     95.48811810015755
_cell_angle_gamma    90.00008051769134

_space_group_name_H-M_alt    "P 1"
_space_group_IT_number       1

loop_
  _space_group_symop_operation_xyz
  'x, y, z'

loop_
  _atom_site_type_symbol
  _atom_site_label
  _atom_site_symmetry_multiplicity
  _atom_site_fract_x
  _atom_site_fract_y
  _atom_site_fract_z
  _atom_site_occupancy
  Cd  Cd1       1.0  0.8372535429640989  0.8395017646147807  0.7754889054505371  1.0000
  Cd  Cd2       1.0  0.6627503663145973  0.33950088810597373  0.22451111757199277  1.0000
  Cd  Cd3       1.0  0.16274936152478148  0.16049709574151896  0.22451064027045933  1.0000
  Cd  Cd4       1.0  0.33725254277489114  0.6604979722503327  0.7754891471563141  1.0000
  H   H1        1.0  0.47194055830819076  0.23543414244167588  0.9528813919684825  1.0000
  H   H2        1.0  0.028057147813981897  0.7354379162042619  0.04711892375792811  1.0000
  H   H3        1.0  0.528059418191809  0.7645615777473579  0.04711873914770591  1.0000
  H   H4        1.0  0.9719398961088361  0.26456408431597106  0.9528810737467455  1.0000
  H   H5        1.0  0.48247877674715073  0.9968804768467687  0.7321270980649859  1.0000
  H   H6        1.0  0.017524017008582905  0.4968834153249517  0.26787417096363  1.0000
  H   H7        1.0  0.5175226706482122  0.0031168134259047997  0.26787381886457245  1.0000
  H   H8        1.0  0.9824759595016844  0.5031201552794755  0.73212596015307  1.0000
  H   H9        1.0  0.8565018610551078  0.9670411916665169  0.9830274078011884  1.0000
  H   H10       1.0  0.6434994493879885  0.4670426535294041  0.016972498135579907  1.0000
  H   H11       1.0  0.14350249592461492  0.032957668690329484  0.016970047703843204  1.0000
  H   H12       1.0  0.3565020026131266  0.5329585619509698  0.9830291378015448  1.0000
  H   H13       1.0  0.1651903721827921  0.9154903888177155  0.6436500096911503  1.0000
  H   H14       1.0  0.33481072848998394  0.415488859696559  0.35634902496312293  1.0000
  H   H15       1.0  0.8348081334310821  0.08451082666152838  0.35634933561212995  1.0000
  H   H16       1.0  0.6651907051055873  0.5845100006591791  0.6436497349446101  1.0000
  H   H17       1.0  0.41450021872634585  0.12326738350942883  0.5927063356843336  1.0000
  H   H18       1.0  0.08550157894764249  0.6232672794524133  0.4072920089037028  1.0000
  H   H19       1.0  0.5854968251964721  0.8767346170108039  0.40729366182034715  1.0000
  H   H20       1.0  0.9144998546499751  0.37673315098640353  0.5927067510041371  1.0000
  H   H21       1.0  0.3019144744541151  0.08451062424567367  0.4770278715052854  1.0000
  H   H22       1.0  0.19808869269208879  0.5845090370544881  0.5229712538739905  1.0000
  H   H23       1.0  0.69808256946871  0.915491376274559  0.5229721259993881  1.0000
  H   H24       1.0  0.8019127409045055  0.41549060834279317  0.4770275060337995  1.0000
  H   H25       1.0  0.38219203749623193  0.9870383720122503  0.5649586928703203  1.0000
  H   H26       1.0  0.1178092458043736  0.48703746337655923  0.4350396320475556  1.0000
  H   H27       1.0  0.6178050018270014  0.012964413549511299  0.43504058562709963  1.0000
  H   H28       1.0  0.8821907215005567  0.5129629670616962  0.5649590610543244  1.0000
  H   H29       1.0  0.864026098237602  0.14605495559671766  0.601519001833978  1.0000
  H   H30       1.0  0.6359743584409544  0.6460548899099622  0.39847870548877756  1.0000
  H   H31       1.0  0.1359724119779102  0.8539470449240767  0.39848106247666243  1.0000
  H   H32       1.0  0.3640270705560553  0.35394554052884775  0.6015193354117514  1.0000
  H   H33       1.0  0.0059806974162271015  0.1912785162202652  0.5071671881886675  1.0000
  H   H34       1.0  0.4940212782284803  0.6912771542158536  0.4928311652118681  1.0000
  H   H35       1.0  0.9940178127992922  0.8087234843005219  0.492832876121966  1.0000
  H   H36       1.0  0.5059786890764428  0.30872327622240187  0.5071675278900047  1.0000
  H   H37       1.0  0.08020486433599672  0.22235676960638528  0.6308835672166283  1.0000
  H   H38       1.0  0.41979572634292595  0.7223561348438777  0.3691147234049766  1.0000
  H   H39       1.0  0.9197951121722171  0.7776452309149631  0.36911656389996494  1.0000
  H   H40       1.0  0.5802042409599509  0.27764272551129915  0.6308839696967965  1.0000
  C   C1        1.0  0.7579127218849634  0.15098497340441944  0.07676144790555381  1.0000
  C   C2        1.0  0.7420862906021454  0.6509842088029102  0.9232376312646197  1.0000
  C   C3        1.0  0.24209163969230474  0.8490115318278125  0.9232367266066319  1.0000
  C   C4        1.0  0.25791221960925986  0.3490146515517196  0.07676243304581482  1.0000
  C   C5        1.0  0.6750460163014224  0.10665836085752997  0.9803314701560455  1.0000
  C   C6        1.0  0.8249514369027509  0.6066584353586606  0.019671131501120008  1.0000
  C   C7        1.0  0.3249554310970241  0.8933412845397651  0.019669446773669108  1.0000
  C   C8        1.0  0.17504562082089586  0.3933427801200508  0.9803310230254285  1.0000
  C   C9        1.0  0.5280949772226863  0.16261842069380344  0.9254135143413651  1.0000
  C   C10       1.0  0.9719011377306259  0.6626241030080421  0.0745861517320279  1.0000
  C   C11       1.0  0.47190498547546167  0.8373772994952093  0.07458445975289861  1.0000
  C   C12       1.0  0.028092973609879807  0.33738025263568966  0.9254137121608822  1.0000
  C   C13       1.0  0.45856677699962484  0.12200976497643268  0.8366462688479078  1.0000
  C   C14       1.0  0.041433578698480696  0.6220127650567943  0.163356322815261  1.0000
  C   C15       1.0  0.5414317516121941  0.8779875252951398  0.16335667149165542  1.0000
  C   C16       1.0  0.9585664116156919  0.3779923756307255  0.836645965323463  1.0000
  C   C17       1.0  0.5347902225587546  0.029900869951013896  0.8020594756586663  1.0000
  C   C18       1.0  0.9652084776830422  0.5299065484042486  0.1979403068296861  1.0000
  C   C19       1.0  0.4652097447400081  0.9700948502379985  0.19793921744290802  1.0000
  C   C20       1.0  0.0347900325355539  0.47009780724116007  0.8020597574811036  1.0000
  C   C21       1.0  0.7437096846757641  0.013511638019714698  0.9424891142543929  1.0000
  C   C22       1.0  0.7562963041366189  0.5135132306683658  0.05751100013984711  1.0000
  C   C23       1.0  0.25629760488729403  0.9864856522551619  0.05750847486245901  1.0000
  C   C24       1.0  0.243702215278077  0.4864871997693567  0.9424905021853011  1.0000
  C   C25       1.0  0.0621391311286814  0.9824010100671502  0.6377659871834425  1.0000
  C   C26       1.0  0.4378680006062724  0.4823995595284741  0.3622318853500346  1.0000
  C   C27       1.0  0.9378593790858075  0.0176002054120943  0.3622340771271412  1.0000
  C   C28       1.0  0.5621319712992728  0.5176008709097883  0.6377675267591487  1.0000
  C   C29       1.0  0.31697526901747614  0.06527868272428347  0.5543134539000364  1.0000
  C   C30       1.0  0.1830293048937932  0.5652770832812734  0.4456842977785912  1.0000
  C   C31       1.0  0.683021779506987  0.9347241028374923  0.4456872626120045  1.0000
  C   C32       1.0  0.8169721241021862  0.4347225621160006  0.5543137431218811  1.0000
  C   C33       1.0  0.0119287651344919  0.16215190764324205  0.5817927791438464  1.0000
  C   C34       1.0  0.48807313429134785  0.6621505403567268  0.41820557048259144  1.0000
  C   C35       1.0  0.9880682787883261  0.8378500928769835  0.4182072183608342  1.0000
  C   C36       1.0  0.5119268330125522  0.3378491050399857  0.5817931226192316  1.0000
  N   N1        1.0  0.6767153121138635  0.9772788492505025  0.8547890061755938  1.0000
  N   N2        1.0  0.8232889807079148  0.47728044939354664  0.14521462973618782  1.0000
  N   N3        1.0  0.32328760617583907  0.02271922606427519  0.14521269656727753  1.0000
  N   N4        1.0  0.17671248049545343  0.5227215511283844  0.8547884442156006  1.0000
  N   N5        1.0  0.1260742155533947  0.06592312928668058  0.5916619659270028  1.0000
  N   N6        1.0  0.3739274366613331  0.5659224599680285  0.4083370902378861  1.0000
  N   N7        1.0  0.8739257609537957  0.9340780861931247  0.4083381651895408  1.0000
  N   N8        1.0  0.6260739969362917  0.43407797047078833  0.5916616696699466  1.0000
  Cl  Cl1       1.0  0.0031234933223345  0.7026530050337599  0.668765776884122  1.0000
  Cl  Cl2       1.0  0.496877059597395  0.2026523841902587  0.33123466820628533  1.0000
  Cl  Cl3       1.0  0.996882343752958  0.2973466403651982  0.33123390244884393  1.0000
  Cl  Cl4       1.0  0.5031229215062966  0.7973456911233965  0.6687661819173629  1.0000
  O   O1        1.0  0.8766159670593795  0.09528082634096788  0.13021557794864694  1.0000
  O   O2        1.0  0.6233858552508451  0.5952815408392167  0.8697872226521854  1.0000
  O   O3        1.0  0.12338693742950112  0.9047180340153316  0.8697839677723567  1.0000
  O   O4        1.0  0.3766156013478009  0.4047173195165498  0.13021513229208642  1.0000
  O   O5        1.0  0.699137351004076  0.24340396639219358  0.09277303477806953  1.0000
  O   O6        1.0  0.8008633696220143  0.7434056015396207  0.907226123173466  1.0000
  O   O7        1.0  0.30086701057421555  0.7565933238815745  0.9072251397341732  1.0000
  O   O8        1.0  0.1991322126046171  0.25659325881389344  0.0927745265323523  1.0000
  O   O9        1.0  0.8983033242789489  0.9783881964445696  0.6711336064132924  1.0000
  O   O10       1.0  0.6016980158540123  0.4783872744658239  0.3288663009936172  1.0000
  O   O11       1.0  0.1016966522272114  0.021612233993700197  0.3288665247032015  1.0000
  O   O12       1.0  0.3983048886358986  0.5216123709320114  0.671133244727436  1.0000
  F   F1        1.0  0.3144731404187765  0.17361441543299347  0.7808802158418403  1.0000
  F   F2        1.0  0.1855258748303541  0.6736214510746874  0.21912087768771477  1.0000
  F   F3        1.0  0.6855253743881135  0.8263805197139433  0.21912056747564185  1.0000
  F   F4        1.0  0.8144741108831965  0.3263836896128324  0.7808806914436986  1.0000
