data_image0
_chemical_formula_structural       Cd4H32C40N32Cl8
_chemical_formula_sum              "Cd4 H32 C40 N32 Cl8"
_cell_length_a       6.925498990433776
_cell_length_b       11.920658206256551
_cell_length_c       16.804847876769962
_cell_angle_alpha    89.9998281261606
_cell_angle_beta     93.17971859919125
_cell_angle_gamma    89.99927520048062

_space_group_name_H-M_alt    "P 1"
_space_group_IT_number       1

loop_
  _space_group_symop_operation_xyz
  'x, y, z'

loop_
  _atom_site_type_symbol
  _atom_site_label
  _atom_site_symmetry_multiplicity
  _atom_site_fract_x
  _atom_site_fract_y
  _atom_site_fract_z
  _atom_site_occupancy
  Cd  Cd1       1.0  0.25436900599758877  0.56467841857539  0.015115229753426695  1.0000
  Cd  Cd2       1.0  0.7456196803878825  0.06466965838221479  0.4848840949099935  1.0000
  Cd  Cd3       1.0  0.7456168610347618  0.4353284963561065  0.984888200352756  1.0000
  Cd  Cd4       1.0  0.25437771084731514  0.9353255121996749  0.5151142265507644  1.0000
  H   H1        1.0  0.22669124393124213  0.013900785223157195  0.13862391344441244  1.0000
  H   H2        1.0  0.773310125269525  0.5138916578397213  0.36137519692283593  1.0000
  H   H3        1.0  0.7733104956583929  0.9861086462974454  0.8613756913292289  1.0000
  H   H4        1.0  0.22667857898319  0.4861035127771558  0.638621748229923  1.0000
  H   H5        1.0  0.21696555408599494  0.09614142937238766  0.05260868809484259  1.0000
  H   H6        1.0  0.7830296700068972  0.5961310253123598  0.447390709156437  1.0000
  H   H7        1.0  0.7830361905146718  0.9038688410267847  0.9473915118552579  1.0000
  H   H8        1.0  0.2169648088424765  0.40386330640562546  0.5526051696109064  1.0000
  H   H9        1.0  0.09355402242665183  0.5275808305338642  0.20213293686435208  1.0000
  H   H10       1.0  0.9064224607121789  0.0275750345374703  0.29786561081554197  1.0000
  H   H11       1.0  0.9064318796736757  0.47243279542745825  0.7978746594759227  1.0000
  H   H12       1.0  0.09357785301406099  0.9724151027467866  0.7021363437014257  1.0000
  H   H13       1.0  0.05438525621973871  0.6449383224032983  0.3273143391420774  1.0000
  H   H14       1.0  0.9456016671406998  0.14493025325501208  0.17268537056512653  1.0000
  H   H15       1.0  0.9456034929474556  0.3550811757177498  0.6726879625768232  1.0000
  H   H16       1.0  0.0544073185349419  0.8550573673585473  0.8273161747304696  1.0000
  H   H17       1.0  0.11611472729899931  0.8520290285198159  0.31779603769746956  1.0000
  H   H18       1.0  0.8838806243687144  0.3520230523098886  0.1822004328529871  1.0000
  H   H19       1.0  0.8838841650759266  0.14798795291870445  0.6822088616799816  1.0000
  H   H20       1.0  0.1161167569091006  0.6479645683558956  0.8177966982625476  1.0000
  H   H21       1.0  0.4238554475382658  0.10412787544122182  0.7308711396944998  1.0000
  H   H22       1.0  0.5761622477156082  0.6041264682342982  0.769122972414287  1.0000
  H   H23       1.0  0.5761592975715858  0.8958681339556731  0.2691275536709341  1.0000
  H   H24       1.0  0.42384524656516476  0.3958661856753452  0.23087318528458664  1.0000
  H   H25       1.0  0.3501841461566499  0.2969948952479626  0.7868300157032164  1.0000
  H   H26       1.0  0.6498263881119614  0.7969881490521187  0.713161148762296  1.0000
  H   H27       1.0  0.6498160921916208  0.7030019530943932  0.21316301114165978  1.0000
  H   H28       1.0  0.3501941567698239  0.20300031040063257  0.28683945411427897  1.0000
  H   H29       1.0  0.24661866638123803  0.30509184356922237  0.9289084478882754  1.0000
  H   H30       1.0  0.7533728442619604  0.805088293009412  0.5710769358780751  1.0000
  H   H31       1.0  0.753380110684546  0.6949108769413568  0.0710827624240977  1.0000
  H   H32       1.0  0.24664914673061136  0.1949043608371993  0.42892369798515506  1.0000
  C   C1        1.0  0.29736421704209454  0.9349334897989647  0.9596041807204613  1.0000
  C   C2        1.0  0.7026375592608574  0.43492358287868865  0.5403942359441698  1.0000
  C   C3        1.0  0.7026274145371403  0.06507342511605428  0.040396992644097886  1.0000
  C   C4        1.0  0.2973656065617618  0.5650715876841514  0.45960301913007123  1.0000
  C   C5        1.0  0.24059462947116836  0.8245029541794439  0.059416680037088596  1.0000
  C   C6        1.0  0.7594056720590247  0.32449679741673504  0.44058055073512736  1.0000
  C   C7        1.0  0.7594056840702806  0.17550396070186733  0.9405852744579091  1.0000
  C   C8        1.0  0.24059747869355166  0.6754992120298124  0.5594149188053591  1.0000
  C   C9        1.0  0.18758564041588247  0.7777153041188497  0.13500248646135296  1.0000
  C   C10       1.0  0.8124229376691973  0.2777065609932592  0.3649968073049762  1.0000
  C   C11       1.0  0.8124219239084455  0.22229916064897273  0.8650020036947268  1.0000
  C   C12       1.0  0.18758313056338247  0.7222835762770925  0.6350017001152606  1.0000
  C   C13       1.0  0.11412068785230642  0.6183165132601687  0.20348048404552796  1.0000
  C   C14       1.0  0.8858624583860151  0.11830835816726186  0.2965162264975944  1.0000
  C   C15       1.0  0.8858709888077173  0.3816996293216659  0.7965260459049401  1.0000
  C   C16       1.0  0.11415231187137921  0.8816834568239499  0.7034854427610994  1.0000
  C   C17       1.0  0.09161072323360743  0.6827734630493438  0.27141498991792895  1.0000
  C   C18       1.0  0.9083869258289354  0.18276962520428694  0.22858367830755097  1.0000
  C   C19       1.0  0.9083823945538965  0.31724351840822607  0.7285909758460389  1.0000
  C   C20       1.0  0.09162060862324493  0.8172221898152255  0.7714172408128517  1.0000
  C   C21       1.0  0.12535188679964193  0.7977049233863694  0.2658778271050365  1.0000
  C   C22       1.0  0.8746447016862008  0.29770298882462487  0.23412354708948155  1.0000
  C   C23       1.0  0.8746412209657992  0.202310380314067  0.7341269483060129  1.0000
  C   C24       1.0  0.12535846919364962  0.7022888262175256  0.7658743031667042  1.0000
  C   C25       1.0  0.31085598793711705  0.03522819225089079  0.9101047800899023  1.0000
  C   C26       1.0  0.6891357733314367  0.5352166470721611  0.589891899459168  1.0000
  C   C27       1.0  0.6891413931651442  0.9647753671320911  0.08989235100476378  1.0000
  C   C28       1.0  0.3108673774396138  0.4647776846146811  0.410103570083514  1.0000
  C   C29       1.0  0.3786364828261028  0.11516253843522858  0.7917357742226443  1.0000
  C   C30       1.0  0.6213867741207934  0.615155184220498  0.7082608136822797  1.0000
  C   C31       1.0  0.6213695702532719  0.8848359876375013  0.20826094765394734  1.0000
  C   C32       1.0  0.3786178379050186  0.38483579193767536  0.2917364723896013  1.0000
  C   C33       1.0  0.33636891626089493  0.22096886831877774  0.82190736637542  1.0000
  C   C34       1.0  0.6636331545712721  0.7209663638336818  0.6780819946547609  1.0000
  C   C35       1.0  0.6636299010132517  0.7790296577822527  0.17808860536287335  1.0000
  C   C36       1.0  0.336381585564503  0.27902545116523914  0.3219161035386122  1.0000
  C   C37       1.0  0.2798578343457764  0.22594766243484796  0.9001161121978852  1.0000
  C   C38       1.0  0.72012532680602  0.7259417181204952  0.599872832903621  1.0000
  C   C39       1.0  0.7201323009476752  0.7740525414596034  0.09987907840777407  1.0000
  C   C40       1.0  0.27988219255762203  0.27405261354243027  0.4001263006808243  1.0000
  N   N1        1.0  0.3018141458696136  0.7624546580134105  0.9992558167095565  1.0000
  N   N2        1.0  0.6981885375997549  0.26244830818880865  0.5007429895424451  1.0000
  N   N3        1.0  0.6981818443078681  0.23754806248098959  0.0007478303471514987  1.0000
  N   N4        1.0  0.3018117358904037  0.7375485401445514  0.4992542035453055  1.0000
  N   N5        1.0  0.33643451089759674  0.8296187382679249  0.9374427381254333  1.0000
  N   N6        1.0  0.6635739389035253  0.3296090254438439  0.5625578327784027  1.0000
  N   N7        1.0  0.6635528073304896  0.17038649889717308  0.06256131815265317  1.0000
  N   N8        1.0  0.33643068813690047  0.6703861451097449  0.4374412388206536  1.0000
  N   N9        1.0  0.23872193805643602  0.9343845253807855  0.03690242164766029  1.0000
  N   N10       1.0  0.7612803065229344  0.4343740645759622  0.46309759030742  1.0000
  N   N11       1.0  0.7612769293095383  0.06562406726563098  0.9630995018530014  1.0000
  N   N12       1.0  0.23871706966070155  0.5656202671299225  0.5368989456217718  1.0000
  N   N13       1.0  0.1737485959007969  0.0239726949694798  0.08090053145506458  1.0000
  N   N14       1.0  0.8262511052768604  0.5239629311228383  0.41909852155104926  1.0000
  N   N15       1.0  0.8262545948661001  0.9760367365444367  0.9190996994882779  1.0000
  N   N16       1.0  0.1737433635504573  0.4760297228380067  0.5808961668633897  1.0000
  N   N17       1.0  0.16337738853522404  0.6654950795462183  0.1352437115832288  1.0000
  N   N18       1.0  0.8366206462366605  0.16548531989331386  0.3647555970650345  1.0000
  N   N19       1.0  0.8366215289595333  0.334520224126173  0.8647641636841852  1.0000
  N   N20       1.0  0.16338399591077754  0.8345056562571567  0.6352452600721674  1.0000
  N   N21       1.0  0.17145878450576651  0.8465310618517349  0.19739562449097994  1.0000
  N   N22       1.0  0.8285410518311166  0.34652665960530266  0.3026039293161559  1.0000
  N   N23       1.0  0.828541549089046  0.15347836966399334  0.8026087107109419  1.0000
  N   N24       1.0  0.17145923173654154  0.6534668332060746  0.6973944541310997  1.0000
  N   N25       1.0  0.36904188411703137  0.02151664456876289  0.8357112254242478  1.0000
  N   N26       1.0  0.6309603072366913  0.5215127622477238  0.6642863021363395  1.0000
  N   N27       1.0  0.6309583943749218  0.9784818815230095  0.16428656283886053  1.0000
  N   N28       1.0  0.36903559267756253  0.4784807305914283  0.3357066317364853  1.0000
  N   N29       1.0  0.264371267000584  0.13304084308593636  0.9442705645216021  1.0000
  N   N30       1.0  0.7356226679581611  0.6330324556425637  0.5557247615559859  1.0000
  N   N31       1.0  0.7356217856712493  0.8669627163106877  0.05572766395172828  1.0000
  N   N32       1.0  0.26438339018768897  0.36696187602962016  0.4442725555036516  1.0000
  Cl  Cl1       1.0  0.08665644662580972  0.3835211570371726  0.061476161093175094  1.0000
  Cl  Cl2       1.0  0.9133382464410076  0.883515700887095  0.4385243932482011  1.0000
  Cl  Cl3       1.0  0.9133308515119581  0.6164849190129187  0.9385255144735962  1.0000
  Cl  Cl4       1.0  0.0866519291347316  0.11647359755898626  0.5614755587921607  1.0000
  Cl  Cl5       1.0  0.5713528880817692  0.5021167489143464  0.10710821894471675  1.0000
  Cl  Cl6       1.0  0.42863720652327697  0.0021140757588184998  0.39289484057221097  1.0000
  Cl  Cl7       1.0  0.4286315428803249  0.49788597162071796  0.892896370529918  1.0000
  Cl  Cl8       1.0  0.5713659743878808  0.9978785781606159  0.6071042000379874  1.0000
