data_image0
_chemical_formula_structural       Cu8H72C96N24O32
_chemical_formula_sum              "Cu8 H72 C96 N24 O32"
_cell_length_a       13.2108503600332
_cell_length_b       13.566128739012958
_cell_length_c       20.162433008041504
_cell_angle_alpha    90.00008271944365
_cell_angle_beta     89.99978331066083
_cell_angle_gamma    89.99986298329377

_space_group_name_H-M_alt    "P 1"
_space_group_IT_number       1

loop_
  _space_group_symop_operation_xyz
  'x, y, z'

loop_
  _atom_site_type_symbol
  _atom_site_label
  _atom_site_symmetry_multiplicity
  _atom_site_fract_x
  _atom_site_fract_y
  _atom_site_fract_z
  _atom_site_occupancy
  Cu  Cu1       1.0  0.16530892273112124  0.4391563617222332  0.3017567465016882  1.0000
  Cu  Cu2       1.0  0.3346944557210136  0.060834325923245586  0.8017535509161107  1.0000
  Cu  Cu3       1.0  0.33469142158701  0.9391724814836948  0.698251092091695  1.0000
  Cu  Cu4       1.0  0.1653083181249357  0.5608276598800471  0.198252927950719  1.0000
  Cu  Cu5       1.0  0.8346945151072659  0.5608377250262677  0.698251778404817  1.0000
  Cu  Cu6       1.0  0.665309739071553  0.9391722920279195  0.19824951830477025  1.0000
  Cu  Cu7       1.0  0.6653112593010279  0.060841507764649805  0.30174800935951396  1.0000
  Cu  Cu8       1.0  0.8346913349504347  0.4391708496489954  0.801752125159389  1.0000
  H   H1        1.0  0.42205974804866025  0.7489238219532056  0.2576889814986956  1.0000
  H   H2        1.0  0.0779570574914104  0.7510786582362671  0.7577014843732854  1.0000
  H   H3        1.0  0.07794105670544128  0.24892433295469368  0.7423087527227563  1.0000
  H   H4        1.0  0.422038443369388  0.2510713871573245  0.2423007156926715  1.0000
  H   H5        1.0  0.5779429328762261  0.2510739504295286  0.7423041682819614  1.0000
  H   H6        1.0  0.9220463803612307  0.24892501119220614  0.24229811304386567  1.0000
  H   H7        1.0  0.9220570824814587  0.7510682795321629  0.25769233261123486  1.0000
  H   H8        1.0  0.5779543971321958  0.7489322822842013  0.7576993777094571  1.0000
  H   H9        1.0  0.4970625426516832  0.8894599704086443  0.4422564643780261  1.0000
  H   H10       1.0  0.0029388123547419995  0.6105458540624086  0.9422695119487017  1.0000
  H   H11       1.0  0.0029409498010011  0.3894609999878682  0.5577409104843553  1.0000
  H   H12       1.0  0.4970562716495337  0.1105431699209163  0.0577345353949354  1.0000
  H   H13       1.0  0.5029408952249668  0.11053927623312629  0.5577366854024177  1.0000
  H   H14       1.0  0.997064625490907  0.38946002675755415  0.0577315733851975  1.0000
  H   H15       1.0  0.9970549185106066  0.6105389838034442  0.44226215874358826  1.0000
  H   H16       1.0  0.5029365688387414  0.8894560767477272  0.9422720056396158  1.0000
  H   H17       1.0  0.2981347053611145  0.6365671294639911  0.4405206856035873  1.0000
  H   H18       1.0  0.2018719583617568  0.863435005633157  0.9405374552619817  1.0000
  H   H19       1.0  0.2018686421740128  0.1365647442788003  0.5594774353627229  1.0000
  H   H20       1.0  0.2981255414285329  0.36343426944268487  0.059466837914399696  1.0000
  H   H21       1.0  0.701868732517859  0.363431380047281  0.5594719682046045  1.0000
  H   H22       1.0  0.7981382920768851  0.136566452396842  0.05946164617379418  1.0000
  H   H23       1.0  0.798122684431533  0.8634286053455329  0.44052315400816144  1.0000
  H   H24       1.0  0.701863514311924  0.6365627658341566  0.9405337514610749  1.0000
  H   H25       1.0  0.2511120042411719  0.9767387825089953  0.5563779585846687  1.0000
  H   H26       1.0  0.24888023024907108  0.5232610546635996  0.056379055451770896  1.0000
  H   H27       1.0  0.248885221348516  0.4767382492157851  0.4436229729320828  1.0000
  H   H28       1.0  0.2511196067207209  0.023261588174797496  0.9436224271781272  1.0000
  H   H29       1.0  0.7488823501762667  0.023261201279318296  0.4436206468981395  1.0000
  H   H30       1.0  0.7511156380782822  0.4767330320848018  0.9436210379419663  1.0000
  H   H31       1.0  0.751113674784598  0.5232580489210578  0.556379104346547  1.0000
  H   H32       1.0  0.7488830741829842  0.9767347099565171  0.05637865815204889  1.0000
  H   H33       1.0  0.2599785025423458  0.9211421319643662  0.47547448998761865  1.0000
  H   H34       1.0  0.2400113059033941  0.5788608152145827  0.9754774975118606  1.0000
  H   H35       1.0  0.2400173436922941  0.42114105596015616  0.5245263874847907  1.0000
  H   H36       1.0  0.2599906673680508  0.07886377985173001  0.024523047221599394  1.0000
  H   H37       1.0  0.7400166088320503  0.0788585889514266  0.5245226275789391  1.0000
  H   H38       1.0  0.7599860763357071  0.4211317972710376  0.024521603935511397  1.0000
  H   H39       1.0  0.7599815524320518  0.5788589278281151  0.47547717771129777  1.0000
  H   H40       1.0  0.7400150413482435  0.9211362039247676  0.9754770461628439  1.0000
  H   H41       1.0  0.3612367569869122  0.9931286841590818  0.5069110821377265  1.0000
  H   H42       1.0  0.1387542499397583  0.506872521211683  0.006913923089825898  1.0000
  H   H43       1.0  0.13876042893888746  0.4931277799704148  0.4930893693396996  1.0000
  H   H44       1.0  0.3612471406005042  0.006875849127837298  0.9930860556924657  1.0000
  H   H45       1.0  0.6387583543869367  0.0068712996272779  0.49308653140036524  1.0000
  H   H46       1.0  0.8612401044722873  0.4931259883193562  0.9930871622517116  1.0000
  H   H47       1.0  0.8612384671953137  0.5068699924253011  0.506911715995862  1.0000
  H   H48       1.0  0.6387578111624349  0.9931263460383876  0.006913045750209799  1.0000
  H   H49       1.0  0.5094386521541524  0.5870591874166422  0.5966488795672332  1.0000
  H   H50       1.0  0.9905548358614026  0.9129528231902811  0.0966497581137205  1.0000
  H   H51       1.0  0.9905640309927575  0.0870528369049239  0.40335093368600644  1.0000
  H   H52       1.0  0.5094447877159068  0.4129508927890057  0.9033493800044708  1.0000
  H   H53       1.0  0.4905587300687344  0.41295037905657495  0.40334873397270593  1.0000
  H   H54       1.0  0.0094448172360444  0.08704642346021528  0.9033473594465133  1.0000
  H   H55       1.0  0.0094371360008338  0.912947146877471  0.5966496556759395  1.0000
  H   H56       1.0  0.4905563792968478  0.5870439310788456  0.0966467456079556  1.0000
  H   H57       1.0  0.5128966347064504  0.6140210929395663  0.5097942910751952  1.0000
  H   H58       1.0  0.987107953450149  0.8859723031778444  0.009798127764547398  1.0000
  H   H59       1.0  0.987105983182886  0.11401862247824819  0.49020604436170595  1.0000
  H   H60       1.0  0.5128947632240397  0.3859793964143776  0.9902019760700893  1.0000
  H   H61       1.0  0.48710831706777913  0.38597889083357734  0.4902018345350712  1.0000
  H   H62       1.0  0.0128932135583  0.11402252069160569  0.9901994857635542  1.0000
  H   H63       1.0  0.01289291294988  0.8859791499180006  0.5097955369457523  1.0000
  H   H64       1.0  0.48710867463399404  0.6140257472713628  0.009795141488332597  1.0000
  H   H65       1.0  0.4074529822621571  0.551412383665543  0.544177642164591  1.0000
  H   H66       1.0  0.09254462152242127  0.9485918501208204  0.04417854683771339  1.0000
  H   H67       1.0  0.0925505713536836  0.0514107716186984  0.4558218839381566  1.0000
  H   H68       1.0  0.40745645695332655  0.4485957260949291  0.9558208693989766  1.0000
  H   H69       1.0  0.5925504556035505  0.44858760010991716  0.45581897941942634  1.0000
  H   H70       1.0  0.9074527607122532  0.0514103450516856  0.955818074754866  1.0000
  H   H71       1.0  0.9074490817340574  0.9485870007761221  0.5441792013964813  1.0000
  H   H72       1.0  0.5925492517612269  0.551411628978556  0.04417674412960079  1.0000
  C   C1        1.0  0.2944972032867526  0.609587297679795  0.30784522065675185  1.0000
  C   C2        1.0  0.20551022848226097  0.8904138158000875  0.8078540720030315  1.0000
  C   C3        1.0  0.2055054525739735  0.10959550820026459  0.6921538660321145  1.0000
  C   C4        1.0  0.2944849351709351  0.3904023157521693  0.1921492554534581  1.0000
  C   C5        1.0  0.7055069915367652  0.3904067890561151  0.6921523928672499  1.0000
  C   C6        1.0  0.7944954802277877  0.10959132788616442  0.1921460213839268  1.0000
  C   C7        1.0  0.7944942005199068  0.8904066869700883  0.30784325152955455  1.0000
  C   C8        1.0  0.7055071483797377  0.6095932452632908  0.8078533178051189  1.0000
  C   C9        1.0  0.355120656467534  0.6842283095077875  0.34546613779067303  1.0000
  C   C10       1.0  0.14489261315389967  0.8157691989819255  0.8454760583032906  1.0000
  C   C11       1.0  0.14488484657134393  0.18423215980278235  0.6545330214514422  1.0000
  C   C12       1.0  0.355102731142999  0.3157641092259595  0.1545267006218012  1.0000
  C   C13       1.0  0.6448888370376266  0.31576725147860424  0.654528499896159  1.0000
  C   C14       1.0  0.8551153664307448  0.18423152191866876  0.15452105924736506  1.0000
  C   C15       1.0  0.855110264801226  0.815764138335872  0.3454665759724165  1.0000
  C   C16       1.0  0.6448885954559528  0.684235874567527  0.8454733927804124  1.0000
  C   C17       1.0  0.4149934268457542  0.7524584261133852  0.311445897155849  1.0000
  C   C18       1.0  0.08502306750976628  0.7475397465623956  0.8114603630205861  1.0000
  C   C19       1.0  0.08501039717118888  0.2524624908006531  0.6885493606401595  1.0000
  C   C20       1.0  0.41497546971941546  0.24753753681683582  0.1885433215195604  1.0000
  C   C21       1.0  0.5850115249488823  0.24753418635585686  0.6885462606757143  1.0000
  C   C22       1.0  0.9149826412002398  0.2524595000868004  0.1885422102229484  1.0000
  C   C23       1.0  0.9149862281056046  0.7475338073372769  0.31145122872560893  1.0000
  C   C24       1.0  0.5850196416236315  0.7524712925365409  0.811461235629288  1.0000
  C   C25       1.0  0.4664410980179666  0.8255824327136451  0.3466425142914743  1.0000
  C   C26       1.0  0.0335691369716429  0.6744165525641959  0.8466545563392741  1.0000
  C   C27       1.0  0.03356330597747359  0.3255835949615359  0.6533557904179543  1.0000
  C   C28       1.0  0.4664318480851506  0.1744163571829347  0.1533485611435168  1.0000
  C   C29       1.0  0.5335668815779684  0.17441607679386106  0.6533516274267724  1.0000
  C   C30       1.0  0.966437328692649  0.32558564260236283  0.1533465289890898  1.0000
  C   C31       1.0  0.9664340762438994  0.674414177438095  0.34664727880704754  1.0000
  C   C32       1.0  0.5335678049916979  0.8255880493826312  0.8466535161381186  1.0000
  C   C33       1.0  0.4567465869791859  0.8317552443973996  0.4155801420778928  1.0000
  C   C34       1.0  0.043254165512116985  0.6682453629624375  0.9155896743246142  1.0000
  C   C35       1.0  0.04325553122163941  0.3317569730589796  0.5844161847476953  1.0000
  C   C36       1.0  0.45674304971686996  0.16824356839735088  0.08441244521923609  1.0000
  C   C37       1.0  0.5432553369957276  0.1682395794663735  0.5844130077022669  1.0000
  C   C38       1.0  0.9567500292881234  0.3317560950784326  0.08441289892186889  1.0000
  C   C39       1.0  0.9567395801439531  0.6682415364711646  0.4155849005929113  1.0000
  C   C40       1.0  0.5432528185868577  0.8317593639154167  0.9155921119258038  1.0000
  C   C41       1.0  0.3963628742167201  0.7636931934860413  0.4490954840419192  1.0000
  C   C42       1.0  0.103638441206428  0.7363163312950007  0.9491049332576722  1.0000
  C   C43       1.0  0.1036386517451078  0.26369175911258935  0.5509037524507504  1.0000
  C   C44       1.0  0.39635785233124216  0.23631313326635708  0.0508967564868712  1.0000
  C   C45       1.0  0.60363980669851  0.23630900167808017  0.5508991536565588  1.0000
  C   C46       1.0  0.8963695383644463  0.26369102377739756  0.050894168183773986  1.0000
  C   C47       1.0  0.8963564596179621  0.7363052761592214  0.4490988208048066  1.0000
  C   C48       1.0  0.6036372590305845  0.7636861133948188  0.9491053207978694  1.0000
  C   C49       1.0  0.3462224617865317  0.6890956632129531  0.4145247810998781  1.0000
  C   C50       1.0  0.15378359547140258  0.8109042047545569  0.9145406265676995  1.0000
  C   C51       1.0  0.15378151557135308  0.18909713302376469  0.5854733909307653  1.0000
  C   C52       1.0  0.3462102466860699  0.31090193644051567  0.0854631195751168  1.0000
  C   C53       1.0  0.6537832469537788  0.31089989777684934  0.5854688646478505  1.0000
  C   C54       1.0  0.8462236271482197  0.18909651615118153  0.0854604587590089  1.0000
  C   C55       1.0  0.8462098110297303  0.8108999022503911  0.41452719844190977  1.0000
  C   C56       1.0  0.653778052092079  0.6890987844886427  0.9145389577187543  1.0000
  C   C57       1.0  0.5342838344486438  0.8963482650370197  0.3108065119547091  1.0000
  C   C58       1.0  0.9657197681487091  0.6036538849398027  0.810818905347773  1.0000
  C   C59       1.0  0.9657150723680344  0.396350694543436  0.6891881462781055  1.0000
  C   C60       1.0  0.5342813609148394  0.1036562616104035  0.1891824119590879  1.0000
  C   C61       1.0  0.4657173325712876  0.10364655882818138  0.6891871337982707  1.0000
  C   C62       1.0  0.03428291273667839  0.3963409389390264  0.18918912358814308  1.0000
  C   C63       1.0  0.0342838237629479  0.6036485521127375  0.310813435030063  1.0000
  C   C64       1.0  0.4657152643315356  0.8963533048722141  0.8108231371320256  1.0000
  C   C65       1.0  0.3445823040548177  0.8512452402442392  0.5527740503628991  1.0000
  C   C66       1.0  0.1554084373665887  0.6487568006004667  0.05278244378174428  1.0000
  C   C67       1.0  0.15541598220495698  0.3512427241097881  0.4472257672149098  1.0000
  C   C68       1.0  0.3445895819819356  0.14876006951614332  0.9472171769591995  1.0000
  C   C69       1.0  0.6554135642752996  0.1487584291883834  0.4472210833165987  1.0000
  C   C70       1.0  0.8445927296293262  0.3512424460514295  0.9472176496079568  1.0000
  C   C71       1.0  0.8445821569665384  0.64875431116058  0.5527787899244601  1.0000
  C   C72       1.0  0.6554100711108503  0.8512406513953438  0.05278093254552369  1.0000
  C   C73       1.0  0.41498592918283345  0.7057217125376384  0.5676803277980795  1.0000
  C   C74       1.0  0.0850138093894586  0.7942810973887688  0.06768953259778948  1.0000
  C   C75       1.0  0.08501573707749088  0.20571933076621457  0.4323193483114806  1.0000
  C   C76       1.0  0.4149868855764751  0.2942841680339754  0.9323132054359744  1.0000
  C   C77       1.0  0.5850122100123727  0.294278271242483  0.432314805876821  1.0000
  C   C78       1.0  0.9149903854208289  0.20572036064837823  0.9323095688454615  1.0000
  C   C79       1.0  0.914984672958944  0.7942777044998691  0.5676837209094145  1.0000
  C   C80       1.0  0.5850120105511322  0.7057202385308872  0.06768738393093088  1.0000
  C   C81       1.0  0.3015903551320349  0.9404571478808493  0.5208092545180134  1.0000
  C   C82       1.0  0.19840057134270234  0.559544824419298  0.0208115033246727  1.0000
  C   C83       1.0  0.19840620131299144  0.44045459871880144  0.4791916417290238  1.0000
  C   C84       1.0  0.3015984208645079  0.059546789194243395  0.9791885266629233  1.0000
  C   C85       1.0  0.6984062701508831  0.05954357303262009  0.4791873670747861  1.0000
  C   C86       1.0  0.8015952969839544  0.4404522108479014  0.9791875981267208  1.0000
  C   C87       1.0  0.8015926948149216  0.5595424365496058  0.5208119234656294  1.0000
  C   C88       1.0  0.6984057739429091  0.9404546688439692  0.020811566724105994  1.0000
  C   C89       1.0  0.4639367580839319  0.6093131487627231  0.5537037326119573  1.0000
  C   C90       1.0  0.036062304459235896  0.8906911054490932  0.053706208475297494  1.0000
  C   C91       1.0  0.03606589845325199  0.10930943834461712  0.4462958497764972  1.0000
  C   C92       1.0  0.46393967109764833  0.39069261616482714  0.9462941434173189  1.0000
  C   C93       1.0  0.5360613810990884  0.3906897835404521  0.44629437689571466  1.0000
  C   C94       1.0  0.9639381055926464  0.10930740407054172  0.9462909090836362  1.0000
  C   C95       1.0  0.9639337546373594  0.8906883340491446  0.5537042436143551  1.0000
  C   C96       1.0  0.5360622528534478  0.6093088418744728  0.05370446205685649  1.0000
  N   N1        1.0  0.3498308555780909  0.8331524480437551  0.6171214280548512  1.0000
  N   N2        1.0  0.1501617842279401  0.6668467822464662  0.1171263802231408  1.0000
  N   N3        1.0  0.15017125923492364  0.3331475949448617  0.3828798598446639  1.0000
  N   N4        1.0  0.34983467742472374  0.16685358645626988  0.8828747460224733  1.0000
  N   N5        1.0  0.6501672836115732  0.1668497471273227  0.3828746975649082  1.0000
  N   N6        1.0  0.8498333271428464  0.3331509901521201  0.8828732172014354  1.0000
  N   N7        1.0  0.8498336925240224  0.6668472289264925  0.6171237053414343  1.0000
  N   N8        1.0  0.6501664895635172  0.8331508201059138  0.11712584334161849  1.0000
  N   N9        1.0  0.3944669743987106  0.7422480640813589  0.6267144170170056  1.0000
  N   N10       1.0  0.10553015158263428  0.7577533981668624  0.126723535612939  1.0000
  N   N11       1.0  0.10553687432645378  0.24224329586269283  0.37328529459614396  1.0000
  N   N12       1.0  0.39446836092292864  0.2577578649658676  0.8732791669154448  1.0000
  N   N13       1.0  0.6055319217496945  0.257753393957266  0.3732802206857854  1.0000
  N   N14       1.0  0.8944672306464552  0.2422451113595372  0.873276557781075  1.0000
  N   N15       1.0  0.8944695913421015  0.7577530022652185  0.626716782673135  1.0000
  N   N16       1.0  0.6055312921576785  0.7422458044686736  0.1267219184220565  1.0000
  N   N17       1.0  0.38491298187485506  0.7720412790296791  0.5192085684328588  1.0000
  N   N18       1.0  0.11508249556270297  0.7279621641012566  0.0192186264071168  1.0000
  N   N19       1.0  0.11508549607525959  0.27203966727339685  0.480788692291142  1.0000
  N   N20       1.0  0.3849160890467047  0.22796246119590086  0.9807840471589414  1.0000
  N   N21       1.0  0.615084400370769  0.2279601790091377  0.48078458135613283  1.0000
  N   N22       1.0  0.8849239701044596  0.2720400310642361  0.9807814669774684  1.0000
  N   N23       1.0  0.8849081013834309  0.7279610536473697  0.5192114011086204  1.0000
  N   N24       1.0  0.6150820501294874  0.7720389968505331  0.0192170381793559  1.0000
  O   O1        1.0  0.2767716377320184  0.5277187471276008  0.3366874560647233  1.0000
  O   O2        1.0  0.22322881450569546  0.9722831653287403  0.8366923754328113  1.0000
  O   O3        1.0  0.22323121626725134  0.0277187455005929  0.6633130389507469  1.0000
  O   O4        1.0  0.2767616092835326  0.47227459383411485  0.16331251953221937  1.0000
  O   O5        1.0  0.723232557076642  0.472280499521247  0.6633131332931226  1.0000
  O   O6        1.0  0.7767700816163625  0.027723452627078902  0.1633092058789458  1.0000
  O   O7        1.0  0.7767676798780841  0.9722805011502658  0.3366835826385283  1.0000
  O   O8        1.0  0.7232304742635733  0.527723915701209  0.8366900537277928  1.0000
  O   O9        1.0  0.26377183306711055  0.6371492995796543  0.2510316920464035  1.0000
  O   O10       1.0  0.23623214282013547  0.8628502178246364  0.7510384567982128  1.0000
  O   O11       1.0  0.236234540853907  0.137154610807336  0.7489699012890582  1.0000
  O   O12       1.0  0.2637615736265317  0.36283743792421314  0.2489678196960696  1.0000
  O   O13       1.0  0.7362323617497709  0.36284552428834616  0.7489679053655107  1.0000
  O   O14       1.0  0.7637743228357791  0.13716008577100777  0.24896213256220528  1.0000
  O   O15       1.0  0.7637711678688675  0.8628483214853022  0.251026720293595  1.0000
  O   O16       1.0  0.7362320238260338  0.6371588602210209  0.7510362414766616  1.0000
  O   O17       1.0  0.5700459192280078  0.9674967809132224  0.34511982157280835  1.0000
  O   O18       1.0  0.9299536999583891  0.5325076540352927  0.8451357059734406  1.0000
  O   O19       1.0  0.929955086269608  0.46749627280988193  0.6548729219322522  1.0000
  O   O20       1.0  0.5700468443307685  0.0325076612410484  0.1548680220308398  1.0000
  O   O21       1.0  0.4299567617028187  0.0325032028562191  0.6548703523775856  1.0000
  O   O22       1.0  0.07005125177560251  0.467486432715674  0.15487678670631763  1.0000
  O   O23       1.0  0.07005062243268159  0.5325022367125385  0.34513262714226295  1.0000
  O   O24       1.0  0.4299505378531662  0.9674996938576966  0.8451439746928313  1.0000
  O   O25       1.0  0.5515228919938194  0.8781307497215207  0.2501754062020325  1.0000
  O   O26       1.0  0.9484757629004007  0.6218720073897541  0.7501893478213332  1.0000
  O   O27       1.0  0.9484745450049414  0.378134087089407  0.7498187383518198  1.0000
  O   O28       1.0  0.5515291068282764  0.12187742183970579  0.24981496302364545  1.0000
  O   O29       1.0  0.4484797889450291  0.1218625998782343  0.7498147677451354  1.0000
  O   O30       1.0  0.0515193484369831  0.37812134224340344  0.24982364084210928  1.0000
  O   O31       1.0  0.0515228372208867  0.6218599996603941  0.25018433087138436  1.0000
  O   O32       1.0  0.4484697892533304  0.8781424644645242  0.7501950498166892  1.0000
