data_image0
_chemical_formula_structural       Mn2H12C18O14
_chemical_formula_sum              "Mn2 H12 C18 O14"
_cell_length_a       6.927381841860839
_cell_length_b       6.5532295760574675
_cell_length_c       11.064804683754211
_cell_angle_alpha    92.30334809865356
_cell_angle_beta     102.36822702497261
_cell_angle_gamma    111.51271333021751

_space_group_name_H-M_alt    "P 1"
_space_group_IT_number       1

loop_
  _space_group_symop_operation_xyz
  'x, y, z'

loop_
  _atom_site_type_symbol
  _atom_site_label
  _atom_site_symmetry_multiplicity
  _atom_site_fract_x
  _atom_site_fract_y
  _atom_site_fract_z
  _atom_site_occupancy
  Mn  Mn1       1.0  0.2830833745283527  0.5872208858021892  0.07365293900070922  1.0000
  Mn  Mn2       1.0  0.7169239377510693  0.412791588815999  0.9263327508474434  1.0000
  H   H1        1.0  0.11651821712357703  0.23205709696139112  0.2804897018070491  1.0000
  H   H2        1.0  0.8834711203168055  0.7679526610696642  0.7195171933430515  1.0000
  H   H3        1.0  0.3683192557537539  0.4710160649630383  0.5868041579885884  1.0000
  H   H4        1.0  0.6316723490233472  0.528972841746942  0.4131953078072003  1.0000
  H   H5        1.0  0.18245388131639112  0.9348448104317695  0.37683373155626043  1.0000
  H   H6        1.0  0.8176041367547597  0.06518150675054807  0.6231775607488929  1.0000
  H   H7        1.0  0.18870592669945555  0.13699982752088152  0.5730937256717966  1.0000
  H   H8        1.0  0.8113169570411289  0.8630154237381049  0.4268903476487368  1.0000
  H   H9        1.0  0.013942053109538204  0.17940495134694598  0.9179609379047449  1.0000
  H   H10       1.0  0.9860656403985502  0.8205869742850568  0.0820532516586354  1.0000
  H   H11       1.0  0.9570708798419931  0.16983923131412132  0.050015327026343884  1.0000
  H   H12       1.0  0.04294606517814257  0.8301983422869199  0.9499875040874671  1.0000
  C   C1        1.0  0.4020443959352634  0.651731305088454  0.8169382829096322  1.0000
  C   C2        1.0  0.5979372637457558  0.34826474653858247  0.18304926437085103  1.0000
  C   C3        1.0  0.3407229126803841  0.7335444517666261  0.6953110575998737  1.0000
  C   C4        1.0  0.659282345995024  0.2664600009634698  0.3046895589440482  1.0000
  C   C5        1.0  0.3297303552514634  0.6175240385668347  0.5839389572196297  1.0000
  C   C6        1.0  0.6703080951841826  0.38247667643681643  0.4160756414385318  1.0000
  C   C7        1.0  0.2641913440572381  0.684595012838848  0.46902763522482627  1.0000
  C   C8        1.0  0.7358226204456102  0.31540371940157297  0.5309775472932259  1.0000
  C   C9        1.0  0.22581512805307113  0.8798131554544925  0.4664230597277809  1.0000
  C   C10       1.0  0.774170915155864  0.1201962453680991  0.5335752825771038  1.0000
  C   C11       1.0  0.23153464677213256  0.9930184957982036  0.5769150509490617  1.0000
  C   C12       1.0  0.7684683333288902  0.006969583900683996  0.42307767432849636  1.0000
  C   C13       1.0  0.27910027906997936  0.9158125943904596  0.6910714177332624  1.0000
  C   C14       1.0  0.7208867209627955  0.0841870039414943  0.30890964356231626  1.0000
  C   C15       1.0  0.2181883585373185  0.5457501274221598  0.34941572188994036  1.0000
  C   C16       1.0  0.7817995809809659  0.45425132295267184  0.6505790574793765  1.0000
  C   C17       1.0  0.25471762033085815  0.0211533241891431  0.8073181579721692  1.0000
  C   C18       1.0  0.7452714661195261  0.9788355887342208  0.19269726542123072  1.0000
  O   O1        1.0  0.2748540144326128  0.6253124907594197  0.8874460366052475  1.0000
  O   O2        1.0  0.725134197329183  0.3747049857915386  0.11254101018058554  1.0000
  O   O3        1.0  0.57199667451998  0.6136273258618631  0.8375465341523595  1.0000
  O   O4        1.0  0.4279522645708483  0.3863243953166063  0.16244315775969653  1.0000
  O   O5        1.0  0.19203497533025177  0.33839964816773727  0.36187372049302274  1.0000
  O   O6        1.0  0.8079741422807702  0.6615875227263572  0.638137824902266  1.0000
  O   O7        1.0  0.19749860665142902  0.6201650068640632  0.24753824560990986  1.0000
  O   O8        1.0  0.8025236413019669  0.3798519514837437  0.7524575388471959  1.0000
  O   O9        1.0  0.06163928204741607  0.9729170194898912  0.8192035582259153  1.0000
  O   O10       1.0  0.9383633220989155  0.027092204544885597  0.1808085890790849  1.0000
  O   O11       1.0  0.4174113452692652  0.1485642001326966  0.8871496742908747  1.0000
  O   O12       1.0  0.5825881108638242  0.8513978583184781  0.11284382204458153  1.0000
  O   O13       1.0  0.9835841447660771  0.26503027865906853  0.9826227968733364  1.0000
  O   O14       1.0  0.016370891884101  0.7349432474319357  0.017399791579876506  1.0000
