data_image0
_chemical_formula_structural       Zn8H40C96O66
_chemical_formula_sum              "Zn8 H40 C96 O66"
_cell_length_a       23.81576063260264
_cell_length_b       23.817382537390746
_cell_length_c       23.81567305147175
_cell_angle_alpha    66.58318002164923
_cell_angle_beta     72.47040213692301
_cell_angle_gamma    107.53827319411722

_space_group_name_H-M_alt    "P 1"
_space_group_IT_number       1

loop_
  _space_group_symop_operation_xyz
  'x, y, z'

loop_
  _atom_site_type_symbol
  _atom_site_label
  _atom_site_symmetry_multiplicity
  _atom_site_fract_x
  _atom_site_fract_y
  _atom_site_fract_z
  _atom_site_occupancy
  Zn  Zn1       1.0  0.05706556557892372  0.9570819950221577  0.4858577797876011  1.0000
  Zn  Zn2       1.0  0.0570614273029832  0.0999814320328341  0.4570964944366337  1.0000
  Zn  Zn3       1.0  0.942930412324259  0.9858537109830154  0.45707543921257354  1.0000
  Zn  Zn4       1.0  0.9429496540817938  0.9570868222320432  0.5999873878805743  1.0000
  Zn  Zn5       1.0  0.9429325959174975  0.5429136408756818  0.014141651219873156  1.0000
  Zn  Zn6       1.0  0.05708531044025732  0.5141500986539996  0.042918392530680215  1.0000
  Zn  Zn7       1.0  0.9429301415223958  0.4000170581542833  0.042924189522601415  1.0000
  Zn  Zn8       1.0  0.05705741680196747  0.5429160351229642  0.9000191444985715  1.0000
  H   H1        1.0  0.919376407895051  0.6470929367548595  0.11760933614938532  1.0000
  H   H2        1.0  0.08065717569434837  0.6176518709227921  0.14710156637583086  1.0000
  H   H3        1.0  0.9277867525243548  0.8930129441323232  0.34234281604174305  1.0000
  H   H4        1.0  0.07212685063117884  0.8422692520634031  0.3931150184115212  1.0000
  H   H5        1.0  0.0806406294836535  0.4629991768646492  0.7722822934754702  1.0000
  H   H6        1.0  0.9193493380110951  0.2722656073540151  0.963005600897631  1.0000
  H   H7        1.0  0.07216343784307362  0.22985648366800154  0.5347884793624899  1.0000
  H   H8        1.0  0.927817633969603  0.03477112748348074  0.729865353715155  1.0000
  H   H9        1.0  0.7353658300603739  0.4652278242169529  0.10691676268841392  1.0000
  H   H10       1.0  0.7353684935659218  0.27014935688828257  0.1576447202972844  1.0000
  H   H11       1.0  0.2647373639633416  0.22773748234001095  0.3529138131563343  1.0000
  H   H12       1.0  0.26471745810096076  0.03699932144325403  0.3823634796286441  1.0000
  H   H13       1.0  0.2646499367988611  0.6069442487267835  0.9652044846302984  1.0000
  H   H14       1.0  0.26462172862703437  0.6576592483683471  0.7701232026866691  1.0000
  H   H15       1.0  0.7352799854220962  0.8528840232158359  0.7277536575408236  1.0000
  H   H16       1.0  0.7352742819932275  0.8823570351480757  0.5370057830112955  1.0000
  H   H17       1.0  0.9190342386907557  0.8368317867047493  0.7436354074272559  1.0000
  H   H18       1.0  0.08042197573389838  0.6626150007356771  0.7563630638062548  1.0000
  H   H19       1.0  0.9195472102876039  0.6631877267687543  0.9178011456067732  1.0000
  H   H20       1.0  0.08103131573543713  0.8373834739941799  0.5821922903416307  1.0000
  H   H21       1.0  0.9189920478606551  0.08220471992146372  0.33734383348181046  1.0000
  H   H22       1.0  0.08045305545785195  0.4178014388603302  0.16322203691318296  1.0000
  H   H23       1.0  0.9195720397278392  0.25638137014121304  0.16261622136786985  1.0000
  H   H24       1.0  0.08099497773452664  0.24362437823846506  0.33682991836574416  1.0000
  H   H25       1.0  0.1220639508848435  0.7813234965418231  0.17243645940532565  1.0000
  H   H26       1.0  0.8779164527097765  0.6724001138468484  0.2813140506229815  1.0000
  H   H27       1.0  0.009564055529004451  0.6848016424488107  0.3613970180082406  1.0000
  H   H28       1.0  0.9903703620167973  0.8613286229368597  0.18489302119002107  1.0000
  H   H29       1.0  0.8779029896942773  0.20552196787404878  0.8407511105980345  1.0000
  H   H30       1.0  0.12207552291014416  0.3407238517644942  0.7055443548764444  1.0000
  H   H31       1.0  0.9903774924723762  0.12901047169873434  0.8247748069241964  1.0000
  H   H32       1.0  0.009580516667767805  0.3247365447343427  0.6290524161039953  1.0000
  H   H33       1.0  0.5462367132964516  0.1752704945121906  0.31510041757739055  1.0000
  H   H34       1.0  0.5461931213230072  0.3709748421546097  0.1386096091509827  1.0000
  H   H35       1.0  0.4537262930569241  0.15926767945213535  0.2186454100211179  1.0000
  H   H36       1.0  0.453744050479635  0.294479395060506  0.3275977205918608  1.0000
  H   H37       1.0  0.453772241192688  0.8151164112868303  0.6752350392544811  1.0000
  H   H38       1.0  0.4537927347232723  0.6386223491448321  0.8709574585092665  1.0000
  H   H39       1.0  0.5462692709831245  0.7186502602075749  0.6592599673457684  1.0000
  H   H40       1.0  0.5462765381408302  0.827571453768428  0.794498151120884  1.0000
  C   C1        1.0  0.18157527928359232  0.09079320111803922  0.4092234951845484  1.0000
  C   C2        1.0  0.9999881124867115  0.14002162959593556  0.35997919210416995  1.0000
  C   C3        1.0  0.9999681039825672  0.9091976391391796  0.4092575096982857  1.0000
  C   C4        1.0  0.8184308602998771  0.909193386004333  0.5908154743668488  1.0000
  C   C5        1.0  4.2545846852828585e-05  0.8600030892857691  0.6400234069908703  1.0000
  C   C6        1.0  0.9999989009349901  0.0907743363752117  0.5907835221329378  1.0000
  C   C7        1.0  2.7284436598201746e-05  0.5907983167950591  0.09077412294096388  1.0000
  C   C8        1.0  1.1665193831253376e-05  0.3599835133658758  0.14003343863958415  1.0000
  C   C9        1.0  0.818452425766708  0.40923000070083787  0.09074919710358381  1.0000
  C   C10       1.0  0.999984578925989  0.40920448143469895  0.9092235216333859  1.0000
  C   C11       1.0  0.9999861142654749  0.6400156332106378  0.8599690628326188  1.0000
  C   C12       1.0  0.18155188902510125  0.5907616410322944  0.9092102192615528  1.0000
  C   C13       1.0  3.595723357129353e-05  0.8041116024188855  0.6959106986101702  1.0000
  C   C14       1.0  0.9999919103602721  0.6959042397831964  0.8040818924932722  1.0000
  C   C15       1.0  0.9560444425953277  0.7768472518537378  0.7671039892565548  1.0000
  C   C16       1.0  0.04393736279764953  0.7231240944799284  0.7328878067059176  1.0000
  C   C17       1.0  0.9560652437048203  0.7231715007778163  0.8208042113571639  1.0000
  C   C18       1.0  0.044000279239490625  0.7768814761972392  0.6791874912383592  1.0000
  C   C19       1.0  0.9999949431499858  0.1959128385618317  0.3040902580630628  1.0000
  C   C20       1.0  1.0335953980696829e-05  0.3040925914055848  0.1959184996956651  1.0000
  C   C21       1.0  0.9560212359287661  0.17919906568639746  0.2768596314834325  1.0000
  C   C22       1.0  0.04394540138798672  0.3208073437314027  0.22318558948596492  1.0000
  C   C23       1.0  0.9560713398002747  0.2329029751396874  0.2231180370080992  1.0000
  C   C24       1.0  0.04397911715216908  0.26710437084226873  0.2768435797257425  1.0000
  C   C25       1.0  1.7397064759532924e-05  0.628330438486067  0.12831011191312322  1.0000
  C   C26       1.0  0.9543745376492793  0.6536981529940958  0.1381371907397624  1.0000
  C   C27       1.0  0.9523694660684255  0.6868174016686768  0.1749668919298202  1.0000
  C   C28       1.0  0.9999878099908557  0.6990451336569948  0.19906167248056064  1.0000
  C   C29       1.0  0.04762283890337929  0.6749767548097836  0.18683611291149302  1.0000
  C   C30       1.0  0.045646962074172695  0.6381628396466255  0.15369794064773168  1.0000
  C   C31       1.0  0.9999745820337579  0.7346206319497384  0.23466352711379565  1.0000
  C   C32       1.0  0.9999653197822694  0.7653510687580936  0.26543434989870474  1.0000
  C   C33       1.0  0.9999500892359163  0.8009250919319442  0.30103151500846803  1.0000
  C   C34       1.0  0.9607445706485649  0.8356360531072585  0.3026229997816402  1.0000
  C   C35       1.0  0.9597857829025783  0.868717553554035  0.33948624217541123  1.0000
  C   C36       1.0  0.9999462129489061  0.8716462205882395  0.3717584929970599  1.0000
  C   C37       1.0  0.04010726269741833  0.8393808591391192  0.3688382415393861  1.0000
  C   C38       1.0  0.039141754370952145  0.8025099437115486  0.33576509479740224  1.0000
  C   C39       1.0  0.9999920021824378  0.37167616339327497  0.8716834090252304  1.0000
  C   C40       1.0  0.04563784758739327  0.4074811928159576  0.8006747608506046  1.0000
  C   C41       1.0  0.0476344728075873  0.3726469106939092  0.7655604456975456  1.0000
  C   C42       1.0  2.4866071939004703e-06  0.3009465127933737  0.8009552974783745  1.0000
  C   C43       1.0  0.9523697704732753  0.2655503748585346  0.8726515280253437  1.0000
  C   C44       1.0  0.9543554896725012  0.30066704797406646  0.9074845376001974  1.0000
  C   C45       1.0  0.99999935518408  0.2653556774075056  0.7653682365920602  1.0000
  C   C46       1.0  0.9999864989188438  0.2346004817882631  0.7346231397763673  1.0000
  C   C47       1.0  0.9999838157585259  0.19901583803364525  0.6990372690896436  1.0000
  C   C48       1.0  0.039187462688630596  0.23662663929204092  0.62511954299611  1.0000
  C   C49       1.0  0.040150119200134775  0.2007210901135039  0.5910807133147175  1.0000
  C   C50       1.0  0.9999931495124555  0.12829599119816493  0.6283106558050379  1.0000
  C   C51       1.0  0.9598267945561644  0.09106190015368283  0.7007361048096287  1.0000
  C   C52       1.0  0.9607766076578628  0.1250991063649422  0.7366442361656097  1.0000
  C   C53       1.0  0.7434014054681128  0.37170848156534936  0.1282531449455604  1.0000
  C   C54       1.0  0.7082065176714349  0.40893846171127274  0.13118787733347415  1.0000
  C   C55       1.0  0.6382622035611406  0.3748974702017592  0.16426645811515792  1.0000
  C   C56       1.0  0.601953865972682  0.30097970467462437  0.19898126333745128  1.0000
  C   C57       1.0  0.638263220764081  0.2633762281812083  0.19737627993898593  1.0000
  C   C58       1.0  0.7082087866861927  0.29928356934314604  0.16051363434682017  1.0000
  C   C59       1.0  0.5307822376484808  0.2653973444080649  0.23457293944005636  1.0000
  C   C60       1.0  0.469282879256319  0.2346424704791801  0.26533485198836365  1.0000
  C   C61       1.0  0.3981040980165105  0.19905034103855712  0.3009321390597036  1.0000
  C   C62       1.0  0.36180500059413134  0.23444689266646904  0.31317100082371496  1.0000
  C   C63       1.0  0.2918532813279525  0.19933425919070666  0.3463079899995023  1.0000
  C   C64       1.0  0.256642651114774  0.12832432848706798  0.3716847718257411  1.0000
  C   C65       1.0  0.2918457592451986  0.09251888771506614  0.3618437116166006  1.0000
  C   C66       1.0  0.36179457083010647  0.12735274997076837  0.32500759693674297  1.0000
  C   C67       1.0  0.25660187512517774  0.6282805901263658  0.871681149108447  1.0000
  C   C68       1.0  0.2918031340766873  0.6312173978424341  0.9089125314301257  1.0000
  C   C69       1.0  0.36174763924406494  0.6642978482301061  0.8748743930987856  1.0000
  C   C70       1.0  0.39805209942646513  0.6990110052702009  0.8009553502878148  1.0000
  C   C71       1.0  0.3617317583739632  0.6973991183862793  0.763349907686205  1.0000
  C   C72       1.0  0.2917857902578048  0.6605395119540844  0.7992557723344618  1.0000
  C   C73       1.0  0.46922159439062455  0.7346053075237151  0.7653772190087552  1.0000
  C   C74       1.0  0.5307212596979198  0.7653531495038025  0.7346423553207514  1.0000
  C   C75       1.0  0.601898433113021  0.8009347766858282  0.6990635732416733  1.0000
  C   C76       1.0  0.6382069047660792  0.813155600242567  0.7344671785439301  1.0000
  C   C77       1.0  0.7081561169668688  0.8462822276429591  0.6993503466772283  1.0000
  C   C78       1.0  0.7433622120930037  0.8716599553739072  0.6283399599032793  1.0000
  C   C79       1.0  0.7081562858918459  0.8618359789207163  0.5925264777526635  1.0000
  C   C80       1.0  0.6382061112790893  0.8250110207358079  0.6273583891103767  1.0000
  C   C81       1.0  0.10049412930708705  0.6847431301856304  0.20964963916388518  1.0000
  C   C82       1.0  0.8994914278317835  0.7096158124385357  0.18472691251628962  1.0000
  C   C83       1.0  0.082932854963623  0.768176619471177  0.3375544520056124  1.0000
  C   C84       1.0  0.916967813139593  0.8374356642041297  0.26826690026509653  1.0000
  C   C85       1.0  0.8994941042228178  0.1898736689230916  0.9157580316439816  1.0000
  C   C86       1.0  0.10051950401573617  0.4157463033757765  0.6898879310220564  1.0000
  C   C87       1.0  0.9169853725394503  0.07952103740768723  0.8147677831588281  1.0000
  C   C88       1.0  0.08297005569158966  0.3147498888082509  0.5795413561423145  1.0000
  C   C89       1.0  0.6057185185485208  0.1852509712965543  0.23171666118523152  1.0000
  C   C90       1.0  0.6057109855569109  0.4204696969565235  0.16249178579689538  1.0000
  C   C91       1.0  0.3943627280287246  0.08424851348683407  0.3152250388072416  1.0000
  C   C92       1.0  0.3943804301712746  0.3101278442617002  0.29036617915261326  1.0000
  C   C93       1.0  0.3942726133373922  0.7317314195417807  0.68522932148489  1.0000
  C   C94       1.0  0.39429579329375725  0.6625085003050089  0.9204580244621712  1.0000
  C   C95       1.0  0.6056294896295997  0.8152363875762775  0.5842514899769214  1.0000
  C   C96       1.0  0.6056459917571715  0.7903569832061735  0.8101427219707062  1.0000
  O   O1        1.0  0.9999997948025552  0.9999999157004424  0.5000011409619276  1.0000
  O   O2        1.0  0.15276059743924006  0.025531558596227903  0.4333012501227883  1.0000
  O   O3        1.0  0.04054186538918712  0.1562925752238371  0.38353717003104026  1.0000
  O   O4        1.0  0.9606778924848596  0.9356426372924246  0.4116119797904363  1.0000
  O   O5        1.0  0.15276211742541787  0.12724068541788114  0.4139618694831099  1.0000
  O   O6        1.0  0.039279153262604956  0.9115818867477758  0.43568289113498787  1.0000
  O   O7        1.0  0.9594312159561367  0.07592055222813338  0.38424929497795546  1.0000
  O   O8        1.0  0.8472424844106571  0.9332985410043266  0.5255470841901159  1.0000
  O   O9        1.0  0.9594971990188201  0.8835600369604965  0.6562975209665042  1.0000
  O   O10       1.0  0.8472458471140384  0.9138990598087845  0.6272753056203726  1.0000
  O   O11       1.0  0.04059143258822921  0.8842777157728677  0.5759192611518315  1.0000
  O   O12       1.0  0.03930133964009032  0.12770281544163714  0.5250512623351397  1.0000
  O   O13       1.0  0.9607009708451457  0.02504251995411985  0.6277087768726871  1.0000
  O   O14       1.0  2.129874417324847e-06  0.4999989528856688  5.53066875149778e-06  1.0000
  O   O15       1.0  0.9588431947746083  0.5860601632609316  0.06669056621866822  1.0000
  O   O16       1.0  0.039839096337686945  0.4240844024719835  0.11649029510336824  1.0000
  O   O17       1.0  0.8472552241598024  0.37229803835712255  0.08839239142513834  1.0000
  O   O18       1.0  0.04121309392399311  0.566721993775218  0.08604417297900108  1.0000
  O   O19       1.0  0.8472577299819051  0.4749599917121686  0.06432489783547608  1.0000
  O   O20       1.0  0.960184010620921  0.3437109515793468  0.11575107231982434  1.0000
  O   O21       1.0  0.9588130728157794  0.37275136155021504  0.9744897552570532  1.0000
  O   O22       1.0  0.03981057237875519  0.6157357037075785  0.8436951837237601  1.0000
  O   O23       1.0  0.04115236255216103  0.4744705966882634  0.8727711462979073  1.0000
  O   O24       1.0  0.9601594367097663  0.6164653091300353  0.9240728916834156  1.0000
  O   O25       1.0  0.1527548503758638  0.5643297680547832  0.9749435446311167  1.0000
  O   O26       1.0  0.1527402968014543  0.5883970177614446  0.8722806447534379  1.0000
  O   O27       1.0  0.9130015483343711  0.7997720708251279  0.7872097502882625  1.0000
  O   O28       1.0  0.08694797133721019  0.7001654187582818  0.7127863130427841  1.0000
  O   O29       1.0  0.9130338615994448  0.7002476347193468  0.8867719934228687  1.0000
  O   O30       1.0  0.08705349358919534  0.7998313505298641  0.6132191876360338  1.0000
  O   O31       1.0  0.9129726140175479  0.11323621410216608  0.29978989946779677  1.0000
  O   O32       1.0  0.08697032331336627  0.3867709976551623  0.20027810945489213  1.0000
  O   O33       1.0  0.9130529961194966  0.21280506000597652  0.20015757586407554  1.0000
  O   O34       1.0  0.08702509975597648  0.2872007309978883  0.2997765839110116  1.0000
  O   O35       1.0  0.1375314523994077  0.7496556498395677  0.19481228417036092  1.0000
  O   O36       1.0  0.11155126537590132  0.6374626510630679  0.23775842154180538  1.0000
  O   O37       1.0  0.8624466669164619  0.6947669671490574  0.24964186534565888  1.0000
  O   O38       1.0  0.8884366427088608  0.7377241689740118  0.13744105314847857  1.0000
  O   O39       1.0  0.0553058234809001  0.7009026695078546  0.35474496244984277  1.0000
  O   O40       1.0  0.13978792052073158  0.7982440259109821  0.32673446546096613  1.0000
  O   O41       1.0  0.9446244435886015  0.8546592509185017  0.20098011080488504  1.0000
  O   O42       1.0  0.8601110637449595  0.8266088294261854  0.2983193454273801  1.0000
  O   O43       1.0  0.8624446537285663  0.167679252176157  0.887883460261335  1.0000
  O   O44       1.0  0.8884517211979102  0.15070830066323274  0.9740909502641839  1.0000
  O   O45       1.0  0.13755110618833294  0.38786165282691343  0.6677040941779139  1.0000
  O   O46       1.0  0.11158387425398794  0.4740841422501419  0.6507174705845101  1.0000
  O   O47       1.0  0.9446275016135103  0.08994235055050834  0.8544147295155681  1.0000
  O   O48       1.0  0.8601255660389171  0.033503406881877126  0.8415481479190133  1.0000
  O   O49       1.0  0.055323964933442875  0.3543863283346411  0.58997498604203  1.0000
  O   O50       1.0  0.13982496879317097  0.341545963398275  0.5335120613385557  1.0000
  O   O51       1.0  0.5556624718093772  0.14561892863036974  0.29900800543103406  1.0000
  O   O52       1.0  0.6249435742186691  0.15845263021686407  0.2016600393226895  1.0000
  O   O53       1.0  0.555627534505298  0.410042007880577  0.1452923392830173  1.0000
  O   O54       1.0  0.6249490688806318  0.4664860465409504  0.17333396562855802  1.0000
  O   O55       1.0  0.4444257159517164  0.11212768825184585  0.25030624942173313  1.0000
  O   O56       1.0  0.3751935874194387  0.025908715752414845  0.3625028372159562  1.0000
  O   O57       1.0  0.4444554009652606  0.33232249447392787  0.3052139813374026  1.0000
  O   O58       1.0  0.3752122201675546  0.34929407347017627  0.2622455759302227  1.0000
  O   O59       1.0  0.4443401529485627  0.7990145874750925  0.6455891703650778  1.0000
  O   O60       1.0  0.37503440771863683  0.7016661584156979  0.6584379653808837  1.0000
  O   O61       1.0  0.4443648693085294  0.6452931097603098  0.9100333502104974  1.0000
  O   O62       1.0  0.3750648066274207  0.6733418487792875  0.9664824980457425  1.0000
  O   O63       1.0  0.5555613203279747  0.7503193408936681  0.6121252214706346  1.0000
  O   O64       1.0  0.6247914627990311  0.8625156649940209  0.5259174607057061  1.0000
  O   O65       1.0  0.5555748379779784  0.80519988470909  0.8323396764547297  1.0000
  O   O66       1.0  0.6248203122838449  0.7622439686689975  0.8493076550493939  1.0000
