data_image0
_chemical_formula_structural       Na4H40C24N4O12
_chemical_formula_sum              "Na4 H40 C24 N4 O12"
_cell_length_a       6.876978366101801
_cell_length_b       8.254845901009315
_cell_length_c       13.760396642527216
_cell_angle_alpha    89.99992616986103
_cell_angle_beta     92.70391813590028
_cell_angle_gamma    89.99984849456553

_space_group_name_H-M_alt    "P 1"
_space_group_IT_number       1

loop_
  _space_group_symop_operation_xyz
  'x, y, z'

loop_
  _atom_site_type_symbol
  _atom_site_label
  _atom_site_symmetry_multiplicity
  _atom_site_fract_x
  _atom_site_fract_y
  _atom_site_fract_z
  _atom_site_occupancy
  Na  Na1       1.0  0.7529278806752728  0.5022466692651691  0.4840927548792921  1.0000
  Na  Na2       1.0  0.7470694135115535  0.002245787283278801  0.5159072616611768  1.0000
  Na  Na3       1.0  0.24706854955513788  0.49775285986383744  0.5159072227582373  1.0000
  Na  Na4       1.0  0.2529299266941081  0.9977525304320242  0.4840935128244866  1.0000
  H   H1        1.0  0.3088421994525702  0.6835379601948974  0.7472962366039371  1.0000
  H   H2        1.0  0.19115876368907433  0.1835365590440929  0.2527026192781109  1.0000
  H   H3        1.0  0.6911527750407627  0.316455511887483  0.2527037059558382  1.0000
  H   H4        1.0  0.8088420337881883  0.8164593358510575  0.7472974636019105  1.0000
  H   H5        1.0  0.40829817953863307  0.6794285584447125  0.9239328949980891  1.0000
  H   H6        1.0  0.09170279551326388  0.17942412348554632  0.07606669104163903  1.0000
  H   H7        1.0  0.5917011621877037  0.320569759271372  0.07606715280059012  1.0000
  H   H8        1.0  0.9082980004433309  0.8205717714088155  0.9239341185253739  1.0000
  H   H9        1.0  0.7147934547160588  0.5327046476812286  0.9797251513973111  1.0000
  H   H10       1.0  0.7852066560247408  0.0326986975771675  0.020272729530475406  1.0000
  H   H11       1.0  0.2852088045750065  0.4673009384926416  0.020272059810977808  1.0000
  H   H12       1.0  0.2147926856996065  0.9673008315485704  0.979727318267692  1.0000
  H   H13       1.0  0.9387650238809966  0.23873662044160684  0.838306146612091  1.0000
  H   H14       1.0  0.5612358633833309  0.7387349863886004  0.16169450219729956  1.0000
  H   H15       1.0  0.0612401408173895  0.7612713885451615  0.16169404150377184  1.0000
  H   H16       1.0  0.43875910805481755  0.26126696555977713  0.8383068937328704  1.0000
  H   H17       1.0  0.988449865221632  0.3672645969652778  0.9401851391366594  1.0000
  H   H18       1.0  0.5115476921509624  0.8672632923790716  0.05981460431375043  1.0000
  H   H19       1.0  0.011550930717156398  0.6327422006159512  0.05981567042574201  1.0000
  H   H20       1.0  0.4884472792832213  0.13274108238860552  0.9401867916153965  1.0000
  H   H21       1.0  0.08587039466475939  0.41256879794901397  0.8253358195738943  1.0000
  H   H22       1.0  0.414129818679882  0.9125687845318925  0.17466356963264937  1.0000
  H   H23       1.0  0.9141333188526133  0.5874367882224335  0.17466215340169816  1.0000
  H   H24       1.0  0.5858680642442947  0.08743801305182332  0.8253378964561053  1.0000
  H   H25       1.0  0.001219777165132999  0.2678640476262332  0.39782618120764834  1.0000
  H   H26       1.0  0.4987823662145772  0.7678653461781269  0.6021726385603119  1.0000
  H   H27       1.0  0.9987810218347732  0.7321306358600455  0.6021731749858931  1.0000
  H   H28       1.0  0.5012184327774135  0.2321341829467657  0.3978267176311833  1.0000
  H   H29       1.0  0.07445964111988697  0.42788397069001866  0.34530769189123595  1.0000
  H   H30       1.0  0.42554052218583377  0.9278853162506736  0.6546916843847301  1.0000
  H   H31       1.0  0.9255382463840929  0.5721119242091818  0.6546915941411628  1.0000
  H   H32       1.0  0.5744602752854887  0.07211421287343003  0.3453083984937565  1.0000
  H   H33       1.0  0.9518241845837635  0.23128427236592594  0.599471359856999  1.0000
  H   H34       1.0  0.5481796385231162  0.7312821501031267  0.400529365404964  1.0000
  H   H35       1.0  0.04817515562388048  0.7687128339397234  0.40052941462918323  1.0000
  H   H36       1.0  0.45181824746020277  0.26871374479529214  0.5994706473144192  1.0000
  H   H37       1.0  0.7931219137863649  0.33284897508550426  0.6517507346912909  1.0000
  H   H38       1.0  0.7068772117713563  0.8328490406514037  0.3482490728946461  1.0000
  H   H39       1.0  0.2068745149213953  0.6671517654523742  0.3482499696327182  1.0000
  H   H40       1.0  0.2931221299549733  0.16714927706468796  0.6517509749040331  1.0000
  C   C1        1.0  0.5652021030990751  0.552336002532755  0.7049012454653651  1.0000
  C   C2        1.0  0.9347964862254869  0.05233639800484722  0.295097310492416  1.0000
  C   C3        1.0  0.4347972401439648  0.4476647380034181  0.2950980756452993  1.0000
  C   C4        1.0  0.0651999440029414  0.9476643425338128  0.7049026671446088  1.0000
  C   C5        1.0  0.4427749485163587  0.6244440105041705  0.7736902415149702  1.0000
  C   C6        1.0  0.0572232961945645  0.12444538309158307  0.2263085940960111  1.0000
  C   C7        1.0  0.5572200259769744  0.37554946157820984  0.22630970104480508  1.0000
  C   C8        1.0  0.9427775012807158  0.8755517232132206  0.7736914887834988  1.0000
  C   C9        1.0  0.49838357455755755  0.6196769467259388  0.8714745098026315  1.0000
  C   C10       1.0  0.0016205072085284998  0.11967017303390293  0.12852519684469857  1.0000
  C   C11       1.0  0.5016186786548004  0.38032621662549115  0.12852560815463934  1.0000
  C   C12       1.0  0.9983802902647765  0.8803281446805472  0.8714748860342995  1.0000
  C   C13       1.0  0.669823798307533  0.5388139190173294  0.9028899872516478  1.0000
  C   C14       1.0  0.8301806597108623  0.038810126805259415  0.09710799375835684  1.0000
  C   C15       1.0  0.33017845794616096  0.46118924433566383  0.09710867733164012  1.0000
  C   C16       1.0  0.16981868353613544  0.9611881909116066  0.9028913273533379  1.0000
  C   C17       1.0  0.7791203942946225  0.4624853747033059  0.8336544915472789  1.0000
  C   C18       1.0  0.7208812222604803  0.962484591795459  0.16634382337866074  1.0000
  C   C19       1.0  0.2208847719382803  0.5375141544166767  0.16634496988516648  1.0000
  C   C20       1.0  0.27911375070031136  0.03751614874405361  0.8336568458650294  1.0000
  C   C21       1.0  0.9578462869935079  0.36560266190092255  0.8612485638246955  1.0000
  C   C22       1.0  0.5421556445688438  0.8656023307639418  0.13875055958238394  1.0000
  C   C23       1.0  0.0421617922460911  0.6344017128551798  0.13875024107935735  1.0000
  C   C24       1.0  0.4578393268673224  0.1344008325940821  0.8612508363472744  1.0000
  N   N1        1.0  0.728656386140379  0.47032335467371683  0.7373793313684234  1.0000
  N   N2        1.0  0.7713408345233006  0.9703234641345662  0.2626203250728666  1.0000
  N   N3        1.0  0.2713429525426391  0.5296761744504509  0.2626221698037271  1.0000
  N   N4        1.0  0.2286570499353928  0.029674853582371007  0.7373804143324849  1.0000
  O   O1        1.0  0.5298579745556821  0.5648124503297113  0.6115346989790001  1.0000
  O   O2        1.0  0.9701405724844817  0.06481377762810331  0.3884645731319908  1.0000
  O   O3        1.0  0.4701369999277531  0.4351870788009366  0.3884652435782173  1.0000
  O   O4        1.0  0.029861682254484392  0.9351857514951478  0.6115348181398161  1.0000
  O   O5        1.0  0.004355145062326899  0.3889832001065514  0.40143429394107255  1.0000
  O   O6        1.0  0.4956466026070387  0.8889833019353193  0.5985644235711621  1.0000
  O   O7        1.0  0.9956471066412432  0.6110126947861833  0.5985665507062523  1.0000
  O   O8        1.0  0.5043527421586517  0.111016227191989  0.4014341708530227  1.0000
  O   O9        1.0  0.8145649080409925  0.2612656071056207  0.5932647994874432  1.0000
  O   O10       1.0  0.6854373583152051  0.7612692273651264  0.4067373187536776  1.0000
  O   O11       1.0  0.1854344306420258  0.7387339220185468  0.40673670168470727  1.0000
  O   O12       1.0  0.31456052766414894  0.2387290903525994  0.5932626939646896  1.0000
