data_image0
_chemical_formula_structural       Cd2H28C34N12Cl4O2
_chemical_formula_sum              "Cd2 H28 C34 N12 Cl4 O2"
_cell_length_a       7.85246074548755
_cell_length_b       8.451230750761685
_cell_length_c       13.76708292885755
_cell_angle_alpha    92.88908173878932
_cell_angle_beta     89.98149813468865
_cell_angle_gamma    107.45493414083764

_space_group_name_H-M_alt    "P 1"
_space_group_IT_number       1

loop_
  _space_group_symop_operation_xyz
  'x, y, z'

loop_
  _atom_site_type_symbol
  _atom_site_label
  _atom_site_symmetry_multiplicity
  _atom_site_fract_x
  _atom_site_fract_y
  _atom_site_fract_z
  _atom_site_occupancy
  Cd  Cd1       1.0  0.7916200075744089  0.8034555915271895  0.47727452329966275  1.0000
  Cd  Cd2       1.0  0.20837897388061322  0.19654199758072366  0.5227248499283591  1.0000
  H   H1        1.0  0.40207167516919645  0.6647368267555507  0.5410662902914966  1.0000
  H   H2        1.0  0.5979281113573052  0.33526324666277657  0.45893461233339394  1.0000
  H   H3        1.0  0.39547795924697476  0.8129219593115664  0.4770703173739507  1.0000
  H   H4        1.0  0.6045230999978984  0.1870781117362199  0.522930585442552  1.0000
  H   H5        1.0  0.5772353435497523  0.674240647747247  0.2892220101345374  1.0000
  H   H6        1.0  0.42276357193624386  0.3257606702510926  0.7107803833691406  1.0000
  H   H7        1.0  0.8300641408322849  0.1620752332270357  0.3793574764085791  1.0000
  H   H8        1.0  0.16993564569421693  0.8379248401912918  0.6206434262163187  1.0000
  H   H9        1.0  0.7235000253817035  0.26997832759239765  0.23215427991024748  1.0000
  H   H10       1.0  0.27649594298971897  0.7300217529375459  0.767846622139814  1.0000
  H   H11       1.0  0.5333645637837635  0.06397312913158967  0.10751829010282422  1.0000
  H   H12       1.0  0.46663267473234527  0.9360269491906051  0.8924847912547095  1.0000
  H   H13       1.0  0.22885654062066155  0.4201272614621204  0.8309419718102194  1.0000
  H   H14       1.0  0.7711525591859003  0.5798740374091125  0.1690582441104881  1.0000
  H   H15       1.0  0.9973692139104103  0.1629735008278956  0.7646802706880252  1.0000
  H   H16       1.0  0.0026408169004384025  0.8370228249527472  0.23532051868192388  1.0000
  H   H17       1.0  0.7874393282661104  0.9854521989045679  0.8832546622995923  1.0000
  H   H18       1.0  0.21256648185391205  0.014542891832483898  0.11674536179708644  1.0000
  H   H19       1.0  0.8218889196891793  0.0706307753065687  0.05875687999957792  1.0000
  H   H20       1.0  0.17811294720085158  0.9293717798888393  0.9412433730979475  1.0000
  H   H21       1.0  0.40490827433521304  0.3005882251500935  0.15241788859560051  1.0000
  H   H22       1.0  0.5950901795091567  0.6994155791493456  0.8475809495096629  1.0000
  H   H23       1.0  0.3351475663471676  0.1526166302814573  0.30871535200014233  1.0000
  H   H24       1.0  0.6648508892129856  0.8473871739094534  0.691282033361212  1.0000
  H   H25       1.0  0.10140413146589111  0.49940391861464667  0.42300565264189777  1.0000
  H   H26       1.0  0.8985931104817838  0.5005961594904988  0.5769945232278177  1.0000
  H   H27       1.0  0.15060186574493875  0.6534619263505517  0.27231729401511023  1.0000
  H   H28       1.0  0.8493983241752047  0.3465393891687185  0.7276836469362709  1.0000
  C   C1        1.0  0.6020989138277671  0.8042536579546534  0.2733202908295453  1.0000
  C   C2        1.0  0.39790087441452476  0.19574641535514553  0.7266791590514432  1.0000
  C   C3        1.0  0.7467306052342124  0.0779748892386607  0.3237206865473042  1.0000
  C   C4        1.0  0.2532653631372099  0.9220251912912898  0.6762802155027502  1.0000
  C   C5        1.0  0.6869140708542575  0.13697030033018356  0.24177703147813653  1.0000
  C   C6        1.0  0.3130822991950169  0.8630310224092383  0.7582253616423104  1.0000
  C   C7        1.0  0.5811270427934191  0.023203019335483098  0.17336126515373715  1.0000
  C   C8        1.0  0.41887234119734984  0.9767958119276371  0.8266388727727192  1.0000
  C   C9        1.0  0.5387352475538806  0.8523718215971811  0.18832800880670675  1.0000
  C   C10       1.0  0.46126668187360315  0.1476270049248569  0.8116721295029736  1.0000
  C   C11       1.0  0.4476262890580998  0.7357427555867629  0.10958390729597063  1.0000
  C   C12       1.0  0.552376047194592  0.2642573128191614  0.8904133638523819  1.0000
  C   C13       1.0  0.2823622382457316  0.5251472710013444  0.017809316806904  1.0000
  C   C14       1.0  0.7176404979690219  0.4748540397225796  0.9821908981557428  1.0000
  C   C15       1.0  0.1482503891960789  0.3738876624485598  0.9800142346205052  1.0000
  C   C16       1.0  0.8517489913631168  0.626111169031617  0.019988808793769405  1.0000
  C   C17       1.0  0.1378224150692446  0.3375339905588319  0.8790865791254917  1.0000
  C   C18       1.0  0.8621825248681603  0.662462344703968  0.12091420947800911  1.0000
  C   C19       1.0  0.007621255079634177  0.19595727075378014  0.8426240337923334  1.0000
  C   C20       1.0  0.9923812002427186  0.8040353406852603  0.15737809238400766  1.0000
  C   C21       1.0  0.8910095482950453  0.09810388352964589  0.9076299267574516  1.0000
  C   C22       1.0  0.10898989823316894  0.9018912190601043  0.09237009638116693  1.0000
  C   C23       1.0  0.9110160784374203  0.14557756775984393  0.006591334956979703  1.0000
  C   C24       1.0  0.08897902318295789  0.8544237570787843  0.993407426112093  1.0000
  C   C25       1.0  0.27986591551375284  0.48619559349069863  0.20013138317577275  1.0000
  C   C26       1.0  0.7201347420532683  0.5138032353476163  0.7998680285703376  1.0000
  C   C27       1.0  0.3321855806676624  0.3437031105876684  0.21009656671520827  1.0000
  C   C28       1.0  0.6678154177555412  0.6563006890249524  0.7899029981452301  1.0000
  C   C29       1.0  0.29617519859084496  0.2636959463214552  0.2967964575941694  1.0000
  C   C30       1.0  0.7038233177909774  0.7363041293046139  0.7032022657232562  1.0000
  C   C31       1.0  0.1657130219774956  0.45652564391186695  0.3613556319469566  1.0000
  C   C32       1.0  0.8342867645490131  0.5434744295064604  0.6386452706779411  1.0000
  C   C33       1.0  0.19386641214016714  0.5433434760399861  0.2764806995588672  1.0000
  C   C34       1.0  0.8061349879608813  0.45666156578211314  0.7235203563719638  1.0000
  N   N1        1.0  0.7041677814941635  0.9149416616182932  0.3388759113631111  1.0000
  N   N2        1.0  0.29582986213137025  0.08505965869632348  0.6611257555769969  1.0000
  N   N3        1.0  0.47589354369456777  0.7721635165993135  0.017071082383672796  1.0000
  N   N4        1.0  0.524109195093871  0.2278377939618252  0.982926953463114  1.0000
  N   N5        1.0  0.3724179575428224  0.6421901732594149  0.9603860312813526  1.0000
  N   N6        1.0  0.6275839744583465  0.3578086530998307  0.039611927912467614  1.0000
  N   N7        1.0  0.32679225056172356  0.5781821893837031  0.11414108096064272  1.0000
  N   N8        1.0  0.6732075368226731  0.4218178839803599  0.8858590952922969  1.0000
  N   N9        1.0  0.03656442108432856  0.2800385231839328  0.043381353560263805  1.0000
  N   N10       1.0  0.9634307413577191  0.7199590730898605  0.9566187454648727  1.0000
  N   N11       1.0  0.21555393990710311  0.3194317711087393  0.3716833625013365  1.0000
  N   N12       1.0  0.7844428386831623  0.6805707934060337  0.6283147107138732  1.0000
  Cl  Cl1       1.0  0.14327541386616363  0.8989646622013863  0.4294755512341056  1.0000
  Cl  Cl2       1.0  0.8567256462365906  0.10103540879213568  0.5705246252104459  1.0000
  Cl  Cl3       1.0  0.7554059179213866  0.5243957184939488  0.38160436233906847  1.0000
  Cl  Cl4       1.0  0.2445934669272702  0.4756031127149  0.6183950492154369  1.0000
  O   O1        1.0  0.4777416454298233  0.762599617647588  0.5078448416870743  1.0000
  O   O2        1.0  0.5222577385609455  0.2373992136155252  0.492155296239382  1.0000
