data_image0
_chemical_formula_structural       Na4H16C12N12O12
_chemical_formula_sum              "Na4 H16 C12 N12 O12"
_cell_length_a       6.889164531741193
_cell_length_b       9.354672570645997
_cell_length_c       9.354446844841528
_cell_angle_alpha    112.63923485774555
_cell_angle_beta     96.05801014600056
_cell_angle_gamma    96.05764684956424

_space_group_name_H-M_alt    "P 1"
_space_group_IT_number       1

loop_
  _space_group_symop_operation_xyz
  'x, y, z'

loop_
  _atom_site_type_symbol
  _atom_site_label
  _atom_site_symmetry_multiplicity
  _atom_site_fract_x
  _atom_site_fract_y
  _atom_site_fract_z
  _atom_site_occupancy
  Na  Na1       1.0  0.48458010515093264  0.563989157614067  0.18788699663145547  1.0000
  Na  Na2       1.0  0.015433315853009237  0.812118606557206  0.4360253065260765  1.0000
  Na  Na3       1.0  0.5154281869951731  0.43601647651014735  0.8121145425424103  1.0000
  Na  Na4       1.0  0.984572646386546  0.18788235936703765  0.5639817572394393  1.0000
  H   H1        1.0  0.16509932413195122  0.5565206347659314  0.9337019931431172  1.0000
  H   H2        1.0  0.33490206644095366  0.06629466872269059  0.44346821155514243  1.0000
  H   H3        1.0  0.8349144677429835  0.4434756574302768  0.06629959700185152  1.0000
  H   H4        1.0  0.6650989515553078  0.9337109568674578  0.5565381230576281  1.0000
  H   H5        1.0  0.15041879474051703  0.38381642821677525  0.9244105416000039  1.0000
  H   H6        1.0  0.34960143259550597  0.0755912334909183  0.6161792291326762  1.0000
  H   H7        1.0  0.8495994344279086  0.6161799215271702  0.07560102507481059  1.0000
  H   H8        1.0  0.650411494378858  0.9244156095130267  0.383827396172059  1.0000
  H   H9        1.0  0.1712891743930314  0.5224497496015913  0.3481963526584266  1.0000
  H   H10       1.0  0.32872927332545754  0.6518013613333553  0.47756638153964576  1.0000
  H   H11       1.0  0.8287240862642378  0.4775512423324887  0.6518102002659136  1.0000
  H   H12       1.0  0.6712798446445305  0.34820079428804024  0.5224424428467885  1.0000
  H   H13       1.0  0.7997041522248338  0.49941511154015933  0.37366916947586776  1.0000
  H   H14       1.0  0.7003013982584179  0.6263289674585408  0.5006016759326785  1.0000
  H   H15       1.0  0.20029673764818062  0.5005823122577838  0.6263350909107077  1.0000
  H   H16       1.0  0.299700700374082  0.37366727176269177  0.49939794656963704  1.0000
  C   C1        1.0  0.5075457145830954  0.8907453470801557  0.0869073769513379  1.0000
  C   C2        1.0  0.9924469452078737  0.9130598427378799  0.10923532061816127  1.0000
  C   C3        1.0  0.4923676299620752  0.1092375894073854  0.9130708747386223  1.0000
  C   C4        1.0  0.0075544462649900996  0.0869409695219332  0.8907382013300023  1.0000
  C   C5        1.0  0.46997385697109456  0.0530148679401918  0.1554602933210063  1.0000
  C   C6        1.0  0.029977944025020506  0.8445424562214754  0.9469860851735775  1.0000
  C   C7        1.0  0.5300339491010106  0.9469883979859188  0.8445349594093373  1.0000
  C   C8        1.0  0.9699827391514475  0.15545122720475046  0.052999828561233656  1.0000
  C   C9        1.0  0.4666870157382945  0.1558072183088939  0.07802412429885663  1.0000
  C   C10       1.0  0.03336060065473843  0.9220013508880599  0.8442114226012907  1.0000
  C   C11       1.0  0.5333285990933803  0.8441984593009194  0.9219811886315695  1.0000
  C   C12       1.0  0.9666193668301593  0.07800884132103651  0.15578652328397882  1.0000
  N   N1        1.0  0.4311352156781183  0.2946854223427025  0.18113525286197787  1.0000
  N   N2        1.0  0.06888728468749153  0.8188886065998349  0.7053528639491802  1.0000
  N   N3        1.0  0.5688409246015027  0.7053200693770237  0.8188616786566884  1.0000
  N   N4        1.0  0.9311239940311821  0.18113229629724262  0.2946590093487913  1.0000
  N   N5        1.0  0.41236029139154345  0.27735997285014247  0.315245075037744  1.0000
  N   N6        1.0  0.08766514585057189  0.6847733365360326  0.7227160709382332  1.0000
  N   N7        1.0  0.5876815623073598  0.7226528733213441  0.684771361926451  1.0000
  N   N8        1.0  0.9123271890266694  0.3152394122833186  0.2773233346655957  1.0000
  N   N9        1.0  0.43432475013879923  0.1315415961911626  0.30214029626910843  1.0000
  N   N10       1.0  0.06564853707232741  0.6978866099747024  0.8685102428628894  1.0000
  N   N11       1.0  0.5656358454252554  0.8684591245884549  0.6978493686425794  1.0000
  N   N12       1.0  0.9343431998506303  0.302130790524167  0.13152234287656484  1.0000
  O   O1        1.0  0.5210342665954713  0.8078303932616536  0.1631055900987804  1.0000
  O   O2        1.0  0.9789827522533232  0.836848580430413  0.1921384093812294  1.0000
  O   O3        1.0  0.4790019456833009  0.1921612728572484  0.8368884335938632  1.0000
  O   O4        1.0  0.021016150661573394  0.1630876185729662  0.8077781683655019  1.0000
  O   O5        1.0  0.24120235046248698  0.4833742167692921  0.9612575109003246  1.0000
  O   O6        1.0  0.2588018113967934  0.0387471499348848  0.5166249471640684  1.0000
  O   O7        1.0  0.7588134983057485  0.516632638386163  0.038749338527715414  1.0000
  O   O8        1.0  0.7412080717274208  0.9612514834942871  0.4833804509406009  1.0000
  O   O9        1.0  0.2499901632295618  0.625170897897533  0.37480052227127203  1.0000
  O   O10       1.0  0.7500153372038484  0.3748277173043705  0.6252045396484434  1.0000
  O   O11       1.0  0.7500143737984003  0.6006087734677551  0.3994077393640297  1.0000
  O   O12       1.0  0.24999525112139753  0.39938866494001246  0.6005918376453039  1.0000
