data_image0
_chemical_formula_structural       Gd4H36C60N8O24
_chemical_formula_sum              "Gd4 H36 C60 N8 O24"
_cell_length_a       6.788352606199372
_cell_length_b       12.85549616
_cell_length_c       16.7229
_cell_angle_alpha    90.0
_cell_angle_beta     93.6780852249187
_cell_angle_gamma    90.0

_space_group_name_H-M_alt    "P 1"
_space_group_IT_number       1

loop_
  _space_group_symop_operation_xyz
  'x, y, z'

loop_
  _atom_site_type_symbol
  _atom_site_label
  _atom_site_symmetry_multiplicity
  _atom_site_fract_x
  _atom_site_fract_y
  _atom_site_fract_z
  _atom_site_occupancy
  Gd  Gd1       1.0  0.6175777096934567  0.6274740313095749  0.04865369572766549  1.0000
  Gd  Gd2       1.0  0.8824215196813936  0.1274738819571155  0.9513460151125911  1.0000
  Gd  Gd3       1.0  0.3824207924551145  0.37252626739534384  0.9513454878900163  1.0000
  Gd  Gd4       1.0  0.117578458619171  0.8725256388703997  0.048654402910024395  1.0000
  H   H1        1.0  0.11654367607143708  0.785137335376092  0.297657229931687  1.0000
  H   H2        1.0  0.383454098850855  0.2851379639010361  0.7023426224282401  1.0000
  H   H3        1.0  0.8834533499251407  0.2148614075740198  0.7023413172634747  1.0000
  H   H4        1.0  0.6165444032977163  0.7148615569264791  0.2976577571542549  1.0000
  H   H5        1.0  0.04563376273983269  0.7522214529602422  0.4413279068879561  1.0000
  H   H6        1.0  0.4543654883344529  0.2522213036077758  0.5586719839120846  1.0000
  H   H7        1.0  0.9543647394087386  0.2477788457446835  0.5586712767297256  1.0000
  H   H8        1.0  0.5456344899661119  0.7477797729745534  0.44132843411053096  1.0000
  H   H9        1.0  0.7529246098633633  0.4673184080356805  0.37086757382567725  1.0000
  H   H10       1.0  0.7470760956634803  0.9673185573881398  0.6291327734370995  1.0000
  H   H11       1.0  0.24707536843720124  0.5326811127918347  0.6291334421793451  1.0000
  H   H12       1.0  0.2529224064850907  0.0326809634393754  0.37086700816298895  1.0000
  H   H13       1.0  0.8200127656827333  0.5015271226995566  0.22690183515785378  1.0000
  H   H14       1.0  0.679986463692117  0.0015277512245007  0.7730984736648097  1.0000
  H   H15       1.0  0.1799827841618509  0.4984716202505552  0.7730984675444147  1.0000
  H   H16       1.0  0.32001351460844757  0.9984725474804251  0.2269013463753993  1.0000
  H   H17       1.0  0.9409789931279349  0.7658055260933595  0.6688519759724941  1.0000
  H   H18       1.0  0.5590217123989092  0.2658053767409001  0.3311477733078831  1.0000
  H   H19       1.0  0.059020985172629985  0.2341955504889697  0.3311484420501216  1.0000
  H   H20       1.0  0.44097826590165556  0.7341941440866151  0.6688520467323258  1.0000
  H   H21       1.0  0.8547111944516528  0.7236927991116886  0.8094832275996493  1.0000
  H   H22       1.0  0.6452880349231974  0.2236918718818259  0.1905170812230068  1.0000
  H   H23       1.0  0.1452873076969183  0.27630749959323  0.1905171519828457  1.0000
  H   H24       1.0  0.3547119433773673  0.7763076489456964  0.8094827388172019  1.0000
  H   H25       1.0  0.5630014181745009  0.4451457904678833  0.7234040847330547  1.0000
  H   H26       1.0  0.9369978112003494  0.9451459398203426  0.276595626107202  1.0000
  H   H27       1.0  0.4370000362780573  0.554853730359639  0.2765957737472746  1.0000
  H   H28       1.0  0.06300069094822189  0.0548543588845831  0.7234041554928936  1.0000
  H   H29       1.0  0.6446178619179574  0.4880752887253763  0.5827970180204645  1.0000
  H   H30       1.0  0.8553813674568929  0.9880746602004322  0.4172032908021919  1.0000
  H   H31       1.0  0.3553835925346007  0.5119250099795423  0.4172034384422645  1.0000
  H   H32       1.0  0.14461713469167847  0.011924860627083003  0.5827964907978966  1.0000
  H   H33       1.0  0.9446250885528966  0.3678084409306877  0.05024263134311009  1.0000
  H   H34       1.0  0.5553741408219537  0.8678078124057436  0.9497576774795461  1.0000
  H   H35       1.0  0.0553734135956745  0.632191857774238  0.949757748239385  1.0000
  H   H36       1.0  0.44462583747861106  0.1321924862991821  0.050242740543069396  1.0000
  C   C1        1.0  0.9977547511178244  0.6724672383240033  0.16855086412957823  1.0000
  C   C2        1.0  0.5022430021050326  0.172467088971537  0.8314500042353712  1.0000
  C   C3        1.0  0.0022437510307469  0.3275307267487051  0.8314489174705102  1.0000
  C   C4        1.0  0.49775697619553216  0.8275332097333816  0.1685504137872442  1.0000
  C   C5        1.0  0.9713847718985562  0.6459307285110683  0.2540974188873975  1.0000
  C   C6        1.0  0.5286174097802813  0.1459329127908191  0.745902368833093  1.0000
  C   C7        1.0  0.0286137302500151  0.3540680144390508  0.7459017647302845  1.0000
  C   C8        1.0  0.4713810923682899  0.8540673859141066  0.2540974127670026  1.0000
  C   C9        1.0  0.037317122406122394  0.7158665745344521  0.3147008442623047  1.0000
  C   C10       1.0  0.4626850809721503  0.21586720305939625  0.6852991234179766  1.0000
  C   C11       1.0  0.9626828558944422  0.2841313905382563  0.6852977798130908  1.0000
  C   C12       1.0  0.5373134211764209  0.7841330956455295  0.3147006581821117  1.0000
  C   C13       1.0  0.9979038424692064  0.6982235370991674  0.393826081098787  1.0000
  C   C14       1.0  0.5020983392096311  0.19822338774670814  0.6061737066216962  1.0000
  C   C15       1.0  0.002097611983352  0.3017767616057512  0.6061731793991285  1.0000
  C   C16       1.0  0.4979001629389401  0.8017769109582176  0.3938266729607989  1.0000
  C   C17       1.0  0.8910540565417975  0.6089286560838616  0.413235356749169  1.0000
  C   C18       1.0  0.6089481251370399  0.10892928460879861  0.5867662249185414  1.0000
  C   C19       1.0  0.10894739791076087  0.3910716426210641  0.5867656976959734  1.0000
  C   C20       1.0  0.3910503770115312  0.8910694583413132  0.4132353506287671  1.0000
  C   C21       1.0  0.8317275079064288  0.5366895150626405  0.3533871637072891  1.0000
  C   C22       1.0  0.6682776260764027  0.0366916993423914  0.6466144948406622  1.0000
  C   C23       1.0  0.16827542269813014  0.4633092278874784  0.646613929177974  1.0000
  C   C24       1.0  0.3317253045281489  0.9633093772399378  0.3533865980446009  1.0000
  C   C25       1.0  0.8698683231251534  0.5555685996953414  0.2740677542620914  1.0000
  C   C26       1.0  0.630133858553684  0.055570006097688904  0.7259332294232123  1.0000
  C   C27       1.0  0.1301301790234177  0.4444301432547775  0.7259332233028104  1.0000
  C   C28       1.0  0.3698631674428938  0.9444295147298335  0.2740683076839829  1.0000
  C   C29       1.0  0.7996462966227114  0.6288322052596698  0.6184942546038315  1.0000
  C   C30       1.0  0.700355885056126  0.1288328337846139  0.38150553311665897  1.0000
  C   C31       1.0  0.200355157829847  0.3711680934452559  0.38150560387649796  1.0000
  C   C32       1.0  0.2996455693964321  0.8711682427977152  0.6184937273812565  1.0000
  C   C33       1.0  0.8570538476659948  0.6962282815539353  0.6818941235324019  1.0000
  C   C34       1.0  0.6429483340128426  0.1962289100788794  0.3181056641880814  1.0000
  C   C35       1.0  0.1429476067865636  0.3037720171509903  0.3181063329303271  1.0000
  C   C36       1.0  0.3570545965917091  0.8037721665034497  0.6818936347499542  1.0000
  C   C37       1.0  0.809788936972886  0.6725178003553651  0.7596161226166627  1.0000
  C   C38       1.0  0.6902102924019643  0.17251842888030214  0.24038358822359374  1.0000
  C   C39       1.0  0.19021104132767863  0.3274824983495606  0.2403842954059527  1.0000
  C   C40       1.0  0.3097896858986005  0.827482647702027  0.7596156338342084  1.0000
  C   C41       1.0  0.7039576959212752  0.5815123669252458  0.77436314189206  1.0000
  C   C42       1.0  0.7960430096055688  0.0815129954501899  0.22563660738830996  1.0000
  C   C43       1.0  0.2960437585312832  0.41848793177967997  0.2256367165882693  1.0000
  C   C44       1.0  0.20395844484698955  0.9184880811321394  0.774363251092012  1.0000
  C   C45       1.0  0.6441691117118111  0.5154285698141408  0.7102853471742916  1.0000
  C   C46       1.0  0.8558315938150329  0.0154291983390848  0.28971440210607813  1.0000
  C   C47       1.0  0.3558323427407472  0.4845709510133744  0.2897145113060375  1.0000
  C   C48       1.0  0.1441698606375255  0.9845711003658408  0.7102860543566507  1.0000
  C   C49       1.0  0.6893851234373685  0.5387827831609755  0.6328645967744321  1.0000
  C   C50       1.0  0.8106155820894827  0.0387834116859196  0.3671351525059379  1.0000
  C   C51       1.0  0.31061780716719056  0.4612167376665468  0.36713530014601037  1.0000
  C   C52       1.0  0.18938439621108924  0.9612176648964095  0.6328646675342708  1.0000
  C   C53       1.0  0.65095645857982  0.5522649543539657  0.8567297876392813  1.0000
  C   C54       1.0  0.8490442469470236  0.0522648050015064  0.1432699616410886  1.0000
  C   C55       1.0  0.3490435197207446  0.44773534435096  0.1432700324009275  1.0000
  C   C56       1.0  0.1509572075055345  0.9477354937034194  0.8567298968392407  1.0000
  C   C57       1.0  0.7900586894222456  0.3684268534680939  0.025238588276764097  1.0000
  C   C58       1.0  0.7099420161045984  0.8684270028205604  0.9747617589860127  1.0000
  C   C59       1.0  0.2099457173342998  0.6315718894820179  0.9747619450662057  1.0000
  C   C60       1.0  0.2900535337399859  0.131572518006962  0.0252385437162488  1.0000
  N   N1        1.0  0.8331918506843861  0.5847747847641216  0.49043263354803907  1.0000
  N   N2        1.0  0.6668103309944513  0.08477619116646913  0.5095683501372648  1.0000
  N   N3        1.0  0.16681107992016556  0.41522473606339366  0.509568459337217  1.0000
  N   N4        1.0  0.33319112345810703  0.9152256632932634  0.4904321063254713  1.0000
  N   N5        1.0  0.8603884750202437  0.6565300860390907  0.5420620461723971  1.0000
  N   N6        1.0  0.6396122305065999  0.1565307145640347  0.4579383010903797  1.0000
  N   N7        1.0  0.1396115032803209  0.3434702126658351  0.4579377738678119  1.0000
  N   N8        1.0  0.3603877477939647  0.8434703620182944  0.5420615189498291  1.0000
  O   O1        1.0  0.9192426550175625  0.6119864921650731  0.114100367381198  1.0000
  O   O2        1.0  0.5807580505092814  0.1119863428126138  0.8858993818991721  1.0000
  O   O3        1.0  0.08075584713100879  0.3880114729076283  0.8858988162364837  1.0000
  O   O4        1.0  0.41924340394327686  0.8880139558923121  0.11410047658115727  1.0000
  O   O5        1.0  0.0898297534375914  0.7549891407691903  0.15331544119367627  1.0000
  O   O6        1.0  0.4101665453327072  0.2549905471715377  0.8466849707085374  1.0000
  O   O7        1.0  0.9101672725589864  0.2450096021809216  0.846683703983885  1.0000
  O   O8        1.0  0.5898319568158639  0.7450089736559775  0.15331540887395784  1.0000
  O   O9        1.0  0.5664039485204739  0.4646992948111901  0.8641333675552616  1.0000
  O   O10       1.0  0.9335952808543835  0.96470022204106  0.13586634328499506  1.0000
  O   O11       1.0  0.4335945536281044  0.5353010038937285  0.135866414044834  1.0000
  O   O12       1.0  0.0664032212941876  0.0353008545412692  0.8641328403326867  1.0000
  O   O13       1.0  0.6916716828759348  0.6164530642277413  0.9138718230357057  1.0000
  O   O14       1.0  0.8083290226509092  0.1164536927526854  0.0861285242270782  1.0000
  O   O15       1.0  0.3083282954246299  0.3835464565997739  0.0861279970045032  1.0000
  O   O16       1.0  0.19167095564965556  0.8835466059522332  0.9138712958131306  1.0000
  O   O17       1.0  0.6867856197760815  0.4497368229154404  0.031087870007190998  1.0000
  O   O18       1.0  0.8132150857507624  0.9497369722678997  0.9689124772555857  1.0000
  O   O19       1.0  0.3132128823724898  0.5502634757894853  0.9689119115928975  1.0000
  O   O20       1.0  0.1867863687017959  0.05026332643702601  0.031087979207143197  1.0000
  O   O21       1.0  0.7152812578665859  0.2876388397598788  0.9911025322361553  1.0000
  O   O22       1.0  0.7847179715082644  0.7876382112349347  0.008897776586508092  1.0000
  O   O23       1.0  0.2847172442819853  0.7123606810676364  0.008897847346346997  1.0000
  O   O24       1.0  0.21528200679230025  0.2123613095925805  0.9911026414361075  1.0000
