data_image0
_chemical_formula_structural       La4H24C24O36
_chemical_formula_sum              "La4 H24 C24 O36"
_cell_length_a       6.741677706001093
_cell_length_b       10.39948478100586
_cell_length_c       13.763473661007884
_cell_angle_alpha    89.99988752399666
_cell_angle_beta     89.99995216674964
_cell_angle_gamma    89.9999541556081

_space_group_name_H-M_alt    "P 1"
_space_group_IT_number       1

loop_
  _space_group_symop_operation_xyz
  'x, y, z'

loop_
  _atom_site_type_symbol
  _atom_site_label
  _atom_site_symmetry_multiplicity
  _atom_site_fract_x
  _atom_site_fract_y
  _atom_site_fract_z
  _atom_site_occupancy
  La  La1       1.0  0.1304474592833031  0.9999992444024173  0.2022664808301471  1.0000
  La  La2       1.0  0.36955099697632215  0.5000006882910097  0.7022670381158491  1.0000
  La  La3       1.0  0.6304478435192703  0.5000001793481131  0.2977332096409526  1.0000
  La  La4       1.0  0.8695484145929128  6.616523435999999e-07  0.7977330403671771  1.0000
  H   H1        1.0  0.220334433703826  0.07489373000365872  0.9821117094564117  1.0000
  H   H2        1.0  0.22033392357719353  0.9251060420745603  0.9821118014840877  1.0000
  H   H3        1.0  0.27966551239677523  0.5748931681511138  0.482112547679627  1.0000
  H   H4        1.0  0.720333238227958  0.5748939660978251  0.5178868617274546  1.0000
  H   H5        1.0  0.7796629234833432  0.9251061760516418  0.0178870851798507  1.0000
  H   H6        1.0  0.7796664002305886  0.0748938639799448  0.0178869931516061  1.0000
  H   H7        1.0  0.7203333281000466  0.4251067379028513  0.5178869735171219  1.0000
  H   H8        1.0  0.2796656022682881  0.42510690154224307  0.4821126594685766  1.0000
  H   H9        1.0  0.9735064975948972  0.19609745816431712  0.35530895176101046  1.0000
  H   H10       1.0  0.9735046496031925  0.8039025690068513  0.3553077715815292  1.0000
  H   H11       1.0  0.5264938715213603  0.6960976636187083  0.8553088951772168  1.0000
  H   H12       1.0  0.4735032503472638  0.6960976334454825  0.1446917864368729  1.0000
  H   H13       1.0  0.0264938262114924  0.8039014863012779  0.644692022557706  1.0000
  H   H14       1.0  0.0264941908936365  0.1960973370471137  0.6446917496152196  1.0000
  H   H15       1.0  0.4735049689747299  0.30390128084728457  0.1446920791417909  1.0000
  H   H16       1.0  0.5264941068380224  0.3039032341940384  0.855308461320206  1.0000
  H   H17       1.0  0.2054617508921481  0.23061764088179612  0.3563676733063446  1.0000
  H   H18       1.0  0.2054599443241472  0.7693808698291702  0.3563679977759548  1.0000
  H   H19       1.0  0.29453971793267897  0.7306196266126719  0.8563675132304382  1.0000
  H   H20       1.0  0.7054603291321939  0.7306175523449454  0.143632390294762  1.0000
  H   H21       1.0  0.7945385729154779  0.7693803419986338  0.6436325744523188  1.0000
  H   H22       1.0  0.7945388961720994  0.23061999781089074  0.6436315234200762  1.0000
  H   H23       1.0  0.7054606058744497  0.2693802794408952  0.1436320079660263  1.0000
  H   H24       1.0  0.2945385113658645  0.2693813921238544  0.8563664043419337  1.0000
  C   C1        1.0  0.036880754293711994  0.38361124051634476  0.0476904288641222  1.0000
  C   C2        1.0  0.03687468138608099  0.6163881569682201  0.0476909816992475  1.0000
  C   C3        1.0  0.4631240530405093  0.8836121747882828  0.5476909302609485  1.0000
  C   C4        1.0  0.5368772937427266  0.8836113166646911  0.4523094714600759  1.0000
  C   C5        1.0  0.9631240194448977  0.6163877039499396  0.9523090923321931  1.0000
  C   C6        1.0  0.9631256424209693  0.38361078749831273  0.9523092660586983  1.0000
  C   C7        1.0  0.5368777540756896  0.11638869285005168  0.45230931749527775  1.0000
  C   C8        1.0  0.4631245133747015  0.1163885893884853  0.5476900497360973  1.0000
  C   C9        1.0  0.07307489584637489  0.49999866536693816  0.095830798411825  1.0000
  C   C10       1.0  0.4269252352622885  0.9999976957631278  0.5958313137853253  1.0000
  C   C11       1.0  0.5730765718543366  2.8711503569999987e-07  0.4041703870945952  1.0000
  C   C12       1.0  0.9269269112714794  0.49999835592606695  0.9041701759080425  1.0000
  C   C13       1.0  0.0696337582965114  0.2580962937554289  0.0989297612910178  1.0000
  C   C14       1.0  0.0696275347707953  0.7419029539848763  0.0989308533376132  1.0000
  C   C15       1.0  0.43037110744746343  0.7580962839010393  0.5989310018950533  1.0000
  C   C16       1.0  0.5696303899525574  0.7580974637724865  0.4010703137360352  1.0000
  C   C17       1.0  0.9303680488215773  0.741903612298678  0.9010690333443848  1.0000
  C   C18       1.0  0.930369822415649  0.2580959904824453  0.901069394420908  1.0000
  C   C19       1.0  0.5696336662886878  0.24190458373556825  0.40106997242136805  1.0000
  C   C20       1.0  0.4303684505423817  0.24190340386569884  0.5989306605815301  1.0000
  C   C21       1.0  0.12451896741655588  0.4999985134229091  0.2029178535853333  1.0000
  C   C22       1.0  0.37547800436176715  0.9999994944171178  0.702918388820258  1.0000
  C   C23       1.0  0.6245187528259494  0.9999989903160793  0.297081839176272  1.0000
  C   C24       1.0  0.8754798730808486  0.5000004310449595  0.7970816676121332  1.0000
  O   O1        1.0  0.9217822159235993  0.18063452527489685  0.1078888754337157  1.0000
  O   O2        1.0  0.9217803493739822  0.8193652066369383  0.1078905784168356  1.0000
  O   O3        1.0  0.5782201003031417  0.6806347031534655  0.607889525439873  1.0000
  O   O4        1.0  0.42178149005176374  0.6806359849733211  0.3921104526923358  1.0000
  O   O5        1.0  0.07821810788229298  0.8193663423638355  0.8921113723228018  1.0000
  O   O6        1.0  0.0782184911234935  0.18063469941796478  0.8921082162191426  1.0000
  O   O7        1.0  0.4217861567433871  0.31936712606978557  0.3921107223147757  1.0000
  O   O8        1.0  0.5782173504420243  0.31936680583706323  0.6078905216237942  1.0000
  O   O9        1.0  0.2391182631472191  0.23048233720459163  0.1325324581625793  1.0000
  O   O10       1.0  0.2391149731061404  0.769515771845185  0.1325335089915782  1.0000
  O   O11       1.0  0.2608836086424233  0.7304843408768066  0.6325330376419347  1.0000
  O   O12       1.0  0.7391164385828403  0.7304855171453539  0.3674668660827649  1.0000
  O   O13       1.0  0.7608820606592559  0.7695175688480375  0.867467789594656  1.0000
  O   O14       1.0  0.7608838673894524  0.2304850957939379  0.8674667387652164  1.0000
  O   O15       1.0  0.7391196817834285  0.2695165267601993  0.3674679366747712  1.0000
  O   O16       1.0  0.26088240191282347  0.2695163120808104  0.6325326551125414  1.0000
  O   O17       1.0  0.9773214746072157  0.4999991732884082  0.2605586609597808  1.0000
  O   O18       1.0  0.5226742504041013  0.9999993807768701  0.7605593324105868  1.0000
  O   O19       1.0  0.4773231067811137  5.252756167999999e-07  0.23944164190798034  1.0000
  O   O20       1.0  0.0226773658896064  0.5000007327655566  0.739440860236968  1.0000
  O   O21       1.0  0.3026407784510567  0.49999843240797764  0.2288981791585485  1.0000
  O   O22       1.0  0.1973576298859001  0.9999995083609218  0.7288973300434165  1.0000
  O   O23       1.0  0.8026397273000397  1.3592795368999998e-06  0.2711021911528988  1.0000
  O   O24       1.0  0.6973595453560647  0.5000014736455967  0.7711013420379089  1.0000
  O   O25       1.0  0.24681924655146048  0.9999984824341793  0.0235935404255514  1.0000
  O   O26       1.0  0.2531810145493267  0.5000009499455871  0.5235948692014034  1.0000
  O   O27       1.0  0.7468207925669432  0.5000008792797814  0.4764046519933346  1.0000
  O   O28       1.0  0.7531795939465908  4.620346203000002e-07  0.9764052542111445  1.0000
  O   O29       1.0  0.1071569010434601  0.16522503015778509  0.33644181201245976  1.0000
  O   O30       1.0  0.10715501600390098  0.8347745459879973  0.33644203887324414  1.0000
  O   O31       1.0  0.39284468211064183  0.6652260018959382  0.8364416139823376  1.0000
  O   O32       1.0  0.6071539601161362  0.6652248901801839  0.1635576605912092  1.0000
  O   O33       1.0  0.8928434227635904  0.8347739143087479  0.6635584357454861  1.0000
  O   O34       1.0  0.8928423411832752  0.16522536006730348  0.6635567557630253  1.0000
  O   O35       1.0  0.6071556416964796  0.3347739041576289  0.1635579072141269  1.0000
  O   O36       1.0  0.3928433970703864  0.3347750158741789  0.8364418606058238  1.0000
