data_image0
_chemical_formula_structural       CdH20C26N2O10
_chemical_formula_sum              "Cd1 H20 C26 N2 O10"
_cell_length_a       6.749247839950787
_cell_length_b       8.827324013035964
_cell_length_c       11.137376988199069
_cell_angle_alpha    88.28864060301609
_cell_angle_beta     105.65286286364395
_cell_angle_gamma    84.83023434497026

_space_group_name_H-M_alt    "P 1"
_space_group_IT_number       1

loop_
  _space_group_symop_operation_xyz
  'x, y, z'

loop_
  _atom_site_type_symbol
  _atom_site_label
  _atom_site_symmetry_multiplicity
  _atom_site_fract_x
  _atom_site_fract_y
  _atom_site_fract_z
  _atom_site_occupancy
  Cd  Cd1       1.0  0.9999891617474218  0.9999895195808076  0.5000065657912883  1.0000
  H   H1        1.0  0.6525349284277269  0.8874604954232977  0.4702362780874765  1.0000
  H   H2        1.0  0.34744438190733007  0.11255963003374352  0.5297764243866183  1.0000
  H   H3        1.0  0.6476804435757231  0.9360338703918031  0.3289551629465989  1.0000
  H   H4        1.0  0.352307944961737  0.06397366051641741  0.6710523050597388  1.0000
  H   H5        1.0  0.1309652422022437  0.9330009144013972  0.8174650384287357  1.0000
  H   H6        1.0  0.8690448834342276  0.06697113917470429  0.18254801358431644  1.0000
  H   H7        1.0  0.27446745381384113  0.5934842525645789  0.041799738585460496  1.0000
  H   H8        1.0  0.7255162994059531  0.4064982919251391  0.9582018608866604  1.0000
  H   H9        1.0  0.18958010443085974  0.0493809330475514  0.11535397078135648  1.0000
  H   H10       1.0  0.8104719049913314  0.9506078073092822  0.8846608224097634  1.0000
  H   H11       1.0  0.330179190528163  0.4054569511794595  0.8901743219320718  1.0000
  H   H12       1.0  0.6697958355109961  0.5945347766261904  0.10982629936813028  1.0000
  H   H13       1.0  0.4140370922799049  0.6843838536026395  0.2319503499431334  1.0000
  H   H14       1.0  0.5859663020570949  0.3156076279580303  0.7680379299804796  1.0000
  H   H15       1.0  0.859674201889952  0.6535414162343752  0.43814603675077274  1.0000
  H   H16       1.0  0.14026147212712198  0.34649167359918204  0.5618102335333147  1.0000
  H   H17       1.0  0.9210134913022113  0.44506887092143893  0.3039661560855506  1.0000
  H   H18       1.0  0.07896918597086254  0.5549478380397231  0.6960160553281012  1.0000
  H   H19       1.0  0.32727231951207597  0.883278731386845  0.3658334900549533  1.0000
  H   H20       1.0  0.6727254925252807  0.11673443277418019  0.6341418309663425  1.0000
  C   C1        1.0  0.190512568104019  0.2716842322023182  0.19040415370001537  1.0000
  C   C2        1.0  0.8095101100402783  0.7283036459398101  0.8096002501132913  1.0000
  C   C3        1.0  0.2643950839845814  0.473086136502715  0.061144820557871085  1.0000
  C   C4        1.0  0.7356105993466854  0.5268984634323105  0.9388801773139405  1.0000
  C   C5        1.0  0.2132878753138669  0.42735214928931947  0.1700593342408609  1.0000
  C   C6        1.0  0.7867207791808042  0.5726255991576963  0.8299624909753048  1.0000
  C   C7        1.0  0.26337076454048963  0.21565546892961857  0.9931947101297922  1.0000
  C   C8        1.0  0.7366660196173881  0.784315206182569  0.006816800796727273  1.0000
  C   C9        1.0  0.21169621684440898  0.1684453661630911  0.10099119579107448  1.0000
  C   C10       1.0  0.788349903445372  0.8315377234951099  0.8990396760484529  1.0000
  C   C11       1.0  0.2930847671886525  0.3687027469856901  0.9749723821604874  1.0000
  C   C12       1.0  0.7069084288259049  0.6313036127618189  0.0250236927943064  1.0000
  C   C13       1.0  0.1612507199989608  0.21049636440104538  0.3115435071517965  1.0000
  C   C14       1.0  0.8387942690119984  0.7895197696600105  0.6884489469243318  1.0000
  C   C15       1.0  0.2718569800480423  0.11042461913879009  0.8923589392263052  1.0000
  C   C16       1.0  0.7281596388171252  0.8895587701198052  0.10763698128700129  1.0000
  C   C17       1.0  0.2885880221884705  0.6712621312106958  0.2746254515818549  1.0000
  C   C18       1.0  0.7114055657400513  0.3287396682456034  0.7253762535629065  1.0000
  C   C19       1.0  0.17495613063086074  0.5444586894776505  0.2553778892483436  1.0000
  C   C20       1.0  0.8250670776873149  0.45553600647370035  0.744631772299762  1.0000
  C   C21       1.0  0.9812120517202841  0.6554094915262212  0.3905009560793714  1.0000
  C   C22       1.0  0.01874610417947756  0.3446131404985592  0.6094691907011337  1.0000
  C   C23       1.0  0.018169179276540593  0.5386224491099368  0.31605537565053504  1.0000
  C   C24       1.0  0.9818245180320986  0.4613861901929894  0.6839315832884907  1.0000
  C   C25       1.0  0.24146572087398246  0.7836224123367046  0.35017430433772023  1.0000
  C   C26       1.0  0.7585105990028113  0.21638638260336046  0.6498149483243195  1.0000
  N   N1        1.0  0.09020955795347163  0.7772192105055422  0.4072725275184084  1.0000
  N   N2        1.0  0.909756357996464  0.22279765176448046  0.5927083938459743  1.0000
  O   O1        1.0  0.6520594102946546  0.9764255299329886  0.4119841779390753  1.0000
  O   O2        1.0  0.3479339768844198  0.023585371544505997  0.5880208364692692  1.0000
  O   O3        1.0  0.012439456261617493  0.12538119017602153  0.30543697193905217  1.0000
  O   O4        1.0  0.9875743294102861  0.8746329459752286  0.694561327346342  1.0000
  O   O5        1.0  0.28535599013473256  0.24355768036983952  0.4107964705936594  1.0000
  O   O6        1.0  0.7146383194219507  0.7564429613214684  0.5892198531678472  1.0000
  O   O7        1.0  0.18381347368534762  0.9835483155420732  0.9010073203724005  1.0000
  O   O8        1.0  0.8162393934871943  0.016430171406966593  0.0990124226124891  1.0000
  O   O9        1.0  0.3488999957020198  0.1444316652432249  0.8070374557813551  1.0000
  O   O10       1.0  0.6510444016350405  0.8555842459910605  0.19295274126940845  1.0000
