data_image0
_chemical_formula_structural       Cd2H32C28N8O10
_chemical_formula_sum              "Cd2 H32 C28 N8 O10"
_cell_length_a       7.996194295770433
_cell_length_b       8.634817396115201
_cell_length_c       10.877029451863303
_cell_angle_alpha    86.9547223448765
_cell_angle_beta     73.42304627111174
_cell_angle_gamma    88.31203238566083

_space_group_name_H-M_alt    "P 1"
_space_group_IT_number       1

loop_
  _space_group_symop_operation_xyz
  'x, y, z'

loop_
  _atom_site_type_symbol
  _atom_site_label
  _atom_site_symmetry_multiplicity
  _atom_site_fract_x
  _atom_site_fract_y
  _atom_site_fract_z
  _atom_site_occupancy
  Cd  Cd1       1.0  0.49999939569645596  0.5000002925060373  3.331369385125003e-07  1.0000
  Cd  Cd2       1.0  0.5000003022325501  0.9999991283996299  0.49999968049880295  1.0000
  H   H1        1.0  0.6705438872985071  0.3506655317227968  0.20508990155921225  1.0000
  H   H2        1.0  0.32945547108500517  0.6493355080685108  0.7949103755947745  1.0000
  H   H3        1.0  0.5390073035097487  0.22330377019249434  0.1778424763159876  1.0000
  H   H4        1.0  0.4609907656698979  0.776696114146617  0.8221571997826728  1.0000
  H   H5        1.0  0.9415576052262865  0.9144258435506529  0.717503165085013  1.0000
  H   H6        1.0  0.058440478215729307  0.08557287973115989  0.2824983952508973  1.0000
  H   H7        1.0  0.7875243338938773  0.842449896247132  0.8437388883922381  1.0000
  H   H8        1.0  0.21247373434067637  0.15754998689751432  0.1562626266919693  1.0000
  H   H9        1.0  0.21811423502204969  0.6700021273801655  0.16846289682341362  1.0000
  H   H10       1.0  0.7818864439253445  0.32999774933212933  0.8315362329037655  1.0000
  H   H11       1.0  0.40080293075628504  0.6595465385348618  0.2152884402832598  1.0000
  H   H12       1.0  0.5991977329836474  0.3404544980402733  0.7847106441922164  1.0000
  H   H13       1.0  0.31048956628835367  0.2519450863081901  0.6362478923304806  1.0000
  H   H14       1.0  0.6895124170703681  0.7480547859934675  0.3637518837037348  1.0000
  H   H15       1.0  0.47818664935617516  0.3067770073190701  0.5118172990183893  1.0000
  H   H16       1.0  0.521815334475086  0.6932228655798198  0.488181557523049  1.0000
  H   H17       1.0  0.9738184957587067  0.3661252796298058  0.08280701330838974  1.0000
  H   H18       1.0  0.026182197923596096  0.6338734366224301  0.9171930811632693  1.0000
  H   H19       1.0  0.6057012886248359  0.0760945566530111  0.984627773603414  1.0000
  H   H20       1.0  0.3942954447834808  0.923907650627946  0.01537300467035148  1.0000
  H   H21       1.0  0.14785374634558932  0.061379367183690206  0.7678949244945272  1.0000
  H   H22       1.0  0.8521443527764277  0.938618196832529  0.23210576160030888  1.0000
  H   H23       1.0  0.9730935406546095  0.4912651474602254  0.2553944706981214  1.0000
  H   H24       1.0  0.026907137820238305  0.5087347286548365  0.744605578521835  1.0000
  H   H25       1.0  0.45313408883868084  0.4654631944565466  0.36128728738160726  1.0000
  H   H26       1.0  0.5468678949925803  0.5345366784423434  0.6387115691598311  1.0000
  H   H27       1.0  0.0367948076479081  0.151635817562827  0.5440111522297428  1.0000
  H   H28       1.0  0.9632071452958898  0.8483663744644971  0.455988533301067  1.0000
  H   H29       1.0  0.5247369107767739  0.9202166696324668  0.24595948213054436  1.0000
  H   H30       1.0  0.47526247849420145  0.07978205103040642  0.7540399660340711  1.0000
  H   H31       1.0  0.3467662656741766  0.018849481152962297  0.2724099176252963  1.0000
  H   H32       1.0  0.6532344280081334  0.9811492350992735  0.7275901768463627  1.0000
  C   C1        1.0  0.2617496997741071  0.26742157377031367  0.907520898453768  1.0000
  C   C2        1.0  0.738249689024329  0.732577146295327  0.0924794692036244  1.0000
  C   C3        1.0  0.0776345060599652  0.22008693255305187  0.9231858501810777  1.0000
  C   C4        1.0  0.9223648827384637  0.7799117875125958  0.07681451747631486  1.0000
  C   C5        1.0  0.9435477525184339  0.2805360056107915  0.02268947463662849  1.0000
  C   C6        1.0  0.05645163628000202  0.7194627144548491  0.9773108930207643  1.0000
  C   C7        1.0  0.7726120147129408  0.2300375627673006  0.04397983281090484  1.0000
  C   C8        1.0  0.2273860539941595  0.7699623209745852  0.9560207627805256  1.0000
  C   C9        1.0  0.7393317124087774  0.11407576448024058  0.9688394751120412  1.0000
  C   C10       1.0  0.2606663415634074  0.885925279721711  0.031160155734909302  1.0000
  C   C11       1.0  0.8732893320326982  0.05450932621614871  0.8682443991609219  1.0000
  C   C12       1.0  0.1267087224120331  0.9454917185830356  0.1317543121932587  1.0000
  C   C13       1.0  0.042897798654770704  0.11062647878272  0.8437651435663369  1.0000
  C   C14       1.0  0.9571015749362034  0.8893734011457611  0.15623517883935287  1.0000
  C   C15       1.0  0.8084862570262319  0.25935336193802533  0.41003886685653873  1.0000
  C   C16       1.0  0.19151572538739714  0.7406465091691672  0.5899627481632308  1.0000
  C   C17       1.0  0.9873543998758335  0.3182619436210103  0.40233547368395517  1.0000
  C   C18       1.0  0.0126462629190129  0.6817390917596599  0.5976654497770753  1.0000
  C   C19       1.0  0.054767417124708104  0.4380512312478402  0.3113472591580191  1.0000
  C   C20       1.0  0.9452332613501326  0.5619486448672292  0.68865279006193  1.0000
  C   C21       1.0  0.22552742867391373  0.48631335650605934  0.2930454210257523  1.0000
  C   C22       1.0  0.7744732345934723  0.5136876794718431  0.7069545829425011  1.0000
  C   C23       1.0  0.32278994386624044  0.42315070399017435  0.37152440377481355  1.0000
  C   C24       1.0  0.6772107046662369  0.576851492447794  0.62847463544896  1.0000
  C   C25       1.0  0.254687954360783  0.3059804196150325  0.46421459914635216  1.0000
  C   C26       1.0  0.7453140137904768  0.6940206125494655  0.5357851316361604  1.0000
  C   C27       1.0  0.0877878135157957  0.24941474911843636  0.4778218700883912  1.0000
  C   C28       1.0  0.9122154747267929  0.7505851193698163  0.5221776327600905  1.0000
  N   N1        1.0  0.6319189927309665  0.303440860610202  0.1325404990171322  1.0000
  N   N2        1.0  0.36808038086000755  0.696559019318272  0.8674598233885648  1.0000
  N   N3        1.0  0.8346653378222085  0.9424262980299644  0.7908021812871269  1.0000
  N   N4        1.0  0.16533273088489153  0.05757358571192129  0.20919841430430355  1.0000
  N   N5        1.0  0.30575724152835454  0.5963260559465623  0.19408678280667155  1.0000
  N   N6        1.0  0.6942434217390385  0.4036749800313402  0.8059132211615819  1.0000
  N   N7        1.0  0.3639119838766476  0.24544655579559568  0.5388461671701705  1.0000
  N   N8        1.0  0.6360886950707468  0.7545533209167061  0.46115296255700855  1.0000
  O   O1        1.0  0.29360112543218253  0.31755160837894897  0.00709798933309001  1.0000
  O   O2        1.0  0.7063982633662462  0.6824471116866918  0.9929023783243026  1.0000
  O   O3        1.0  0.3752841984414772  0.25411918400030237  0.799323489951675  1.0000
  O   O4        1.0  0.6247151903569517  0.7458795360653384  0.20067687770572457  1.0000
  O   O5        1.0  0.7797488557345958  0.11580905847775107  0.444988817747145  1.0000
  O   O6        1.0  0.2202544320354463  0.8841908094132693  0.5550116045941067  1.0000
  O   O7        1.0  0.7016234692833833  0.3534613954086367  0.3785210299017195  1.0000
  O   O8        1.0  0.298377208718918  0.6465384801092001  0.6214799388110067  1.0000
  O   O9        1.0  0.4673781733982167  0.0169106680147664  0.2841774869050298  1.0000
  O   O10       1.0  0.5326225207566323  0.9830880488347025  0.7158216880738523  1.0000
