data_image0
_chemical_formula_structural       Cd2H60C60N8O10
_chemical_formula_sum              "Cd2 H60 C60 N8 O10"
_cell_length_a       9.299705627307052
_cell_length_b       12.429962585690616
_cell_length_c       12.673047876322553
_cell_angle_alpha    90.39021024660322
_cell_angle_beta     105.29217193203823
_cell_angle_gamma    100.96105222710095

_space_group_name_H-M_alt    "P 1"
_space_group_IT_number       1

loop_
  _space_group_symop_operation_xyz
  'x, y, z'

loop_
  _atom_site_type_symbol
  _atom_site_label
  _atom_site_symmetry_multiplicity
  _atom_site_fract_x
  _atom_site_fract_y
  _atom_site_fract_z
  _atom_site_occupancy
  Cd  Cd1       1.0  0.7526713733795701  0.4241224774589298  0.12773516632557153  1.0000
  Cd  Cd2       1.0  0.24732964676822172  0.5758771254493951  0.8722662767733526  1.0000
  H   H1        1.0  0.6355050001673844  0.49338944825480974  0.9094137840095871  1.0000
  H   H2        1.0  0.3644953622415412  0.506611803184164  0.0905867648374965  1.0000
  H   H3        1.0  0.8201371281236972  0.5380782303154489  0.9355169739563396  1.0000
  H   H4        1.0  0.17986277208375157  0.4619213835304521  0.06448267725681232  1.0000
  H   H5        1.0  0.8092802576231648  0.5876504984797677  0.339454425294278  1.0000
  H   H6        1.0  0.1907209833991742  0.4123499381520117  0.6605447030315119  1.0000
  H   H7        1.0  0.9659445453212638  0.767643922249924  0.42950978640001847  1.0000
  H   H8        1.0  0.0340544704292327  0.23235651493283174  0.5704897061400872  1.0000
  H   H9        1.0  0.21837112198781472  0.773212665355153  0.1883045418223688  1.0000
  H   H10       1.0  0.7816301190345242  0.22678777127662633  0.8116945865034283  1.0000
  H   H11       1.0  0.04589421183050041  0.5986280624957415  0.10365743082714832  1.0000
  H   H12       1.0  0.9541068024737527  0.40137154894225086  0.8963424330774361  1.0000
  H   H13       1.0  0.32134737918185147  0.8965856712045976  0.3606717359241999  1.0000
  H   H14       1.0  0.6786538676840265  0.10341475689750723  0.63932897159593  1.0000
  H   H15       1.0  0.16453917133291898  0.960549812802789  0.31232849522725564  1.0000
  H   H16       1.0  0.835462072611186  0.0394506195641569  0.6876714226957079  1.0000
  H   H17       1.0  0.3927203944020831  0.8685631516321523  0.5658428397489815  1.0000
  H   H18       1.0  0.6072797383669837  0.13143727887786127  0.4341576550797158  1.0000
  H   H19       1.0  0.22300723613626158  0.765576155922531  0.5285886017972318  1.0000
  H   H20       1.0  0.776992896632805  0.23442427458748938  0.4714118930314726  1.0000
  H   H21       1.0  0.11126655356253676  0.849989929729027  0.653962470235179  1.0000
  H   H22       1.0  0.8887344636634821  0.15000967744413168  0.34603818326657904  1.0000
  H   H23       1.0  0.2887541751203457  0.8206566180430883  0.7255796451018741  1.0000
  H   H24       1.0  0.7112457280088691  0.17934299153797179  0.2744207957084513  1.0000
  H   H25       1.0  0.2871490508252349  0.14701168348305058  0.6507159127380364  1.0000
  H   H26       1.0  0.7128488566719822  0.852988747577946  0.3492849463049766  1.0000
  H   H27       1.0  0.10815324236568098  0.05349575116569129  0.6101913631066865  1.0000
  H   H28       1.0  0.8918455525102614  0.9465038522936094  0.38981044420654604  1.0000
  H   H29       1.0  0.20194221995581066  0.0891998413896005  0.4501845400015655  1.0000
  H   H30       1.0  0.7980543438047504  0.9107997711503514  0.549816052331643  1.0000
  H   H31       1.0  0.3823787850816486  0.0579054070243856  0.5166637460913678  1.0000
  H   H32       1.0  0.6176184646767097  0.9420966725672598  0.4833362186998046  1.0000
  H   H33       1.0  0.26940507772734174  0.9358465311355886  0.8543862115268867  1.0000
  H   H34       1.0  0.7305970535954882  0.06415307362965449  0.1456146546662964  1.0000
  H   H35       1.0  0.13779353000820996  0.0180194582955764  0.7923856180624896  1.0000
  H   H36       1.0  0.8622086071581518  0.9819801379400059  0.20761682732503325  1.0000
  H   H37       1.0  0.37485035913707065  0.34921664371209  0.007968112575028394  1.0000
  H   H38       1.0  0.6251526732145577  0.6507862703579688  0.9920282321086519  1.0000
  H   H39       1.0  0.1897997254372044  0.19851702382587186  0.8847829032375077  1.0000
  H   H40       1.0  0.8102030860398769  0.8014850565207395  0.1152157562192997  1.0000
  H   H41       1.0  0.5661151509012823  0.0426520664502874  0.8847271312454981  1.0000
  H   H42       1.0  0.43388675954700046  0.957346704591508  0.1152760497208192  1.0000
  H   H43       1.0  0.7362672668583625  0.19974711489303587  0.009322006243706875  1.0000
  H   H44       1.0  0.2637337591329683  0.8002524794856213  0.990681016049557  1.0000
  H   H45       1.0  0.9841491506842316  0.11409772241054841  0.0664009090712341  1.0000
  H   H46       1.0  0.015850525726904107  0.8859010619767317  0.9336002673178785  1.0000
  H   H47       1.0  0.17818611310869403  0.9967136027918144  0.10037834550743702  1.0000
  H   H48       1.0  0.8218110996254352  0.0032843740119971984  0.8996207722861059  1.0000
  H   H49       1.0  0.4327304884813116  0.0649094717758842  0.23652936509348174  1.0000
  H   H50       1.0  0.5672676087097698  0.9350876816910655  0.7634699113731075  1.0000
  H   H51       1.0  0.487786233997788  0.2487073345697723  0.3294290811210986  1.0000
  H   H52       1.0  0.5122154263582601  0.7512906453969067  0.670568518646647  1.0000
  H   H53       1.0  0.10444537094616622  0.3625171134198054  0.370133902584776  1.0000
  H   H54       1.0  0.8955564937125826  0.6374775676286646  0.6298660625923987  1.0000
  H   H55       1.0  0.16398188735417554  0.5404946415722803  0.47856043923419395  1.0000
  H   H56       1.0  0.8360150762464754  0.4594983859257411  0.5214425151263528  1.0000
  H   H57       1.0  0.39760351467712945  0.6771983392600092  0.4793115278974157  1.0000
  H   H58       1.0  0.6023914903157673  0.3227996125057757  0.520692691693455  1.0000
  H   H59       1.0  0.5717943876409278  0.6346318650758036  0.3738291986034525  1.0000
  H   H60       1.0  0.4282013316086832  0.36537266932401014  0.6261728716515053  1.0000
  C   C1        1.0  0.8984939493639741  0.6333446044388039  0.3067398344966962  1.0000
  C   C2        1.0  0.10150595084347457  0.36665500940709705  0.693259816716463  1.0000
  C   C3        1.0  0.9867754227907779  0.7326021694651246  0.3572361998196953  1.0000
  C   C4        1.0  0.01322470413474969  0.2673982695745565  0.6427627158146694  1.0000
  C   C5        1.0  0.10403326819852768  0.7868686097015002  0.3152198980456192  1.0000
  C   C6        1.0  0.8959679699020453  0.21313183119511345  0.6847784406830045  1.0000
  C   C7        1.0  0.1258567848657108  0.7368907764539401  0.22293781934738635  1.0000
  C   C8        1.0  0.8741433449815827  0.2631096583209143  0.7770618858841447  1.0000
  C   C9        1.0  0.031019850077001396  0.6383711478661596  0.17574803971964312  1.0000
  C   C10       1.0  0.9689811642272514  0.3616284635718258  0.8242518241849413  1.0000
  C   C11       1.0  0.20290039809980698  0.8955645151439384  0.36495448059800145  1.0000
  C   C12       1.0  0.7970997317474939  0.10443591963090879  0.6350452246335365  1.0000
  C   C13       1.0  0.2677762184819272  0.8524186016642118  0.5557991466593252  1.0000
  C   C14       1.0  0.7322239113653736  0.14758183311063527  0.4442005585722059  1.0000
  C   C15       1.0  0.23573167794150848  0.8733497431243789  0.664373392067539  1.0000
  C   C16       1.0  0.7642682193441671  0.12664987498635577  0.33562546954844663  1.0000
  C   C17       1.0  0.2325351735506301  0.06161430158029901  0.6214438873115712  1.0000
  C   C18       1.0  0.767462733946594  0.9383861294806976  0.3785569717314416  1.0000
  C   C19       1.0  0.2585793007874528  0.037082511556789696  0.5107971271646721  1.0000
  C   C20       1.0  0.7414174926129604  0.9629179219121156  0.48920351918690846  1.0000
  C   C21       1.0  0.25794039118154893  0.009069742969785499  0.8068775470460425  1.0000
  C   C22       1.0  0.7420608586060948  0.9909306808674925  0.19312395007126076  1.0000
  C   C23       1.0  0.4131252658677981  0.2794660022741056  0.9796317931661067  1.0000
  C   C24       1.0  0.5868775426875174  0.7205360823373325  0.02036607669353432  1.0000
  C   C25       1.0  0.31038062379907666  0.19516018408683072  0.9100986871066967  1.0000
  C   C26       1.0  0.6896217313200735  0.8048402501370403  0.08990065391052582  1.0000
  C   C27       1.0  0.36277968809764616  0.10695718839497909  0.8750408732193836  1.0000
  C   C28       1.0  0.6372224461469499  0.893042412105437  0.12496078257097307  1.0000
  C   C29       1.0  0.5194910799397618  0.10936081888378618  0.9099385424823867  1.0000
  C   C30       1.0  0.480509940208023  0.8906387840245386  0.09006290061653743  1.0000
  C   C31       1.0  0.6141266057533129  0.19601703768216083  0.9790129886019658  1.0000
  C   C32       1.0  0.3858757552093692  0.8039833880120427  0.0209879316095964  1.0000
  C   C33       1.0  0.0077345620391539895  0.31697221150035654  0.14922344498204151  1.0000
  C   C34       1.0  0.9922675663619029  0.6830273975297274  0.8507766316139753  1.0000
  C   C35       1.0  0.1274484330744556  0.24793716958055256  0.17655449081627242  1.0000
  C   C36       1.0  0.8725539220446874  0.7520632646433183  0.8234448502009502  1.0000
  C   C37       1.0  0.09567341361874068  0.1434360198269573  0.12366835192764113  1.0000
  C   C38       1.0  0.904326713306794  0.8565644192127237  0.8763305637067164  1.0000
  C   C39       1.0  0.20471884159871925  0.07764118122187108  0.14298414964721223  1.0000
  C   C40       1.0  0.7952821639402287  0.922358443010623  0.857013345465866  1.0000
  C   C41       1.0  0.34632843378970074  0.11560856144795649  0.21753390824660107  1.0000
  C   C42       1.0  0.6536714634959749  0.8843910566627782  0.7824649533693846  1.0000
  C   C43       1.0  0.37778212173734715  0.21908000436382483  0.2710166629397079  1.0000
  C   C44       1.0  0.622219765336787  0.7809188007966482  0.7289802012492503  1.0000
  C   C45       1.0  0.2704409335989054  0.2872822485765099  0.2515613346345731  1.0000
  C   C46       1.0  0.7295622972118847  0.7127173751050009  0.7484357962641968  1.0000
  C   C47       1.0  0.30649692366975495  0.3957176961670825  0.31279262908131505  1.0000
  C   C48       1.0  0.693504742529825  0.6042802752699359  0.6872065498807702  1.0000
  C   C49       1.0  0.20749278535644314  0.4222781761333536  0.37136780862631724  1.0000
  C   C50       1.0  0.792510000783487  0.5777197843660886  0.6286331622215401  1.0000
  C   C51       1.0  0.23968358584291136  0.5223620022853623  0.43120998696214496  1.0000
  C   C52       1.0  0.7603142875518569  0.4776343217229665  0.5687908146804048  1.0000
  C   C53       1.0  0.37096231701598725  0.5990593306364431  0.4320430753279539  1.0000
  C   C54       1.0  0.6290337991519407  0.4009386229862669  0.5679605673571759  1.0000
  C   C55       1.0  0.46942155117391593  0.5746971782239144  0.3737256677117743  1.0000
  C   C56       1.0  0.5305748199710222  0.4253057161749183  0.6262757176006845  1.0000
  C   C57       1.0  0.4396487931016607  0.4731798812852545  0.31535323903380436  1.0000
  C   C58       1.0  0.560351801868883  0.5268221868178316  0.6846481534288247  1.0000
  C   C59       1.0  0.5512449565421278  0.45299460824986687  0.25389076313321374  1.0000
  C   C60       1.0  0.4487529392680186  0.5470058398704651  0.7461069375211267  1.0000
  N   N1        1.0  0.9184814956520453  0.5868512800782212  0.21686012059641518  1.0000
  N   N2        1.0  0.08151863419525543  0.413149154696626  0.7831395846351228  1.0000
  N   N3        1.0  0.1950471779658541  0.9220142636043176  0.4745657605341549  1.0000
  N   N4        1.0  0.8049518407064014  0.07798616931360407  0.5254345216031241  1.0000
  N   N5        1.0  0.29445538279209416  0.988409827008887  0.7040710829788638  1.0000
  N   N6        1.0  0.7055447499769727  0.011590603501126399  0.29592941184984073  1.0000
  N   N7        1.0  0.5624602224086387  0.27942570499256897  0.015008345152033078  1.0000
  N   N8        1.0  0.43754190307065227  0.7205739083023488  0.9849909418468175  1.0000
  O   O1        1.0  0.8880605697288216  0.2855072056935128  0.1810118534259217  1.0000
  O   O2        1.0  0.11194155867223539  0.7144924033365712  0.818988223170095  1.0000
  O   O3        1.0  0.02730873860136277  0.40064544570402916  0.09448745442038131  1.0000
  O   O4        1.0  0.9726911645278518  0.5993541638770309  0.9055129863899439  1.0000
  O   O5        1.0  0.6592147996547836  0.40592676332138905  0.2984478829533472  1.0000
  O   O6        1.0  0.34078578655045527  0.5940753175761984  0.7015511407177686  1.0000
  O   O7        1.0  0.5347393245876759  0.4896161958484627  0.15780553116899657  1.0000
  O   O8        1.0  0.46526487641560266  0.5103907930125189  0.8421966107867578  1.0000
  O   O9        1.0  0.7370750778508748  0.4894160780161342  0.9593392087290625  1.0000
  O   O10       1.0  0.2629248223565739  0.5105835358297669  0.04066044248409641  1.0000
