data_image0
_chemical_formula_structural       Na2H10C16N8O8
_chemical_formula_sum              "Na2 H10 C16 N8 O8"
_cell_length_a       3.633890089765941
_cell_length_b       10.107494404482793
_cell_length_c       14.64818858123795
_cell_angle_alpha    107.72912317088091
_cell_angle_beta     94.65556388896003
_cell_angle_gamma    91.49154046385316

_space_group_name_H-M_alt    "P 1"
_space_group_IT_number       1

loop_
  _space_group_symop_operation_xyz
  'x, y, z'

loop_
  _atom_site_type_symbol
  _atom_site_label
  _atom_site_symmetry_multiplicity
  _atom_site_fract_x
  _atom_site_fract_y
  _atom_site_fract_z
  _atom_site_occupancy
  Na  Na1       1.0  0.4999986818329276  0.9999984801149682  0.9999983538669923  1.0000
  Na  Na2       1.0  0.5000038512148492  0.9999994403515019  0.4999986422321925  1.0000
  H   H1        1.0  0.11335877358293799  0.608143199089632  0.4867496882690361  1.0000
  H   H2        1.0  0.8866282169483668  0.39184354976497826  0.5132492592504079  1.0000
  H   H3        1.0  0.9922342621060808  0.887939315002072  0.11367035234044214  1.0000
  H   H4        1.0  0.0077628172404545  0.11206103719215581  0.886325579542607  1.0000
  H   H5        1.0  0.04121640577243821  0.7776593172829466  0.01540287936251872  1.0000
  H   H6        1.0  0.9587968732859691  0.22233786023772953  0.9845967685626675  1.0000
  H   H7        1.0  0.058483554626413095  0.0166198731161771  0.6631078772360297  1.0000
  H   H8        1.0  0.941521267809982  0.983376282332863  0.3368900249855926  1.0000
  H   H9        1.0  0.9813997843682926  0.8584389287219455  0.6086549148676995  1.0000
  H   H10       1.0  0.0186107909870188  0.14155935228041022  0.39134014143873225  1.0000
  C   C1        1.0  0.21308891520873632  0.42178145602064626  0.3728598145213128  1.0000
  C   C2        1.0  0.786909093208429  0.5782053109696365  0.6271379792921936  1.0000
  C   C3        1.0  0.3724676257128862  0.4034754055941435  0.2823824689876346  1.0000
  C   C4        1.0  0.6275455756513821  0.5965218262241906  0.7176130929221429  1.0000
  C   C5        1.0  0.4695791105341556  0.5356145414192071  0.27602788032407233  1.0000
  C   C6        1.0  0.5304164632020799  0.46439293792721514  0.7239811688460236  1.0000
  C   C7        1.0  0.37416238063017454  0.6402686149440273  0.3683689472097811  1.0000
  C   C8        1.0  0.6258292545185496  0.3597316829343243  0.6316309665390776  1.0000
  C   C9        1.0  0.6323643831011411  0.5774026618849036  0.20550907721096223  1.0000
  C   C10       1.0  0.3676203908271774  0.42260693391055093  0.7944974945976995  1.0000
  C   C11       1.0  0.7263951647957967  0.7184554018973942  0.21666826250376667  1.0000
  C   C12       1.0  0.2736048020796318  0.2815646587261186  0.7833360774011666  1.0000
  C   C13       1.0  0.7306065628151189  0.4793211833723348  0.1204536875829305  1.0000
  C   C14       1.0  0.2693840546752782  0.5206904746291771  0.8795548053285175  1.0000
  C   C15       1.0  0.4305010846016017  0.27257754302125653  0.21841538037345032  1.0000
  C   C16       1.0  0.5695099473608423  0.7274238493620616  0.7815810393576258  1.0000
  N   N1        1.0  0.2148829471030709  0.5647148332804833  0.42008805241318475  1.0000
  N   N2        1.0  0.7851104137893543  0.43527818360232134  0.5799103210923064  1.0000
  N   N3        1.0  0.819440798723285  0.39816435731697913  0.051314477878982225  1.0000
  N   N4        1.0  0.1805956807993496  0.6018400469836038  0.9486912649781943  1.0000
  N   N5        1.0  0.8227250388256311  0.8322055690217668  0.22219838671453832  1.0000
  N   N6        1.0  0.17725862220627417  0.1677968000666894  0.7778025067605441  1.0000
  N   N7        1.0  0.48683628533781587  0.16357651703155804  0.1660703464308497  1.0000
  N   N8        1.0  0.5131637989306768  0.836425951657262  0.8339233684647739  1.0000
  O   O1        1.0  0.4321860939987303  0.7668761258426217  0.39351128983913247  1.0000
  O   O2        1.0  0.5677856304862557  0.233118862659019  0.6064952940468302  1.0000
  O   O3        1.0  0.09370620663491283  0.3326767656939253  0.4077347576679601  1.0000
  O   O4        1.0  0.9062840716414087  0.6673141889919377  0.5922617468095339  1.0000
  O   O5        1.0  0.008206128620727808  0.8775780324558157  0.045420931887228726  1.0000
  O   O6        1.0  0.9917848502387158  0.12241815009648602  0.9545746669526949  1.0000
  O   O7        1.0  0.018358224232216013  0.9490445055710242  0.5980716173108718  1.0000
  O   O8        1.0  0.9816634337540647  0.050953748318953315  0.4019256903024626  1.0000
