data_image0
_chemical_formula_structural       La4H64C32Cl12O8
_chemical_formula_sum              "La4 H64 C32 Cl12 O8"
_cell_length_a       8.151998389964042
_cell_length_b       10.43963222240355
_cell_length_c       14.720987072000993
_cell_angle_alpha    89.9999669187191
_cell_angle_beta     90.00002826973028
_cell_angle_gamma    93.68619217857419

_space_group_name_H-M_alt    "P 1"
_space_group_IT_number       1

loop_
  _space_group_symop_operation_xyz
  'x, y, z'

loop_
  _atom_site_type_symbol
  _atom_site_label
  _atom_site_symmetry_multiplicity
  _atom_site_fract_x
  _atom_site_fract_y
  _atom_site_fract_z
  _atom_site_occupancy
  La  La1       1.0  0.7330373596348351  0.23417882254527472  0.2766581299532334  1.0000
  La  La2       1.0  0.7669648404687025  0.765819329047581  0.7766591432140545  1.0000
  La  La3       1.0  0.26696385923520444  0.7658186573712911  0.7233419983676511  1.0000
  La  La4       1.0  0.2330352156031879  0.23417909949541382  0.2233396265019252  1.0000
  H   H1        1.0  0.9111387370324735  0.9348150330101322  0.2351736989131297  1.0000
  H   H2        1.0  0.5888611029252147  0.06518504759205261  0.7351763116625349  1.0000
  H   H3        1.0  0.08886151323831372  0.0651862749594159  0.7648250708022887  1.0000
  H   H4        1.0  0.4111391473469937  0.934816260376188  0.2648258545642506  1.0000
  H   H5        1.0  0.7177979379349396  0.8908020133309553  0.1820040134091769  1.0000
  H   H6        1.0  0.7822031500017489  0.10919907896746396  0.6820046226143646  1.0000
  H   H7        1.0  0.2822047673972464  0.10919931700421161  0.817995435608843  1.0000
  H   H8        1.0  0.2177971002696069  0.8908022290015584  0.3179955057055963  1.0000
  H   H9        1.0  0.8747159031506656  0.710720398040735  0.2827955468740839  1.0000
  H   H10       1.0  0.6252864962635344  0.2892806282801531  0.782796718391765  1.0000
  H   H11       1.0  0.1252880944450396  0.28928190328621645  0.7172039021439147  1.0000
  H   H12       1.0  0.3747175013327395  0.7107216730462796  0.2172040892307763  1.0000
  H   H13       1.0  0.658713672242385  0.7184685200616557  0.29335730769138024  1.0000
  H   H14       1.0  0.8412887359681848  0.28153249817398773  0.7933578617981567  1.0000
  H   H15       1.0  0.3412877408262815  0.28153183928171904  0.706642141326661  1.0000
  H   H16       1.0  0.1587150674291848  0.7184669237258988  0.206642945824953  1.0000
  H   H17       1.0  0.9235197059641184  0.8574401167873094  0.41345252268141763  1.0000
  H   H18       1.0  0.5764828670036906  0.14256176931912995  0.9134530622132785  1.0000
  H   H19       1.0  0.07648429163159422  0.1425621845396421  0.586546926336581  1.0000
  H   H20       1.0  0.42351996779471807  0.8574414806334689  0.0865470661066325  1.0000
  H   H21       1.0  0.7534623639271489  0.7571728242511001  0.4522366043333577  1.0000
  H   H22       1.0  0.746539013812381  0.2428290209815175  0.952237148674854  1.0000
  H   H23       1.0  0.2465428611993944  0.24282948825853626  0.5477635239870792  1.0000
  H   H24       1.0  0.2534624639895284  0.7571722981704455  0.0477629796452774  1.0000
  H   H25       1.0  0.7346873123818227  0.017101398689142407  0.44330189174718976  1.0000
  H   H26       1.0  0.7653126361874811  0.9828975627732247  0.9433041735368449  1.0000
  H   H27       1.0  0.2653128084230332  0.9828979896627037  0.556696877968605  1.0000
  H   H28       1.0  0.23468509429036294  0.017102763020545805  0.05669731338752371  1.0000
  H   H29       1.0  0.5601196765509756  0.9150005892200783  0.4113833066990011  1.0000
  H   H30       1.0  0.9398803101670055  0.08499935648629281  0.9113853273444121  1.0000
  H   H31       1.0  0.4398816070514684  0.08499785050585731  0.588615463017149  1.0000
  H   H32       1.0  0.06012103816981811  0.9150000430471937  0.08861683888292052  1.0000
  H   H33       1.0  0.8859488968591904  0.25243963681872134  0.5228895974900141  1.0000
  H   H34       1.0  0.6140482464967364  0.747559624122829  0.022888339933651  1.0000
  H   H35       1.0  0.11404883361893782  0.7475606889747939  0.4771125687366364  1.0000
  H   H36       1.0  0.3859507115108088  0.25244071285466424  0.9771111090840634  1.0000
  H   H37       1.0  0.6712091408673048  0.2036744021442658  0.5164171863116067  1.0000
  H   H38       1.0  0.8287878676322793  0.7963229441342252  0.0164166462729938  1.0000
  H   H39       1.0  0.32878852487813504  0.7963249638401423  0.4835856592175034  1.0000
  H   H40       1.0  0.17120979811174664  0.20367642185148335  0.9835828027447491  1.0000
  H   H41       1.0  0.7938959019238893  0.37631960421193617  0.6505345325906475  1.0000
  H   H42       1.0  0.7060974709540204  0.623676646036266  0.1505340304969494  1.0000
  H   H43       1.0  0.2060980812293209  0.6236797282241683  0.3494669543334155  1.0000
  H   H44       1.0  0.29390006532406693  0.3763208003317403  0.84946541852117  1.0000
  H   H45       1.0  0.593359480300258  0.381610118633951  0.6047997993246099  1.0000
  H   H46       1.0  0.9066352114828649  0.6183880974267739  0.1047993539049656  1.0000
  H   H47       1.0  0.40663702264730983  0.6183901959766234  0.39520236690187005  1.0000
  H   H48       1.0  0.0933625189935654  0.3816122283683044  0.8951987365080354  1.0000
  H   H49       1.0  0.9062417614478235  0.5383921814955883  0.5474402047154854  1.0000
  H   H50       1.0  0.593756370953841  0.46160323259943686  0.0474377011055722  1.0000
  H   H51       1.0  0.09375577483167771  0.46160526487111764  0.4525626408140083  1.0000
  H   H52       1.0  0.4062436203847924  0.5383942361349697  0.9525603893083242  1.0000
  H   H53       1.0  0.7090852696583241  0.5947794105138726  0.5675971026785689  1.0000
  H   H54       1.0  0.7909155287918496  0.40521888994231875  0.0675953552233963  1.0000
  H   H55       1.0  0.29091491588091156  0.40522093764552386  0.4324050635484014  1.0000
  H   H56       1.0  0.20908704707355244  0.5947805207759275  0.9324020558881756  1.0000
  H   H57       1.0  0.804611521511184  0.5388418991715158  0.3915308085994694  1.0000
  H   H58       1.0  0.6953895467349798  0.46115615329968324  0.8915285316898576  1.0000
  H   H59       1.0  0.1953898268259238  0.4611575003617077  0.608472036930131  1.0000
  H   H60       1.0  0.30461063880228073  0.5388441948615255  0.1084688794211957  1.0000
  H   H61       1.0  0.5977754152307853  0.5010741569168291  0.427840853468723  1.0000
  H   H62       1.0  0.90222587745658  0.49892674718348223  0.9278399757712492  1.0000
  H   H63       1.0  0.4022248997741045  0.4989281108605257  0.5721606334556028  1.0000
  H   H64       1.0  0.09777443754689592  0.5010755205951727  0.0721581146417023  1.0000
  C   C1        1.0  0.7839843453901026  0.896813031193858  0.24696773557182183  1.0000
  C   C2        1.0  0.7160167966535056  0.1031880113717847  0.7469690085769045  1.0000
  C   C3        1.0  0.2160195874726369  0.10318831032424214  0.7530317134463616  1.0000
  C   C4        1.0  0.2839834536184185  0.8968132965967187  0.2530324783476132  1.0000
  C   C5        1.0  0.7774387912025632  0.7734217801909155  0.3021828076263944  1.0000
  C   C6        1.0  0.7225635596258543  0.22657827147932622  0.802184031464634  1.0000
  C   C7        1.0  0.22256139433554273  0.22657856796951859  0.6978166413914835  1.0000
  C   C8        1.0  0.27743908097393444  0.7734220990464707  0.19781677615812038  1.0000
  C   C9        1.0  0.7951273048215057  0.8253106967281456  0.399242866894042  1.0000
  C   C10       1.0  0.704873964048204  0.17469022926434266  0.89924410734951  1.0000
  C   C11       1.0  0.2048766280409495  0.17469064479021776  0.6007559028218666  1.0000
  C   C12       1.0  0.29512751375399665  0.8253110898873643  0.10075670027288909  1.0000
  C   C13       1.0  0.6904826413252182  0.9402780450474425  0.39692165307135946  1.0000
  C   C14       1.0  0.809518625610963  0.059722882722269305  0.8969222901264046  1.0000
  C   C15       1.0  0.30951883647641415  0.059723274104783314  0.603077795946497  1.0000
  C   C16       1.0  0.19048039713012344  0.9402784140635565  0.1030785174956677  1.0000
  C   C17       1.0  0.761618374854521  0.28652086752299516  0.5168261214610368  1.0000
  C   C18       1.0  0.7383799909827149  0.7134784092425479  0.0168269496663171  1.0000
  C   C19       1.0  0.2383805831535923  0.7134794694539793  0.4831746861612274  1.0000
  C   C20       1.0  0.26161644723103455  0.286520945559957  0.98317317865353  1.0000
  C   C21       1.0  0.7246726598883627  0.38707109122582756  0.587579503380482  1.0000
  C   C22       1.0  0.775323115616729  0.61292522958329  0.08757834523328971  1.0000
  C   C23       1.0  0.27532487639085457  0.6129263551411415  0.41242266284672985  1.0000
  C   C24       1.0  0.22467448539375573  0.38707317659408624  0.9124197451800882  1.0000
  C   C25       1.0  0.7738759442982474  0.514340595102965  0.5400717999265723  1.0000
  C   C26       1.0  0.7261198563718666  0.48565672188418324  0.0400706809566387  1.0000
  C   C27       1.0  0.22612172144719273  0.48565877088144305  0.4599310456025378  1.0000
  C   C28       1.0  0.27387903690215154  0.5143426552849846  0.9599274094567177  1.0000
  C   C29       1.0  0.7276555972548807  0.48614249313540375  0.4418881659299245  1.0000
  C   C30       1.0  0.7723419598077685  0.5138574068531697  0.9418879260782802  1.0000
  C   C31       1.0  0.2723409056915571  0.5138578214762078  0.558111283087463  1.0000
  C   C32       1.0  0.22765454313866942  0.486142907758449  0.0581115229391074  1.0000
  Cl  Cl1       1.0  0.932657719666807  0.1680684243919117  0.12442721032201831  1.0000
  Cl  Cl2       1.0  0.5673393787933421  0.8319288391986461  0.6244308592547512  1.0000
  Cl  Cl3       1.0  0.06733975187746921  0.8319280621680252  0.8755702007894612  1.0000
  Cl  Cl4       1.0  0.43265802801852266  0.16806668755192083  0.37556791046147  1.0000
  Cl  Cl5       1.0  0.0009764128936638022  0.43422043665179194  0.2537627853408182  1.0000
  Cl  Cl6       1.0  0.4990254012773079  0.5657811585251126  0.7537673407612289  1.0000
  Cl  Cl7       1.0  0.9990236431773738  0.5657779918919844  0.7462339464683367  1.0000
  Cl  Cl8       1.0  0.5009759470595158  0.4342182410083738  0.24623482546610378  1.0000
  Cl  Cl9       1.0  0.018281497621281104  0.1450794749249553  0.3662220182178331  1.0000
  Cl  Cl10      1.0  0.4817198276170915  0.8549133958802316  0.8662257702550491  1.0000
  Cl  Cl11      1.0  0.9817190739168069  0.8549084069052028  0.6337726756867497  1.0000
  Cl  Cl12      1.0  0.5182786772608097  0.14508022243427382  0.1337763959730864  1.0000
  O   O1        1.0  0.7020335166379894  0.9888929404892584  0.3034924476850591  1.0000
  O   O2        1.0  0.7979689000142045  0.011108069987201902  0.8034937809760194  1.0000
  O   O3        1.0  0.2979679611633586  0.011108378663230703  0.6965063220305224  1.0000
  O   O4        1.0  0.20203135025743535  0.9888932379815575  0.1965070266462163  1.0000
  O   O5        1.0  0.7529668288340757  0.3503078535308504  0.4287953253728745  1.0000
  O   O6        1.0  0.7470305878579141  0.6496901368631783  0.9287950225606209  1.0000
  O   O7        1.0  0.24702960938052604  0.6496915012708726  0.5712068408537974  1.0000
  O   O8        1.0  0.25296714261907743  0.35031018893137406  0.07120442645693001  1.0000
