data_image0
_chemical_formula_structural       Zn2H24C30N4Cl6O8
_chemical_formula_sum              "Zn2 H24 C30 N4 Cl6 O8"
_cell_length_a       8.222746749175181
_cell_length_b       10.488838618053519
_cell_length_c       11.09079258561489
_cell_angle_alpha    71.28456377481147
_cell_angle_beta     78.46138334865168
_cell_angle_gamma    73.46620692547988

_space_group_name_H-M_alt    "P 1"
_space_group_IT_number       1

loop_
  _space_group_symop_operation_xyz
  'x, y, z'

loop_
  _atom_site_type_symbol
  _atom_site_label
  _atom_site_symmetry_multiplicity
  _atom_site_fract_x
  _atom_site_fract_y
  _atom_site_fract_z
  _atom_site_occupancy
  Zn  Zn1       1.0  0.37838939862695736  0.901573113580355  0.9049446057638872  1.0000
  Zn  Zn2       1.0  0.6216171622009198  0.09843073958921165  0.09505536623865404  1.0000
  H   H1        1.0  0.8811327874936129  0.470093335612873  0.6422719974305549  1.0000
  H   H2        1.0  0.11886699953591766  0.5298982709592225  0.35774708417103795  1.0000
  H   H3        1.0  0.4222657880746183  0.6013500696631695  0.03324602489140461  1.0000
  H   H4        1.0  0.5777276030151556  0.39865285482768087  0.9667398544272457  1.0000
  H   H5        1.0  0.2760918485593534  0.4139249920607142  0.0707313811580406  1.0000
  H   H6        1.0  0.7239000931891437  0.5860831206348961  0.9292549263310264  1.0000
  H   H7        1.0  0.849215365345522  0.7294681780833513  0.9028857450449692  1.0000
  H   H8        1.0  0.15077610217015552  0.27054613931583293  0.09709964210306772  1.0000
  H   H9        1.0  0.019140527960118416  0.9020432304833435  0.8681895656859735  1.0000
  H   H10       1.0  0.980858382771302  0.0979658828922609  0.13180988267354374  1.0000
  H   H11       1.0  0.6587521576910474  0.9861063566890064  0.6865842048703215  1.0000
  H   H12       1.0  0.3412472166884228  0.013901671852380594  0.3134037862976058  1.0000
  H   H13       1.0  0.8167116262602505  0.036973071620948886  0.5062668867120621  1.0000
  H   H14       1.0  0.18328866900075272  0.9630225550042937  0.4937247501470664  1.0000
  H   H15       1.0  0.7463615148184317  0.0168728815617243  0.37236025840926595  1.0000
  H   H16       1.0  0.2536390084928044  0.9831124491423537  0.6276425959466464  1.0000
  H   H17       1.0  0.922502940088641  0.8921992605391154  0.4441215019028561  1.0000
  H   H18       1.0  0.0774895680966949  0.1077882303502022  0.5558800205432703  1.0000
  H   H19       1.0  0.5329910543947419  0.7418209862518309  0.5792800866062606  1.0000
  H   H20       1.0  0.4669920412843211  0.2581687219216278  0.42073020211942225  1.0000
  H   H21       1.0  0.7493924523018406  0.6908332442289122  0.5097533287536892  1.0000
  H   H22       1.0  0.2505976824534032  0.30916672065745127  0.49025825620883967  1.0000
  H   H23       1.0  0.6005105090581396  0.8232136304095333  0.41463537585109106  1.0000
  H   H24       1.0  0.3994895655301108  0.176782056143665  0.5853707010810608  1.0000
  C   C1        1.0  0.29053146755084924  0.25772904585716105  0.8053850248059006  1.0000
  C   C2        1.0  0.7094799814783812  0.7422706113005403  0.1946146342456315  1.0000
  C   C3        1.0  0.1642674780825075  0.1869321531395158  0.8073531132220849  1.0000
  C   C4        1.0  0.8357505663897058  0.8130663659101884  0.19264055297411886  1.0000
  C   C5        1.0  0.014916467892554403  0.27037314697408016  0.7485607872123549  1.0000
  C   C6        1.0  0.9850920420192323  0.7296234644326984  0.2514438198780837  1.0000
  C   C7        1.0  0.9958882817133984  0.410831882799087  0.6874906317199462  1.0000
  C   C8        1.0  0.004120297158628709  0.5891647098802152  0.3125094628476716  1.0000
  C   C9        1.0  0.1250219585887251  0.47588602738589697  0.6817965592738061  1.0000
  C   C10       1.0  0.8749897630741613  0.5241084387380041  0.31819832972363565  1.0000
  C   C11       1.0  0.27216927343830116  0.3990509709910696  0.7408910095995294  1.0000
  C   C12       1.0  0.7278447083027757  0.6009486431332364  0.25910560066004246  1.0000
  C   C13       1.0  0.437451440731671  0.1746079367947289  0.8802707465076408  1.0000
  C   C14       1.0  0.5625674705868989  0.8253874700812104  0.11972284328723495  1.0000
  C   C15       1.0  0.2965827161465313  0.6237009160124457  0.0030520217444661045  1.0000
  C   C16       1.0  0.7033983350373062  0.3763053349026748  0.9969526173144913  1.0000
  C   C17       1.0  0.2115684653622552  0.5200848268928199  0.025935676245751344  1.0000
  C   C18       1.0  0.7884175547009421  0.4799213641739896  0.9740691827612125  1.0000
  C   C19       1.0  0.047542820548109405  0.5535965906875048  0.9887653652764568  1.0000
  C   C20       1.0  0.9524406010502915  0.4464147782640423  0.01123377500810829  1.0000
  C   C21       1.0  0.9776483026784177  0.6940812348664593  0.9307655196422002  1.0000
  C   C22       1.0  0.022349596849949162  0.3059278307341486  0.06921875677886652  1.0000
  C   C23       1.0  0.07103833822360167  0.7919842542370715  0.9106235828449056  1.0000
  C   C24       1.0  0.9289630245416518  0.20802067994157622  0.0893722838236286  1.0000
  C   C25       1.0  0.6184643781132451  0.9045027534872574  0.665736993880941  1.0000
  C   C26       1.0  0.3815352498262925  0.09549913027851177  0.3342663577010469  1.0000
  C   C27       1.0  0.7987177862536184  0.9615942660313195  0.46381865483971285  1.0000
  C   C28       1.0  0.20127535752055792  0.0383952924815389  0.5361848537454819  1.0000
  C   C29       1.0  0.6380066001469585  0.7783284187604664  0.5118827227235413  1.0000
  C   C30       1.0  0.3619790399617385  0.22166540127064135  0.4881295626320109  1.0000
  N   N1        1.0  0.22917915432958583  0.7575077686475352  0.9452592764523117  1.0000
  N   N2        1.0  0.7708080562332852  0.242498421502809  0.05474902193376613  1.0000
  N   N3        1.0  0.6821144574488613  0.8824395837342108  0.5519510209241288  1.0000
  N   N4        1.0  0.3178768836723691  0.11755621785364667  0.44805715298654997  1.0000
  Cl  Cl1       1.0  0.8541759244618846  0.1909830359474256  0.7554485603547005  1.0000
  Cl  Cl2       1.0  0.1458341536380487  0.809007396057801  0.2445667239878374  1.0000
  Cl  Cl3       1.0  0.0989234479871115  0.6505212090882606  0.6024089526574414  1.0000
  Cl  Cl4       1.0  0.9010657530358156  0.34947772806280847  0.39760127330283973  1.0000
  Cl  Cl5       1.0  0.43473216371747  0.47873419358731434  0.7285470225942631  1.0000
  Cl  Cl6       1.0  0.5652859253381662  0.5212694303497543  0.27143065605105926  1.0000
  O   O1        1.0  0.5261233167029217  0.06256023582027838  0.8574785881981197  1.0000
  O   O2        1.0  0.4739006154559178  0.937429980101498  0.14252489156368864  1.0000
  O   O3        1.0  0.17722300388967943  0.05495908575957738  0.8610595482276435  1.0000
  O   O4        1.0  0.8227914118410811  0.9450436096580431  0.13893335777586913  1.0000
  O   O5        1.0  0.45872336110393525  0.219905086874057  0.9687809247260332  1.0000
  O   O6        1.0  0.5412840548525181  0.780091499230714  0.031213925453336337  1.0000
  O   O7        1.0  0.5163432032200106  0.8396097767996407  0.7453028369520351  1.0000
  O   O8        1.0  0.48363985127466697  0.1604026507676437  0.2547014429921716  1.0000
