data_image0
_chemical_formula_structural       Zn16H40C104S16O52F8
_chemical_formula_sum              "Zn16 H40 C104 S16 O52 F8"
_cell_length_a       19.650963008133658
_cell_length_b       19.651541229595534
_cell_length_c       33.32013067961461
_cell_angle_alpha    79.08036331894382
_cell_angle_beta     79.2503298791932
_cell_angle_gamma    63.90776775340196

_space_group_name_H-M_alt    "P 1"
_space_group_IT_number       1

loop_
  _space_group_symop_operation_xyz
  'x, y, z'

loop_
  _atom_site_type_symbol
  _atom_site_label
  _atom_site_symmetry_multiplicity
  _atom_site_fract_x
  _atom_site_fract_y
  _atom_site_fract_z
  _atom_site_occupancy
  Zn  Zn1       1.0  0.05617961827032761  0.4021557459418688  0.47546277115905167  1.0000
  Zn  Zn2       1.0  0.9902208946081641  0.47977290915625315  0.5599752254956343  1.0000
  Zn  Zn3       1.0  0.05508760467589719  0.5644093814835215  0.48256488706823564  1.0000
  Zn  Zn4       1.0  0.8991924280249606  0.5507749385708748  0.4805324984468129  1.0000
  Zn  Zn5       1.0  0.6973262333523066  0.3485181780520392  0.27247880990671547  1.0000
  Zn  Zn6       1.0  0.68385065896436  0.19354745657459932  0.2661826587413998  1.0000
  Zn  Zn7       1.0  0.767358792266144  0.2666343257268053  0.19082247432568517  1.0000
  Zn  Zn8       1.0  0.846519626933535  0.1892725891486295  0.2729644586418872  1.0000
  Zn  Zn9       1.0  0.2708444683328182  0.7602040804584148  0.6894716196937478  1.0000
  Zn  Zn10      1.0  0.3488949497008917  0.6997975137992473  0.7733676376382448  1.0000
  Zn  Zn11      1.0  0.1932892703458862  0.8500864439569044  0.7699534886926925  1.0000
  Zn  Zn12      1.0  0.1919655403161684  0.6888455016864867  0.767450804446824  1.0000
  Zn  Zn13      1.0  0.5613582305508302  0.059962175025255235  0.9853170044306268  1.0000
  Zn  Zn14      1.0  0.40056553477013773  0.056596591496116753  0.9782737887758445  1.0000
  Zn  Zn15      1.0  0.5556567289240489  0.9029504060381017  0.9784313511668187  1.0000
  Zn  Zn16      1.0  0.48052181450104575  0.9840450283682283  0.0604736550919966  1.0000
  H   H1        1.0  0.7483910436502298  0.43563345442248663  0.3532313186313302  1.0000
  H   H2        1.0  0.006502928788947299  0.3035452961327679  0.3959399901594693  1.0000
  H   H3        1.0  0.2109073553365093  0.689609793737226  0.6017701045492316  1.0000
  H   H4        1.0  0.0506001246650243  0.5487279713256539  0.6474317900419138  1.0000
  H   H5        1.0  0.4630113906004709  0.24790165164800726  0.341079792855993  1.0000
  H   H6        1.0  0.4860803060683168  0.6888151365934051  0.6049439517609301  1.0000
  H   H7        1.0  0.21057593204385938  0.9729076292589768  0.5962866657042696  1.0000
  H   H8        1.0  0.9503867458407598  0.9508168653950761  0.3293085282078039  1.0000
  H   H9        1.0  0.6439857383578838  0.15084482345514513  0.05035381241507509  1.0000
  H   H10       1.0  0.5957845174352626  0.10734800366480356  0.2011888809340974  1.0000
  H   H11       1.0  0.5324660567642707  0.7718224523640559  0.14814778422456948  1.0000
  H   H12       1.0  0.15911550449106926  0.15399791790875383  0.0412450784406815  1.0000
  H   H13       1.0  0.30157635971842467  0.008244929068510539  0.8990523153506089  1.0000
  H   H14       1.0  0.4437408333647426  0.7589895115910607  0.8470695588461011  1.0000
  H   H15       1.0  0.3094365330311959  0.27664985712957696  0.8983897967735216  1.0000
  H   H16       1.0  0.7816649895990436  0.016441813463551124  0.9038335411132152  1.0000
  H   H17       1.0  0.7830151804006176  0.559424752647125  0.39690882276521927  1.0000
  H   H18       1.0  0.7517625255800695  0.5075297267631811  0.43903796452428884  1.0000
  H   H19       1.0  0.7116348776877643  0.5296774057020884  0.39186913791890987  1.0000
  H   H20       1.0  0.04406184802228099  0.2111425981949395  0.3537065436494514  1.0000
  H   H21       1.0  0.9949586101907001  0.22931536991524143  0.3102602074429583  1.0000
  H   H22       1.0  0.9724145811108187  0.17772484078491127  0.3557121687369004  1.0000
  H   H23       1.0  0.1278653857176053  0.6961277977729735  0.520238685421006  1.0000
  H   H24       1.0  0.2022617592639904  0.6041176215632474  0.5204691979215283  1.0000
  H   H25       1.0  0.21777161911662546  0.6790322199113916  0.5343313578004967  1.0000
  H   H26       1.0  0.0468891338547763  0.6342062305733334  0.7274857576053292  1.0000
  H   H27       1.0  0.13348624592100578  0.5526983264278514  0.7301415857633771  1.0000
  H   H28       1.0  0.05422974895774501  0.5470735862025363  0.7145082355502979  1.0000
  H   H29       1.0  0.7642457776511195  0.19309226564904233  0.09082606730919447  1.0000
  H   H30       1.0  0.6802780345049371  0.2771902000859115  0.09474552434956247  1.0000
  H   H31       1.0  0.7024819822400588  0.22642485499579826  0.05155051592571882  1.0000
  H   H32       1.0  0.5600787616760526  0.9807950401069121  0.15720411012787855  1.0000
  H   H33       1.0  0.4755873092589127  0.06465362576505383  0.16025040215106398  1.0000
  H   H34       1.0  0.5361549206053127  0.032845990513465026  0.20002333688457694  1.0000
  H   H35       1.0  0.17907674217532588  0.9689374036600356  0.8575098763190496  1.0000
  H   H36       1.0  0.2235614868262772  0.006209860169697393  0.8141957980002914  1.0000
  H   H37       1.0  0.2043533793105539  0.043835773470966934  0.8618201061560598  1.0000
  H   H38       1.0  0.5222784964446988  0.761688843985887  0.9316639999323826  1.0000
  H   H39       1.0  0.5669535393380585  0.7972860089258232  0.8876938909668438  1.0000
  H   H40       1.0  0.5401956791902832  0.7228681626023675  0.8845550761644176  1.0000
  C   C1        1.0  0.06697174836974538  0.3123648742864943  0.5571571928715144  1.0000
  C   C2        1.0  0.0729496410553452  0.5694868880531132  0.5672143665672492  1.0000
  C   C3        1.0  0.18364782864344417  0.4456270682438798  0.4394559645179967  1.0000
  C   C4        1.0  0.9303017023385466  0.67994038653633  0.43605711810582193  1.0000
  C   C5        1.0  0.928532534480837  0.4283051656471813  0.4309402631611191  1.0000
  C   C6        1.0  0.8231104893598696  0.5567038783334228  0.5662559640420213  1.0000
  C   C7        1.0  0.5710219478474983  0.31231665776392953  0.3171258796851149  1.0000
  C   C8        1.0  0.6750148084678286  0.18815366551672955  0.17970377293478632  1.0000
  C   C9        1.0  0.6820190846582149  0.433807523191561  0.18951359515997981  1.0000
  C   C10       1.0  0.9346462147147179  0.19325623668600392  0.1915763385314548  1.0000
  C   C11       1.0  0.8252086065498289  0.3103798675266491  0.31937630515729143  1.0000
  C   C12       1.0  0.8063789922274437  0.05869077642511662  0.3040769017457237  1.0000
  C   C13       1.0  0.4384613046137957  0.683698399416741  0.6915443098962584  1.0000
  C   C14       1.0  0.3141173315411407  0.8318704566259143  0.8169414614094705  1.0000
  C   C15       1.0  0.19303398233684277  0.9280220211642957  0.6840641564782783  1.0000
  C   C16       1.0  0.06635649394178239  0.8113331209397782  0.8109730317213035  1.0000
  C   C17       1.0  0.18367232219247853  0.674271238766984  0.6819232689141757  1.0000
  C   C18       1.0  0.3142138574196167  0.5702890609987391  0.8145051317708435  1.0000
  C   C19       1.0  0.4398587840615491  0.18597589441624507  0.9413675918681933  1.0000
  C   C20       1.0  0.4313497107290161  0.9335828674638192  0.9298227013591358  1.0000
  C   C21       1.0  0.6846635243852006  0.9405470547055969  0.9397245819589912  1.0000
  C   C22       1.0  0.5555255632149994  0.8168834296364479  0.06154801333286033  1.0000
  C   C23       1.0  0.5671968110455764  0.0676225936343046  0.07190525261489002  1.0000
  C   C24       1.0  0.3133599863018972  0.0657471820983631  0.060724180359123595  1.0000
  C   C25       1.0  0.8990047034158691  0.4001340064703529  0.4023243741198641  1.0000
  C   C26       1.0  0.8551820012393846  0.33803124657506356  0.3478656054830793  1.0000
  C   C27       1.0  0.8241977460312739  0.43952550167407617  0.3907029805419953  1.0000
  C   C28       1.0  0.9298109895717842  0.2984978914000819  0.3594715551291401  1.0000
  C   C29       1.0  0.8051243726234034  0.40678861507934994  0.3633035677073693  1.0000
  C   C30       1.0  0.9493164600259049  0.3316446550399379  0.38645941688314883  1.0000
  C   C31       1.0  0.1040479588220649  0.596714323769568  0.5954602300298291  1.0000
  C   C32       1.0  0.1546680875573117  0.6446920028971376  0.6537715033078229  1.0000
  C   C33       1.0  0.1504512780045317  0.6367474541975611  0.5812902761898612  1.0000
  C   C34       1.0  0.10893360988850989  0.6038283665349623  0.6679230244803591  1.0000
  C   C35       1.0  0.17460195719782942  0.6591425879588613  0.6113454260016268  1.0000
  C   C36       1.0  0.08544688356921877  0.5807519377864026  0.6378352214082738  1.0000
  C   C37       1.0  0.3096895586030328  0.4556013546673867  0.4072787807475748  1.0000
  C   C38       1.0  0.44837696456961135  0.30221205959432484  0.3516897915775132  1.0000
  C   C39       1.0  0.25995847128412203  0.4204616644664655  0.4162861194964691  1.0000
  C   C40       1.0  0.4966183276836844  0.33867110117397914  0.3425769720097661  1.0000
  C   C41       1.0  0.3803446852871915  0.3451694138108081  0.3753488233823248  1.0000
  C   C42       1.0  0.3786055161129481  0.4135703039812171  0.3838738845058884  1.0000
  C   C43       1.0  0.7318853421761276  0.5760922156399602  0.6342918379108582  1.0000
  C   C44       1.0  0.5304970897920497  0.6637425536983843  0.6253092048399295  1.0000
  C   C45       1.0  0.7491267416260498  0.5811613938950656  0.5917974437657563  1.0000
  C   C46       1.0  0.5145122528555176  0.6578482836166941  0.6677093746948798  1.0000
  C   C47       1.0  0.6099287511882139  0.6333742994735803  0.613379970652005  1.0000
  C   C48       1.0  0.6527181188212053  0.6053637935551491  0.6471738851179296  1.0000
  C   C49       1.0  0.0824360011510379  0.21943171180211607  0.6239124973431556  1.0000
  C   C50       1.0  0.18090278886072747  0.0178068805403626  0.6161680250804834  1.0000
  C   C51       1.0  0.0927363475929326  0.23689977585990357  0.5815062306627182  1.0000
  C   C52       1.0  0.1693408555321199  0.002637485437766365  0.6585484996789147  1.0000
  C   C53       1.0  0.14928981504677097  0.09729684962923812  0.6035909636205687  1.0000
  C   C54       1.0  0.1143000368813176  0.14038444034979133  0.6369937605196297  1.0000
  C   C55       1.0  0.8337173861511998  0.799065775671821  0.3963542654897623  1.0000
  C   C56       1.0  0.9024489935314719  0.9354231430720575  0.33873286903363453  1.0000
  C   C57       1.0  0.9052308216629185  0.7522436376381734  0.4087652488035046  1.0000
  C   C58       1.0  0.8302859253099584  0.9823000030296358  0.32768414348474545  1.0000
  C   C59       1.0  0.9034030671195694  0.8683518833604041  0.36344765077696206  1.0000
  C   C60       1.0  0.8315412349309314  0.865656943197088  0.3705575817873594  1.0000
  C   C61       1.0  0.6471120100421004  0.1598887399842184  0.15043212653419147  1.0000
  C   C62       1.0  0.5929981838797856  0.09793552032864744  0.10112448195351932  1.0000
  C   C63       1.0  0.6617693220033942  0.17384944026385793  0.10712165987629867  1.0000
  C   C64       1.0  0.5778387334810943  0.08448315513120262  0.14442633773268906  1.0000
  C   C65       1.0  0.6338310995726459  0.14180155950582923  0.083820784332886  1.0000
  C   C66       1.0  0.6058232794697532  0.11647080394413213  0.1677215649251167  1.0000
  C   C67       1.0  0.6665408312452782  0.5250541468872854  0.12193355771050561  1.0000
  C   C68       1.0  0.5638876457861385  0.7266993547783469  0.12853775775960233  1.0000
  C   C69       1.0  0.6544247034449029  0.5083704468061256  0.16433593522956605  1.0000
  C   C70       1.0  0.5779710391171378  0.7415722344279774  0.0862676997791922  1.0000
  C   C71       1.0  0.5957193886086714  0.6474015574584796  0.14136887772362172  1.0000
  C   C72       1.0  0.6334764253654654  0.603904400411821  0.10830955404900067  1.0000
  C   C73       1.0  0.0816787270859152  0.1295451893610178  0.1787099964718237  1.0000
  C   C74       1.0  0.16768906596529828  0.13490006715590394  0.0734787004765352  1.0000
  C   C75       1.0  0.0091294197288576  0.17046213711721947  0.1665972288193061  1.0000
  C   C76       1.0  0.23919421824734138  0.092513348894002  0.086340033936672  1.0000
  C   C77       1.0  0.1103515744786208  0.14810954465718854  0.1073921160076807  1.0000
  C   C78       1.0  0.1400277974801512  0.11587515665901554  0.14537130487590127  1.0000
  C   C79       1.0  0.34162512554062363  0.8621056174467014  0.8455265108435556  1.0000
  C   C80       1.0  0.403820357794288  0.9050851392733178  0.9004862403046873  1.0000
  C   C81       1.0  0.2992903359419685  0.9344233107533099  0.859797595510649  1.0000
  C   C82       1.0  0.44630389845636387  0.8329405926687771  0.88605657800678  1.0000
  C   C83       1.0  0.3323819297221675  0.9532775090645418  0.8871505182958686  1.0000
  C   C84       1.0  0.413117419850586  0.8140978656789882  0.8587957913086441  1.0000
  C   C85       1.0  0.404052366050152  0.4563099773773017  0.8601282093480052  1.0000
  C   C86       1.0  0.3505461128731469  0.3002293455845333  0.8973667227652412  1.0000
  C   C87       1.0  0.3393707714326624  0.49583182893808697  0.8398619953073306  1.0000
  C   C88       1.0  0.4156095695078362  0.2617665379942409  0.9170861889099768  1.0000
  C   C89       1.0  0.34664011099508224  0.3712566156906619  0.8766682376411195  1.0000
  C   C90       1.0  0.4091746978172423  0.38515667384115904  0.8812483283958129  1.0000
  C   C91       1.0  0.9480381594625767  0.7956960776128028  0.8519931191909009  1.0000
  C   C92       1.0  0.8012133307976158  0.9574250807996019  0.8986196082615976  1.0000
  C   C93       1.0  0.9915716283684051  0.836382711590211  0.8358612551841914  1.0000
  C   C94       1.0  0.7592863182366472  0.9152667869321076  0.9144170465184374  1.0000
  C   C95       1.0  0.8701318741999701  0.9134541610369029  0.8757999413913993  1.0000
  C   C96       1.0  0.8787797087576764  0.8386229162585365  0.8748176525674793  1.0000
  C   C97       1.0  0.7644055380689637  0.5129641508996556  0.4053740279473388  1.0000
  C   C98       1.0  0.9885386122260653  0.22535356027488979  0.34397200058967303  1.0000
  C   C99       1.0  0.17605984061479768  0.6549696715243839  0.536737116839646  1.0000
  C   C100      1.0  0.0846180333707665  0.5832189274910178  0.7123578656222307  1.0000
  C   C101      1.0  0.7043466608304597  0.22017339977197295  0.0848059592176185  1.0000
  C   C102      1.0  0.5352031715453193  0.03820743015074162  0.16673437240353908  1.0000
  C   C103      1.0  0.2225141918932252  0.9914869746988161  0.8477111273696565  1.0000
  C   C104      1.0  0.5229913939433998  0.7755641221557782  0.8981278649230404  1.0000
  S   S1        1.0  0.29809604618620966  0.33406566226067014  0.3959034447191171  1.0000
  S   S2        1.0  0.46025865472576993  0.42513584614260946  0.3627135574579867  1.0000
  S   S3        1.0  0.6671016267191588  0.6227014963508425  0.5669375721440488  1.0000
  S   S4        1.0  0.5954328039988751  0.6155507761188446  0.6935006644785132  1.0000
  S   S5        1.0  0.1427478614269404  0.154772042295825  0.5570202118927909  1.0000
  S   S6        1.0  0.120289858934008  0.084066187902188  0.6835371872296888  1.0000
  S   S7        1.0  0.9714925370908318  0.7899240957999822  0.3883593316966624  1.0000
  S   S8        1.0  0.7631136707097922  0.9452012150165885  0.3467424243982009  1.0000
  S   S9        1.0  0.6010549995540301  0.5908300003517012  0.18814082390395012  1.0000
  S   S10       1.0  0.6293180479518553  0.6599063833180737  0.06166452620630737  1.0000
  S   S11       1.0  0.012084277486046298  0.1934131654418252  0.11335794951506979  1.0000
  S   S12       1.0  0.2378311337213289  0.06869236555151306  0.1394762677691688  1.0000
  S   S13       1.0  0.28340493075730677  0.4451568050574012  0.8467647361069481  1.0000
  S   S14       1.0  0.4725629772784927  0.31122402065717114  0.910845004321409  1.0000
  S   S15       1.0  0.9467624768840891  0.9293819169635213  0.8487407534629979  1.0000
  S   S16       1.0  0.8027853393058776  0.8222221396074191  0.9017911869434981  1.0000
  O   O1        1.0  0.0004847055692990997  0.49871318027257416  0.4994703952129099  1.0000
  O   O2        1.0  0.08706045995467801  0.31344342321050794  0.5182516794994638  1.0000
  O   O3        1.0  0.0511801810891299  0.5165874093011524  0.5827282210678035  1.0000
  O   O4        1.0  0.15769608831412538  0.5082197372310446  0.454895172129362  1.0000
  O   O5        1.0  0.026867712154483993  0.36952249604402004  0.5769445095909232  1.0000
  O   O6        1.0  0.15038280482936975  0.4014402323200841  0.44184658461636417  1.0000
  O   O7        1.0  0.0694455272365175  0.6010075215485458  0.5299228850695386  1.0000
  O   O8        1.0  1.085489785170025e-05  0.6516145912337379  0.4432724199229625  1.0000
  O   O9        1.0  0.8846266722881351  0.4925292847920417  0.4438390014255873  1.0000
  O   O10       1.0  0.8816896631756634  0.6521189648459825  0.44998426874268915  1.0000
  O   O11       1.0  0.9960496146676334  0.3860018588475143  0.4403833125195007  1.0000
  O   O12       1.0  0.8832731052413295  0.5287867799005921  0.5842157000974025  1.0000
  O   O13       1.0  0.8193307125201413  0.5662251202333837  0.5274479309103767  1.0000
  O   O14       1.0  0.7483542031772288  0.24934889155397857  0.2509045098928482  1.0000
  O   O15       1.0  0.6061558852999767  0.3555520615881703  0.31120985370817067  1.0000
  O   O16       1.0  0.6496039071637938  0.18057292412756  0.21777322943936636  1.0000
  O   O17       1.0  0.7231977872457661  0.37581709804181446  0.17048478638379544  1.0000
  O   O18       1.0  0.5931075251101348  0.24891017465559864  0.3031002684613355  1.0000
  O   O19       1.0  0.6623541371492507  0.4342139358126855  0.22839948669953  1.0000
  O   O20       1.0  0.7226547535844077  0.21697070229220122  0.16487585554023812  1.0000
  O   O21       1.0  0.876813081888855  0.2264081143958094  0.17127172465026771  1.0000
  O   O22       1.0  0.8562620015466819  0.23896759482408225  0.3159944532259615  1.0000
  O   O23       1.0  0.9339215262961955  0.17815183344863808  0.2305621754818006  1.0000
  O   O24       1.0  0.7694965272555762  0.36080522100625956  0.30063101771764866  1.0000
  O   O25       1.0  0.7368845455628161  0.09200596934030618  0.2964601696218381  1.0000
  O   O26       1.0  0.857068210968869  0.08490113916845833  0.2937586769404348  1.0000
  O   O27       1.0  0.25130267166782266  0.7500783149729032  0.7498668159010577  1.0000
  O   O28       1.0  0.38132176412189267  0.7184399127878155  0.6710267602977422  1.0000
  O   O29       1.0  0.3613177952219147  0.7686035156489057  0.8039132718783648  1.0000
  O   O30       1.0  0.17571428011890328  0.9306538697393875  0.7229099001829765  1.0000
  O   O31       1.0  0.43694824053442716  0.6689548461596004  0.7307110807023065  1.0000
  O   O32       1.0  0.2280554736878244  0.8684586145866647  0.6655846546216253  1.0000
  O   O33       1.0  0.2459589245019558  0.8702966206440551  0.807759135133665  1.0000
  O   O34       1.0  0.0926485546651179  0.8620669685438855  0.7992910689688697  1.0000
  O   O35       1.0  0.16117902479343368  0.6671712810073771  0.7203955650490669  1.0000
  O   O36       1.0  0.0982704705508723  0.742161878817086  0.8033729624646284  1.0000
  O   O37       1.0  0.22898939479948405  0.7053799092034795  0.6653383312786331  1.0000
  O   O38       1.0  0.35554707548480013  0.6067945079931575  0.8103185245736456  1.0000
  O   O39       1.0  0.2521437139814751  0.5913468336495457  0.7988112159228891  1.0000
  O   O40       1.0  0.4992755619720056  0.0012740395018938674  0.00039853316214788893  1.0000
  O   O41       1.0  0.5023394954956687  0.16153529190579968  0.9571103344999158  1.0000
  O   O42       1.0  0.3834414831846331  0.9942784928768447  0.9453091386799669  1.0000
  O   O43       1.0  0.6578164548741582  0.8903164115576062  0.9515593681347738  1.0000
  O   O44       1.0  0.39660796199053994  0.15174663709118622  0.9443793309421267  1.0000
  O   O45       1.0  0.6535358273336414  0.009632059036377353  0.9475643011327008  1.0000
  O   O46       1.0  0.5005887593385693  0.8958580194184191  0.9373124873527416  1.0000
  O   O47       1.0  0.5701460320712215  0.8169960440962287  0.022452817469876162  1.0000
  O   O48       1.0  0.5198035438452989  0.03833461374226492  0.08656602720427738  1.0000
  O   O49       1.0  0.5240372604016201  0.8748894747115797  0.0813616226779459  1.0000
  O   O50       1.0  0.594277737070243  0.07345674018540647  0.03403435199181356  1.0000
  O   O51       1.0  0.313772110049463  0.0874420479534095  0.0221051278855953  1.0000
  O   O52       1.0  0.3710390367231041  0.022546645195660672  0.08004460359344279  1.0000
  F   F1        1.0  0.2949492315380695  0.5228911045853125  0.4191701419862923  1.0000
  F   F2        1.0  0.7841801071804468  0.5464088662549144  0.6610095188141683  1.0000
  F   F3        1.0  0.04620979673845229  0.27123616693835123  0.650621989100621  1.0000
  F   F4        1.0  0.771786017510756  0.7842602067674775  0.407775346507506  1.0000
  F   F5        1.0  0.7059666576019836  0.4726579945672711  0.0957825601145501  1.0000
  F   F6        1.0  0.09639750645756348  0.104118266717613  0.21793869033199798  1.0000
  F   F7        1.0  0.4572918542612854  0.4818270545092602  0.8600320172686793  1.0000
  F   F8        1.0  0.968384743863126  0.7227947570098574  0.8468275195915496  1.0000
