data_image0
_chemical_formula_structural       H22Pt2Au2C34N10Cl2
_chemical_formula_sum              "H22 Pt2 Au2 C34 N10 Cl2"
_cell_length_a       6.386972740511739
_cell_length_b       7.472552737320237
_cell_length_c       19.56917908081539
_cell_angle_alpha    90.00016007521921
_cell_angle_beta     90.00086373746652
_cell_angle_gamma    115.27111736541568

_space_group_name_H-M_alt    "P 1"
_space_group_IT_number       1

loop_
  _space_group_symop_operation_xyz
  'x, y, z'

loop_
  _atom_site_type_symbol
  _atom_site_label
  _atom_site_symmetry_multiplicity
  _atom_site_fract_x
  _atom_site_fract_y
  _atom_site_fract_z
  _atom_site_occupancy
  H   H1        1.0  0.5505413008750039  0.09825986468251098  0.18404284671591856  1.0000
  H   H2        1.0  0.4494450030721922  0.9017326037590649  0.6840369239181856  1.0000
  H   H3        1.0  0.5838306512613798  0.16380292303067276  0.3086353131413234  1.0000
  H   H4        1.0  0.41616170561425736  0.8361932269506552  0.8086271125440876  1.0000
  H   H5        1.0  0.4376660541485292  0.8728245549563453  0.3911186136350367  1.0000
  H   H6        1.0  0.5623396540808372  0.1271843902865513  0.8911098531693117  1.0000
  H   H7        1.0  0.2658479816454289  0.5302550537269468  0.3423351747465234  1.0000
  H   H8        1.0  0.7341579609228785  0.46974948926015947  0.8423230264769471  1.0000
  H   H9        1.0  0.1197923634933957  0.23802859482986352  0.2911444691279996  1.0000
  H   H10       1.0  0.8802197554530905  0.7619773934881378  0.7911323296105623  1.0000
  H   H11       1.0  0.9692019870335284  0.9374721071609641  0.21529857407514907  1.0000
  H   H12       1.0  0.030789839245493094  0.0625316440736441  0.7152886730035777  1.0000
  H   H13       1.0  0.9876986213336634  0.9745347303211175  0.08949775677350402  1.0000
  H   H14       1.0  0.0122957313268373  0.025463821407704805  0.5894821040267717  1.0000
  H   H15       1.0  0.027362989803250998  0.0542333797293537  0.9794520151149018  1.0000
  H   H16       1.0  0.9726211127351333  0.9457648617656246  0.479450699736205  1.0000
  H   H17       1.0  0.08636433150083178  0.173654676300572  0.8591952633259798  1.0000
  H   H18       1.0  0.9136228093451205  0.8263326093386779  0.35919046403532223  1.0000
  H   H19       1.0  0.2678127620830324  0.5361376135733167  0.8358505192988375  1.0000
  H   H20       1.0  0.7321702142344435  0.4638623033689484  0.33584903914697867  1.0000
  H   H21       1.0  0.38677549213857515  0.7729973412742195  0.9375082431246685  1.0000
  H   H22       1.0  0.613230834189693  0.22700853507179636  0.43750285868825506  1.0000
  Pt  Pt1       1.0  0.35769283869205265  0.714216768782144  0.09471652728139902  1.0000
  Pt  Pt2       1.0  0.6423058766900309  0.2857774961551911  0.5947083296696223  1.0000
  Au  Au1       1.0  0.8029924555355235  0.6051090193903973  0.06432640180863562  1.0000
  Au  Au2       1.0  0.19702306341166317  0.39491542415385794  0.5643381138927525  1.0000
  C   C1        1.0  0.4901654896506855  0.977382692111661  0.22086842755102518  1.0000
  C   C2        1.0  0.5098232388513891  0.0226049441459679  0.7208598080581936  1.0000
  C   C3        1.0  0.5072371913768804  0.011205902103505099  0.29107630973667403  1.0000
  C   C4        1.0  0.49276544421288526  0.988803046687927  0.7910712040475759  1.0000
  C   C5        1.0  0.4268013797487311  0.8508700467296818  0.33585361002419495  1.0000
  C   C6        1.0  0.5731949463912045  0.1491283868693358  0.8358423714000484  1.0000
  C   C7        1.0  0.33093135294492976  0.6597374391475554  0.3089538299830394  1.0000
  C   C8        1.0  0.6690716361676505  0.34027055794408784  0.8089453112530693  1.0000
  C   C9        1.0  0.3174595448091537  0.6329081013789877  0.2384521025829757  1.0000
  C   C10       1.0  0.6825338700337438  0.3670904137279222  0.7384401017101755  1.0000
  C   C11       1.0  0.22020056749715883  0.43904654871051463  0.20501908500236252  1.0000
  C   C12       1.0  0.7798029814815662  0.5609628160123563  0.7050139018422217  1.0000
  C   C13       1.0  0.1267330548989634  0.25230843161808997  0.23549933899100495  1.0000
  C   C14       1.0  0.8732710514954078  0.7476929536969905  0.7354891940758324  1.0000
  C   C15       1.0  0.04331055488264468  0.08567752442134947  0.19318556823046154  1.0000
  C   C16       1.0  0.9566874874283683  0.9143344518289493  0.6931749897226213  1.0000
  C   C17       1.0  0.05291319956668159  0.10509369212735462  0.12221635030407904  1.0000
  C   C18       1.0  0.9470778043184325  0.8949013875768513  0.6222062147898912  1.0000
  C   C19       1.0  0.14756382207990973  0.29423365121363076  0.0938562712033573  1.0000
  C   C20       1.0  0.8524274934580871  0.7057709503439111  0.5938475120067608  1.0000
  C   C21       1.0  0.17459222463423882  0.3483006026240504  0.021497684879669507  1.0000
  C   C22       1.0  0.8253950985731107  0.6516870606025265  0.5214912899681254  1.0000
  C   C23       1.0  0.10623207721847898  0.21183342603135463  0.9683966430353483  1.0000
  C   C24       1.0  0.8937627877780229  0.7881748461605795  0.4683865951832049  1.0000
  C   C25       1.0  0.13976024130784023  0.27963656662250697  0.9011696187529312  1.0000
  C   C26       1.0  0.860224856176401  0.7203490002759448  0.4011675095929378  1.0000
  C   C27       1.0  0.24109811444579068  0.4822952594843741  0.8884714364535075  1.0000
  C   C28       1.0  0.7589043009327836  0.5177136083132295  0.3884629912020686  1.0000
  C   C29       1.0  0.30674719327242156  0.6129243605882521  0.9434111210063068  1.0000
  C   C30       1.0  0.6932459231386543  0.38706393305820086  0.44340732327287924  1.0000
  C   C31       1.0  0.8704060282816  0.7414786172164297  0.9112620143363731  1.0000
  C   C32       1.0  0.12968474794755017  0.2585013023658007  0.4112767792602342  1.0000
  C   C33       1.0  0.7426651528869355  0.4840886337308845  0.218887603304907  1.0000
  C   C34       1.0  0.2573136301289622  0.5159137471197042  0.7189033184289502  1.0000
  N   N1        1.0  0.3977457931927616  0.7933016282907842  0.19474283633789474  1.0000
  N   N2        1.0  0.6022596052662408  0.20670299207986176  0.6947364012504169  1.0000
  N   N3        1.0  0.22686687814069723  0.4527904824275808  0.13606016087617695  1.0000
  N   N4        1.0  0.7731202759171864  0.5472050075211641  0.6360549301844857  1.0000
  N   N5        1.0  0.2746591943463415  0.5485634178241908  0.008221037527548002  1.0000
  N   N6        1.0  0.7253396680798402  0.45142977023424885  0.5082124033724967  1.0000
  N   N7        1.0  0.8432027118712566  0.686094250816467  0.9683808187013271  1.0000
  N   N8        1.0  0.1568463785324709  0.3139066078402519  0.468393221508542  1.0000
  N   N9        1.0  0.7637012885861978  0.5262799598277894  0.16046621824575172  1.0000
  N   N10       1.0  0.23629201638104988  0.4737443709460364  0.6604725867118264  1.0000
  Cl  Cl1       1.0  0.5123487675062035  0.024071409497814493  0.04460150364155881  1.0000
  Cl  Cl2       1.0  0.4876440118400252  0.9759124952672236  0.5445958479871537  1.0000
