data_image0
_chemical_formula_structural       Hf6H66C84S20N6O32
_chemical_formula_sum              "Hf6 H66 C84 S20 N6 O32"
_cell_length_a       11.36366512343812
_cell_length_b       20.476225910971234
_cell_length_c       33.476239947396316
_cell_angle_alpha    89.6629868078572
_cell_angle_beta     98.58412619599461
_cell_angle_gamma    89.90534520000386

_space_group_name_H-M_alt    "P 1"
_space_group_IT_number       1

loop_
  _space_group_symop_operation_xyz
  'x, y, z'

loop_
  _atom_site_type_symbol
  _atom_site_label
  _atom_site_symmetry_multiplicity
  _atom_site_fract_x
  _atom_site_fract_y
  _atom_site_fract_z
  _atom_site_occupancy
  Hf  Hf1       1.0  0.023210657070457292  0.08310675032021213  0.0441006560691903  1.0000
  Hf  Hf2       1.0  0.9645985902951041  0.8841528303528537  0.9636754550003062  1.0000
  Hf  Hf3       1.0  0.1645149422301415  0.9311562526229271  0.0468430408919005  1.0000
  Hf  Hf4       1.0  0.8269099572704449  0.03412268294352571  0.96042063529098  1.0000
  Hf  Hf5       1.0  0.13577777646983685  0.028163011610573108  0.9550805975002845  1.0000
  Hf  Hf6       1.0  0.850327015004588  0.9380890064453026  0.048915407760645714  1.0000
  H   H1        1.0  0.9908356470148119  0.1321423295071469  0.955259915770938  1.0000
  H   H2        1.0  0.21073168939513917  0.8974397214403143  0.9641916346608639  1.0000
  H   H3        1.0  0.7252864867935784  0.9123408220881618  0.9691366012395053  1.0000
  H   H4        1.0  0.03183582448431821  0.984699204374515  0.1068478597694664  1.0000
  H   H5        1.0  0.3473575460488547  0.979631905990331  0.0022395621730452978  1.0000
  H   H6        1.0  0.1434470882951544  0.8237094030942206  0.0959029799897877  1.0000
  H   H7        1.0  0.8693389245629463  0.8395191091568891  0.10351866733280701  1.0000
  H   H8        1.0  0.11345788444405969  0.08934889242010512  0.8831120431473849  1.0000
  H   H9        1.0  0.70825488527678  0.081977629956782  0.8843592287714372  1.0000
  H   H10       1.0  0.5986323647258444  0.06640909226376832  0.9777770845945926  1.0000
  H   H11       1.0  0.6041698847011289  0.9209544597013064  0.035421695349441486  1.0000
  H   H12       1.0  0.18456421600613032  0.9786442230146264  0.8844551909771996  1.0000
  H   H13       1.0  0.9575373552370507  0.8250126030934196  0.8907813784684181  1.0000
  H   H14       1.0  0.9968784691360497  0.11429700920163552  0.12174714811119713  1.0000
  H   H15       1.0  0.7216755092524991  0.020001302847362002  0.0885164904956994  1.0000
  H   H16       1.0  0.7296730105603686  0.13957730200048962  0.9166266565026151  1.0000
  H   H17       1.0  0.056155661857836506  0.7890893939841989  0.9227361227489226  1.0000
  H   H18       1.0  0.3932751971251918  0.9506531515322011  0.0605478154568146  1.0000
  H   H19       1.0  0.352538946973432  0.9880840260167788  0.9539799251191496  1.0000
  H   H20       1.0  0.6384293540037405  0.9973614031313149  0.0006734538022711935  1.0000
  H   H21       1.0  0.03783852916697578  0.8725111437242749  0.10344008411602351  1.0000
  H   H22       1.0  0.855580563138737  0.05119679394189801  0.0989230767736586  1.0000
  H   H23       1.0  0.7097365826468761  0.48652607185840685  0.0008525644066779053  1.0000
  H   H24       1.0  0.2784068862589351  0.47614109302413976  0.009429456113579697  1.0000
  H   H25       1.0  0.23869714103825856  0.030659082310919  0.5070224738094568  1.0000
  H   H26       1.0  0.8039646153957278  0.00018598068599120002  0.4900103126368762  1.0000
  H   H27       1.0  0.8501530788336356  0.9824673878375452  0.7016834754234651  1.0000
  H   H28       1.0  0.8529221992797245  0.89173348466214  0.4910379480803684  1.0000
  H   H29       1.0  0.6633087799440957  0.8758984495863585  0.5815835079769229  1.0000
  H   H30       1.0  0.005319737837545799  0.025372218779018907  0.6073831534102537  1.0000
  H   H31       1.0  0.39679347270725157  0.8164342981556203  0.6531127001992799  1.0000
  H   H32       1.0  0.09322141494092759  0.1047311521977363  0.5651875729807188  1.0000
  H   H33       1.0  0.36209812546378833  0.0492710181931457  0.6502853089720801  1.0000
  H   H34       1.0  0.16555547409923577  0.8776669251659399  0.5599275087894569  1.0000
  H   H35       1.0  0.18372972227818712  0.049565676856261114  0.2942358656239037  1.0000
  H   H36       1.0  0.1826926947123368  0.14348164388029264  0.5025521130715732  1.0000
  H   H37       1.0  0.3730489475841168  0.15582530737970765  0.41214198091257975  1.0000
  H   H38       1.0  0.0298770043688492  0.007142009654458502  0.388966358635301  1.0000
  H   H39       1.0  0.583909060916035  0.20274098660188866  0.3587848554530169  1.0000
  H   H40       1.0  0.9628654565148265  0.9256258720702775  0.4288771051392999  1.0000
  H   H41       1.0  0.6792196697365326  0.9751940906589384  0.34841465485249756  1.0000
  H   H42       1.0  0.8652284881911925  0.1500133437688476  0.4381786211010379  1.0000
  H   H43       1.0  0.8263303990158092  0.18426902703139802  0.08282441228602978  1.0000
  H   H44       1.0  0.642504862198976  0.4403828408316386  0.9333572384983668  1.0000
  H   H45       1.0  0.7482571995469129  0.25773648738707783  0.9416489964001754  1.0000
  H   H46       1.0  0.6285735561927054  0.3456093026128146  0.0669406010013418  1.0000
  H   H47       1.0  0.35585170976221997  0.5460478613122675  0.931792368759382  1.0000
  H   H48       1.0  0.305686348243519  0.7682621079914755  0.093312369018939  1.0000
  H   H49       1.0  0.36248845007916936  0.5965464850577149  0.0706701266372889  1.0000
  H   H50       1.0  0.2182389387611892  0.7204438006231443  0.9458031560415776  1.0000
  H   H51       1.0  0.6928416956568881  0.8082374613325599  0.0696814838920474  1.0000
  H   H52       1.0  0.5657219123550375  0.5767437792101475  0.9146720004882667  1.0000
  H   H53       1.0  0.7769186230725892  0.7043346781428994  0.9496977495581334  1.0000
  H   H54       1.0  0.5634198940976914  0.6317577635546814  0.059723142103273105  1.0000
  H   H55       1.0  0.27920772854972853  0.15876622956075442  0.9345128440564991  1.0000
  H   H56       1.0  0.39272636182417386  0.4250347999247027  0.0767639975952505  1.0000
  H   H57       1.0  0.22629223032203777  0.25282623826657163  0.06097300615965649  1.0000
  H   H58       1.0  0.41750602789715435  0.3350097639129502  0.9476187705550032  1.0000
  H   H59       1.0  0.8158429626796888  0.8634694757762136  0.7175204724101293  1.0000
  H   H60       1.0  0.5523712570920978  0.9975900056482345  0.8864970057048325  1.0000
  H   H61       1.0  0.5097856133320633  0.9903035505335186  0.7676798081041768  1.0000
  H   H62       1.0  0.8440358953957485  0.85661282342938  0.834486155488932  1.0000
  H   H63       1.0  0.1882759945338819  0.1632574641500284  0.1192286057818848  1.0000
  H   H64       1.0  0.5673706451758703  0.9766810538282655  0.269522432860427  1.0000
  H   H65       1.0  0.39068693957143097  0.96245052060597  0.15861590677835122  1.0000
  H   H66       1.0  0.3023009527775287  0.15593222610907287  0.2360953140875282  1.0000
  C   C1        1.0  0.20598776426611917  0.16767531725797372  0.0032244620199862024  1.0000
  C   C2        1.0  0.8058077133065067  0.176413603705555  0.0030633614702963823  1.0000
  C   C3        1.0  0.24650492354914633  0.04103061178562231  0.1134107185722328  1.0000
  C   C4        1.0  0.1673779497537993  0.7828449898616157  0.0098350337782946  1.0000
  C   C5        1.0  0.7868555942850576  0.7943001856538527  0.004942068998090598  1.0000
  C   C6        1.0  0.7601238101411595  0.9287685837090934  0.8877495191435116  1.0000
  C   C7        1.0  0.5602500616379729  0.423433545335101  0.003989496547717392  1.0000
  C   C8        1.0  0.4376433883410585  0.4201354728125608  0.0066607072068763035  1.0000
  C   C9        1.0  0.3734364994873403  0.47837977298015494  0.007709637708458687  1.0000
  C   C10       1.0  0.4276393290854443  0.5393373436766994  0.005718259184476393  1.0000
  C   C11       1.0  0.550366413757736  0.5425854604041407  0.0027770249414302917  1.0000
  C   C12       1.0  0.614471048917025  0.48431352222681306  0.0021107548956322865  1.0000
  C   C13       1.0  0.4213740083973292  0.0706431215099528  0.2829375732099066  1.0000
  C   C14       1.0  0.35651062050284565  0.09788411301052241  0.34221895206784586  1.0000
  C   C15       1.0  0.553642286391593  0.08294107744471552  0.3399065278098021  1.0000
  C   C16       1.0  0.617670379466105  0.9311427729172197  0.7144523000996656  1.0000
  C   C17       1.0  0.480785590639492  0.9366300377742222  0.658071206862985  1.0000
  C   C18       1.0  0.6767303789481858  0.9301056314005011  0.6518314399829565  1.0000
  C   C19       1.0  0.07458796870753298  0.0425760568560065  0.4660698263705427  1.0000
  C   C20       1.0  0.9505829117039467  0.03201664174816439  0.46163469860965023  1.0000
  C   C21       1.0  0.9004327516136782  0.005602516545096101  0.49379131999373277  1.0000
  C   C22       1.0  0.968009469649601  0.987563545454222  0.5307144610960677  1.0000
  C   C23       1.0  0.0921337052396254  0.9977635614271637  0.5352448155271858  1.0000
  C   C24       1.0  0.14234589652095048  0.0246202888698619  0.5031287695342712  1.0000
  C   C25       1.0  0.7674472551714402  0.9364073060165341  0.6252037251610716  1.0000
  C   C26       1.0  0.7419470257931521  0.9069149084147339  0.5871634037979876  1.0000
  C   C27       1.0  0.8115420591595991  0.9166888811056851  0.5567567420135333  1.0000
  C   C28       1.0  0.9053628678773221  0.9630782964691206  0.5634447544637311  1.0000
  C   C29       1.0  0.9332364082381089  0.9899961971854129  0.601955359938998  1.0000
  C   C30       1.0  0.8700702895559046  0.976130876738722  0.6338611880111102  1.0000
  C   C31       1.0  0.36025775423046724  0.9475522342666669  0.6346633523421945  1.0000
  C   C32       1.0  0.3182470247594509  0.011659915209165202  0.6304231967545136  1.0000
  C   C33       1.0  0.22716046831666148  0.0290755633600455  0.5991884059573067  1.0000
  C   C34       1.0  0.17537220825686717  0.9804677228386328  0.5724345846763796  1.0000
  C   C35       1.0  0.2098146450292688  0.9153712223863268  0.579620858660725  1.0000
  C   C36       1.0  0.30255713130592443  0.898034825646832  0.6101655863152899  1.0000
  C   C37       1.0  0.2657618840293168  0.09565220866512193  0.36900078010540943  1.0000
  C   C38       1.0  0.29443853982779444  0.12474324665619466  0.4071922502537788  1.0000
  C   C39       1.0  0.22886502233954786  0.11407115997456431  0.43854485764897794  1.0000
  C   C40       1.0  0.1348094537928972  0.0676216690212499  0.4327834532024397  1.0000
  C   C41       1.0  0.1024095709322808  0.04219078283134791  0.39409487248483543  1.0000
  C   C42       1.0  0.1614230724815116  0.05682623474833553  0.3611936259285003  1.0000
  C   C43       1.0  0.6727849803610794  0.0763660445020093  0.3643965831278919  1.0000
  C   C44       1.0  0.7209241586268861  0.013379146983957901  0.36828735927275613  1.0000
  C   C45       1.0  0.8150258304391257  0.9978583897707626  0.39870889693735734  1.0000
  C   C46       1.0  0.865254863942553  0.047788389318355905  0.4247465927943495  1.0000
  C   C47       1.0  0.8238734581720378  0.11171802505017334  0.4183141658449117  1.0000
  C   C48       1.0  0.7267886302073803  0.1271981507638031  0.388867494182449  1.0000
  C   C49       1.0  0.7454130070595467  0.24071574695624776  0.004921768438556682  1.0000
  C   C50       1.0  0.7216134756845561  0.2772782936920422  0.969227553335088  1.0000
  C   C51       1.0  0.6667666595143089  0.3385103368088097  0.9679996538387101  1.0000
  C   C52       1.0  0.6304849560535642  0.3623223907253533  0.003736079358837694  1.0000
  C   C53       1.0  0.6565929580513767  0.3262971181153135  0.039509453964527076  1.0000
  C   C54       1.0  0.7158002306007988  0.2658839595513243  0.0413871781244808  1.0000
  C   C55       1.0  0.35511005553748726  0.599701897621067  0.006247463382216296  1.0000
  C   C56       1.0  0.33058093696304514  0.6238989328769194  0.04308860052609019  1.0000
  C   C57       1.0  0.27383116488888953  0.6839572627221457  0.046292818321184405  1.0000
  C   C58       1.0  0.23206086545005894  0.7189822505354257  0.010479874190835401  1.0000
  C   C59       1.0  0.2518942079966777  0.6934967057712813  0.9733641797633014  1.0000
  C   C60       1.0  0.31430295900890565  0.6351836424764984  0.9706492354606553  1.0000
  C   C61       1.0  0.7256766469590729  0.7302836366336578  0.006523401953657508  1.0000
  C   C62       1.0  0.7298867885035278  0.6876464448553179  0.9739008270514163  1.0000
  C   C63       1.0  0.6742893380160736  0.6269876157624737  0.9709497756164113  1.0000
  C   C64       1.0  0.6126045262995419  0.6061788096350682  0.002557274321645795  1.0000
  C   C65       1.0  0.6096119493848562  0.6478191990429139  0.035137252186771696  1.0000
  C   C66       1.0  0.6622700261699491  0.7099337920819693  0.03791051715465699  1.0000
  C   C67       1.0  0.2688777820115362  0.231374340995771  0.0024181031253149975  1.0000
  C   C68       1.0  0.2694554804335567  0.2715536975563069  0.0363026672103786  1.0000
  C   C69       1.0  0.323924892876768  0.3326736950834289  0.03952070439271439  1.0000
  C   C70       1.0  0.3772573195896242  0.3559837917500063  0.006655610658526693  1.0000
  C   C71       1.0  0.37624842297766037  0.3164120276728469  0.9728526890700165  1.0000
  C   C72       1.0  0.3255966289737842  0.2538680463768871  0.9698738532239729  1.0000
  C   C73       1.0  0.6504395624329006  0.925261964141548  0.7586639858808653  1.0000
  C   C74       1.0  0.5849544436336701  0.9619509302626955  0.7828875254045542  1.0000
  C   C75       1.0  0.6138382568411557  0.9646576916916348  0.8249830175517516  1.0000
  C   C76       1.0  0.7099205402922448  0.9255772956033185  0.843836985515452  1.0000
  C   C77       1.0  0.770392753593164  0.8862080719906164  0.8196189957556612  1.0000
  C   C78       1.0  0.746093636982401  0.8856501734307473  0.7774546554914323  1.0000
  C   C79       1.0  0.3034883618402802  0.055206203488403126  0.1555942023882722  1.0000
  C   C80       1.0  0.3751020982779565  0.005747368040630401  0.1758834020917774  1.0000
  C   C81       1.0  0.42370001304115584  0.009159229700969699  0.2166709862014642  1.0000
  C   C82       1.0  0.3917911141037039  0.06359254229882078  0.2387013268341818  1.0000
  C   C83       1.0  0.3235580362051564  0.11386756553618944  0.2185815537116653  1.0000
  C   C84       1.0  0.2817027298776934  0.11267552612377332  0.1770515680812395  1.0000
  S   S1        1.0  0.7734967983818137  0.8678723301772993  0.5135034948059811  1.0000
  S   S2        1.0  0.9211088244512097  0.016008504899964707  0.6795041300757491  1.0000
  S   S3        1.0  0.18436175353873102  0.1121010017159279  0.5956708979498089  1.0000
  S   S4        1.0  0.3465949255593799  0.8153269887756452  0.6139669318288766  1.0000
  S   S5        1.0  0.2728496021216458  0.1603285560611951  0.48263007583307876  1.0000
  S   S6        1.0  0.1024635165612366  0.020761830939022702  0.3152787517738318  1.0000
  S   S7        1.0  0.8616398326729352  0.915381822302308  0.4029980888706248  1.0000
  S   S8        1.0  0.6839382783905278  0.20984959261159736  0.3855498261141436  1.0000
  S   S9        1.0  0.635171795219506  0.37781521571086796  0.9203541227441931  1.0000
  S   S10       1.0  0.7366820687783429  0.22593219132043177  0.08858902450312199  1.0000
  S   S11       1.0  0.2570524077859986  0.7085282981383969  0.09595921010773623  1.0000
  S   S12       1.0  0.3386916198916552  0.6098909594432059  0.9222103449004423  1.0000
  S   S13       1.0  0.684675527833221  0.5790980190597922  0.9273675794377639  1.0000
  S   S14       1.0  0.6384347229291265  0.7535072295062761  0.0809655092299622  1.0000
  S   S15       1.0  0.3245704890266268  0.37459706207991433  0.08553756714762532  1.0000
  S   S16       1.0  0.33894543329656557  0.21275645998318998  0.9248636426505855  1.0000
  S   S17       1.0  0.5247716690783548  0.019482195857797507  0.8481371247810046  1.0000
  S   S18       1.0  0.8342097831340494  0.8317758580374817  0.7537152422355932  1.0000
  S   S19       1.0  0.51053685092635  0.9426400847072645  0.237725915595064  1.0000
  S   S20       1.0  0.20581502048796804  0.1838475741694054  0.15815325650595474  1.0000
  N   N1        1.0  0.32979853687479727  0.08705714657966723  0.3022197408026344  1.0000
  N   N2        1.0  0.4696971266067108  0.10480817156677348  0.3606055996314765  1.0000
  N   N3        1.0  0.5336133815632778  0.061163968082389907  0.3014925845581757  1.0000
  N   N4        1.0  0.5022923457566434  0.939947407842432  0.698600722836865  1.0000
  N   N5        1.0  0.5632502518539012  0.9282057087638269  0.6337280933601335  1.0000
  N   N6        1.0  0.7072290215373229  0.9290207480796585  0.6923455452394123  1.0000
  O   O1        1.0  0.9467454311244268  0.10587641881924272  0.09613933594819461  1.0000
  O   O2        1.0  0.1377308925441199  0.16047629410646644  0.030265549997658105  1.0000
  O   O3        1.0  0.1801589678832798  0.08467037701230853  0.0940280109115434  1.0000
  O   O4        1.0  0.7600233873665658  0.13596459903060784  0.9759059964787015  1.0000
  O   O5        1.0  0.2618921315463822  0.984224376585985  0.0994115192526834  1.0000
  O   O6        1.0  0.8989314133147416  0.16641761515838033  0.028045474567740293  1.0000
  O   O7        1.0  0.2204867413824587  0.1241724417689056  0.9774830462086541  1.0000
  O   O8        1.0  0.1306102285630928  0.0190828238332656  0.019197549722520097  1.0000
  O   O9        1.0  0.9843862474011827  0.09343986940146463  0.9718903134286381  1.0000
  O   O10       1.0  0.0234358922406841  0.9837168486904777  0.07754331128979432  1.0000
  O   O11       1.0  0.8742601967027993  0.0291158485973355  0.020904894031914992  1.0000
  O   O12       1.0  0.6365286363988787  0.02475195076909391  0.9736171915819442  1.0000
  O   O13       1.0  0.33577498965532726  0.0116000115135506  0.9779573005034266  1.0000
  O   O14       1.0  0.967252014633523  0.97936711477076  0.9454538866949138  1.0000
  O   O15       1.0  0.15002507455810837  0.9178643037148007  0.977583082257695  1.0000
  O   O16       1.0  0.9918228041912087  0.899393598328821  0.022907907266045406  1.0000
  O   O17       1.0  0.8008765628860743  0.9322320690539954  0.9796684109926518  1.0000
  O   O18       1.0  0.34292842681421126  0.9313684250872004  0.03760568584503691  1.0000
  O   O19       1.0  0.20256107440346943  0.8235837568911183  0.0373490595122377  1.0000
  O   O20       1.0  0.08239119638646739  0.7923362939840003  0.9806995419462013  1.0000
  O   O21       1.0  0.8051765805112366  0.008913874508621702  0.09694009605544097  1.0000
  O   O22       1.0  0.8451342609117131  0.8044585254772163  0.9755604429850777  1.0000
  O   O23       1.0  0.1287130685328393  0.8696713771839341  0.10127653820965321  1.0000
  O   O24       1.0  0.9048424506270438  0.8820220727337473  0.10052357628094201  1.0000
  O   O25       1.0  0.6624519620499426  0.9559256345719122  0.03795264656574909  1.0000
  O   O26       1.0  0.7775400502793132  0.8365488661906042  0.0324517521712906  1.0000
  O   O27       1.0  0.030649733786795294  0.8310732228311936  0.9099257454455982  1.0000
  O   O28       1.0  0.7666560186922099  0.10202665489195795  0.905339891454581  1.0000
  O   O29       1.0  0.8268774559145342  0.8825693388172199  0.9036469692464237  1.0000
  O   O30       1.0  0.7353825416209216  0.9799533787998557  0.9063805135454714  1.0000
  O   O31       1.0  0.08149188810027398  0.09030698040810141  0.9083190821798013  1.0000
  O   O32       1.0  0.2149357624836199  0.9768420114530943  0.9130335307013838  1.0000
