data_image0
_chemical_formula_structural       Zn2H34C26N6O10
_chemical_formula_sum              "Zn2 H34 C26 N6 O10"
_cell_length_a       9.701425850807029
_cell_length_b       10.880716387241696
_cell_length_c       10.811560494494186
_cell_angle_alpha    87.32685042746007
_cell_angle_beta     91.8966013046868
_cell_angle_gamma    88.40414655264537

_space_group_name_H-M_alt    "P 1"
_space_group_IT_number       1

loop_
  _space_group_symop_operation_xyz
  'x, y, z'

loop_
  _atom_site_type_symbol
  _atom_site_label
  _atom_site_symmetry_multiplicity
  _atom_site_fract_x
  _atom_site_fract_y
  _atom_site_fract_z
  _atom_site_occupancy
  Zn  Zn1       1.0  0.6484785789919413  0.4983235365085007  0.5011712902458212  1.0000
  Zn  Zn2       1.0  0.34910722304913827  0.506305752316777  0.49200935837043136  1.0000
  H   H1        1.0  0.6243101990380211  0.9315578521717992  0.32613398712978636  1.0000
  H   H2        1.0  0.7388908927111187  0.06310366190359669  0.5242238432895405  1.0000
  H   H3        1.0  0.3937518160314397  0.10083997488730734  0.31432254447338437  1.0000
  H   H4        1.0  0.6028894329418649  0.9011458151820263  0.6938043053577516  1.0000
  H   H5        1.0  0.25622325515681144  0.9400410856897561  0.4819532933908377  1.0000
  H   H6        1.0  0.3702788568090085  0.06896602198436601  0.6820052818915627  1.0000
  H   H7        1.0  0.7213359954599311  0.4582237939433326  0.12199282952092719  1.0000
  H   H8        1.0  0.2938049273484253  0.5731440675794486  0.0810365107278059  1.0000
  H   H9        1.0  0.6722579726733002  0.6135661504083458  0.0881813803082352  1.0000
  H   H10       1.0  0.4203269681652628  0.683906023562528  0.10492739707505899  1.0000
  H   H11       1.0  0.7043045147451893  0.5660027625179465  0.8801921562521501  1.0000
  H   H12       1.0  0.0906997685960391  0.4446362373229035  0.3140047020506315  1.0000
  H   H13       1.0  0.4831515074233507  0.6913823400700563  0.8974712748522649  1.0000
  H   H14       1.0  0.6961745862462652  0.40612560013581583  0.9131809495751284  1.0000
  H   H15       1.0  0.32237686832991125  0.6267588219009637  0.8675396217357162  1.0000
  H   H16       1.0  0.5367078351215611  0.29993604968898063  0.09446225515937809  1.0000
  H   H17       1.0  0.3606819449360259  0.3415654436803023  0.11644669908903892  1.0000
  H   H18       1.0  0.46455319758572233  0.19040181254126048  0.9248815876641173  1.0000
  H   H19       1.0  0.4575472763622983  0.26081187300867725  0.7860512776320262  1.0000
  H   H20       1.0  0.23334020614088763  0.30796673337719227  0.9315064264580853  1.0000
  H   H21       1.0  0.23032802288103227  0.45838755357397776  0.9242604375506859  1.0000
  H   H22       1.0  0.1398933523069559  0.7047710708856554  0.3463526885015469  1.0000
  H   H23       1.0  0.8596778248373838  0.4945949317667979  0.3008481293709124  1.0000
  H   H24       1.0  0.2304592441261164  0.6016055237509474  0.27409745851694817  1.0000
  H   H25       1.0  0.7688859710272807  0.6903921183874216  0.3462122078644754  1.0000
  H   H26       1.0  0.9174702251389205  0.7146970641995336  0.2794488544225615  1.0000
  H   H27       1.0  0.24584281667045357  0.27537656965862567  0.5011353641606106  1.0000
  H   H28       1.0  0.9812998035068928  0.25615195765711  0.3986157813322108  1.0000
  H   H29       1.0  0.13541934949221  0.576078067628522  0.6684071531201923  1.0000
  H   H30       1.0  0.8979417459147283  0.5258212816034413  0.682440907641336  1.0000
  H   H31       1.0  0.09875617504627597  0.683227831112731  0.5423117908881281  1.0000
  H   H32       1.0  0.8648894756852882  0.6629736714042875  0.5890633551601921  1.0000
  H   H33       1.0  0.11204173558245858  0.36976319942404234  0.6392127901428494  1.0000
  H   H34       1.0  0.8749666927685595  0.3329731625375769  0.5999936737225084  1.0000
  C   C1        1.0  0.4970573221449968  0.4959057323054734  0.2579591480134411  1.0000
  C   C2        1.0  0.426973777369163  0.3767313172553414  0.9266171646097163  1.0000
  C   C3        1.0  0.0700769205360245  0.5289431836526786  0.3628036744404355  1.0000
  C   C4        1.0  0.911284750742382  0.5498267667843989  0.3699884203133905  1.0000
  C   C5        1.0  0.08404507200994968  0.37600139891792134  0.5392804418132185  1.0000
  C   C6        1.0  0.9241627190228454  0.3701554862763174  0.5161863880418807  1.0000
  C   C7        1.0  0.0771463640432586  0.5907445679822201  0.5799864365986381  1.0000
  C   C8        1.0  0.9210319813898094  0.5742197801008188  0.594426991839775  1.0000
  C   C9        1.0  0.5067531217765975  0.26045783293004376  0.5101613645256649  1.0000
  C   C10       1.0  0.4993934833583253  0.4999882354455209  0.7334504207289783  1.0000
  C   C11       1.0  0.4922830910075006  0.7403968705209605  0.49234012755004375  1.0000
  C   C12       1.0  0.5045762040524194  0.12439473677490297  0.5104447277748818  1.0000
  C   C13       1.0  0.6323365203899627  0.033573602448193185  0.5158680113988368  1.0000
  C   C14       1.0  0.4395176024562916  0.054119882851807674  0.39836261394825817  1.0000
  C   C15       1.0  0.5684244234754131  0.9640019006838967  0.4052322178170725  1.0000
  C   C16       1.0  0.4911488771549486  0.8765216071585937  0.4993730689542061  1.0000
  C   C17       1.0  0.5563823956745537  0.9469488701336812  0.6096585827903738  1.0000
  C   C18       1.0  0.3634140842403042  0.9677225461869623  0.49197234516043403  1.0000
  C   C19       1.0  0.42710543194471745  0.03732801251760518  0.603024522874982  1.0000
  C   C20       1.0  0.6452298434393029  0.5184718348496488  0.06967600110432669  1.0000
  C   C21       1.0  0.400426846401011  0.5968696135256905  0.0605203285025837  1.0000
  C   C22       1.0  0.646546995209988  0.4952064627217111  0.9302866201547246  1.0000
  C   C23       1.0  0.42064643288087217  0.6109190565953212  0.91965868299269  1.0000
  C   C24       1.0  0.4547120314901818  0.36975564047589415  0.0701855685840798  1.0000
  C   C25       1.0  0.5004233212807351  0.4943974822047819  0.11710390118491179  1.0000
  C   C26       1.0  0.4981698337230966  0.4963392988595599  0.8748856907402639  1.0000
  N   N1        1.0  0.1316841866940948  0.5001204881144544  0.49308079081163914  1.0000
  N   N2        1.0  0.8650801174280005  0.4987839417387576  0.4934291867111184  1.0000
  N   N3        1.0  0.49144784914644646  0.2681521425769375  0.8759607102793793  1.0000
  N   N4        1.0  0.278078574846603  0.3827252255173689  0.8902793821527836  1.0000
  N   N5        1.0  0.13283144503990477  0.628134726591284  0.2958707583662061  1.0000
  N   N6        1.0  0.8735949918606208  0.679833236063075  0.3576202520747884  1.0000
  O   O1        1.0  0.604737019928784  0.5293571198093757  0.3153211830143618  1.0000
  O   O2        1.0  0.8935482129837664  0.299338679657481  0.4144287791161715  1.0000
  O   O3        1.0  0.3847144152089541  0.4665693367010986  0.3090953265206622  1.0000
  O   O4        1.0  0.6155979399691205  0.313071252005308  0.48052081428083687  1.0000
  O   O5        1.0  0.39395239264628396  0.3166934864269847  0.5387264021176392  1.0000
  O   O6        1.0  0.6113941668811691  0.46740339200730563  0.68440438141063  1.0000
  O   O7        1.0  0.3885547462318826  0.5356301486203207  0.674450157507195  1.0000
  O   O8        1.0  0.6062914985823653  0.6842568988059907  0.5227615916065601  1.0000
  O   O9        1.0  0.38134398789508595  0.691004109457637  0.455116655215015  1.0000
  O   O10       1.0  0.14397692076731516  0.27955024450164245  0.4773745182137858  1.0000
