data_image0
_chemical_formula_structural       Cd8H128C148N20O44
_chemical_formula_sum              "Cd8 H128 C148 N20 O44"
_cell_length_a       16.705172967181248
_cell_length_b       18.476861404437077
_cell_length_c       19.17604087400416
_cell_angle_alpha    89.99992753246349
_cell_angle_beta     90.00000114462432
_cell_angle_gamma    107.12286344278142

_space_group_name_H-M_alt    "P 1"
_space_group_IT_number       1

loop_
  _space_group_symop_operation_xyz
  'x, y, z'

loop_
  _atom_site_type_symbol
  _atom_site_label
  _atom_site_symmetry_multiplicity
  _atom_site_fract_x
  _atom_site_fract_y
  _atom_site_fract_z
  _atom_site_occupancy
  Cd  Cd1       1.0  0.8731111994852088  0.7225120079223687  0.26724242694759687  1.0000
  Cd  Cd2       1.0  0.1268887332192748  0.77748801043483  0.767242363987343  1.0000
  Cd  Cd3       1.0  0.12688870455622953  0.2774874057093513  0.7327574482094692  1.0000
  Cd  Cd4       1.0  0.873111539681787  0.22251253583532823  0.2327575111690409  1.0000
  Cd  Cd5       1.0  0.05325010583606381  0.7393142124618778  0.3778580476227306  1.0000
  Cd  Cd6       1.0  0.9467497778328349  0.7606856477197823  0.8778580197720915  1.0000
  Cd  Cd7       1.0  0.9467499826349625  0.26068576748831157  0.6221428705021526  1.0000
  Cd  Cd8       1.0  0.05325031063830473  0.23931433223077658  0.12214237686871603  1.0000
  H   H1        1.0  0.8437741703911498  0.7424981128687449  0.05498848644871402  1.0000
  H   H2        1.0  0.15622627058906613  0.7575016426739368  0.554988448381579  1.0000
  H   H3        1.0  0.15622670112390583  0.25750243339225426  0.9450113887076699  1.0000
  H   H4        1.0  0.843774416496174  0.24249833726784692  0.4450114267751531  1.0000
  H   H5        1.0  0.47951994611003085  0.715554621849698  0.9301034469858466  1.0000
  H   H6        1.0  0.5204817102402471  0.7844451635947467  0.4301049925919145  1.0000
  H   H7        1.0  0.5204801423613359  0.28444535810161403  0.06989590668680282  1.0000
  H   H8        1.0  0.479518607985483  0.2155536837089755  0.5698943610814242  1.0000
  H   H9        1.0  0.10601101498359358  0.7734356858725917  0.035653917322335416  1.0000
  H   H10       1.0  0.8939890203835147  0.726564663646393  0.5356534086518181  1.0000
  H   H11       1.0  0.8939884748734384  0.2265642940867565  0.9643470008025407  1.0000
  H   H12       1.0  0.10601125251755412  0.27343588262376545  0.4643464665045658  1.0000
  H   H13       1.0  0.2556940617354542  0.8045997720413427  0.07215413474758493  1.0000
  H   H14       1.0  0.7443063263108272  0.6954016579223323  0.5721536614062828  1.0000
  H   H15       1.0  0.7443059814111308  0.19540190687602185  0.9278462618921852  1.0000
  H   H16       1.0  0.2556947296340367  0.3045994546578896  0.4278462137497599  1.0000
  H   H17       1.0  0.29105401128828123  0.8013212700996136  0.19719611083278477  1.0000
  H   H18       1.0  0.7089463213272535  0.6986799810594918  0.6971956328633625  1.0000
  H   H19       1.0  0.7089456629986798  0.19867927617931977  0.8028042858076747  1.0000
  H   H20       1.0  0.29105491904742553  0.30132169783994567  0.3028042422923321  1.0000
  H   H21       1.0  0.9723384798047263  0.7427810077919619  0.05435071239497801  1.0000
  H   H22       1.0  0.027661961458335414  0.7572187486630855  0.5543501508957931  1.0000
  H   H23       1.0  0.027662022850591914  0.25721840583022987  0.9456496842461778  1.0000
  H   H24       1.0  0.9723385411970964  0.24278066495948286  0.44564972426127986  1.0000
  H   H25       1.0  0.7384335843026976  0.7006688096826398  0.990748406284041  1.0000
  H   H26       1.0  0.26156643375204425  0.7993314553899611  0.49074836466912336  1.0000
  H   H27       1.0  0.2615653069405752  0.2993311702865996  0.009251468872676603  1.0000
  H   H28       1.0  0.7384336547189748  0.2006685245602284  0.5092525534557526  1.0000
  H   H29       1.0  0.6114827239690827  0.7064155661339983  0.9280060447715927  1.0000
  H   H30       1.0  0.3885181049427332  0.7935853549667586  0.4280070553957956  1.0000
  H   H31       1.0  0.38851713474803506  0.2935855464652732  0.07199278741628491  1.0000
  H   H32       1.0  0.6114817537742708  0.20641575763214354  0.5719922982761576  1.0000
  H   H33       1.0  0.482832412927607  0.7040157703588436  0.12312822377831624  1.0000
  H   H34       1.0  0.5171682276006067  0.7959827550986847  0.6231291881945611  1.0000
  H   H35       1.0  0.5171677208682012  0.29598251062528663  0.8768716513794462  1.0000
  H   H36       1.0  0.48283425532694924  0.20401722481676646  0.3768691225099517  1.0000
  H   H37       1.0  0.6117388719082512  0.6986382257243448  0.18622519425632333  1.0000
  H   H38       1.0  0.3882613264653115  0.8013607758363932  0.6862251068480846  1.0000
  H   H39       1.0  0.3882612618875498  0.30136005525978504  0.813774680901439  1.0000
  H   H40       1.0  0.6117411564622444  0.19863920407905772  0.31377320385642804  1.0000
  H   H41       1.0  0.43589007072499447  0.8012976125562901  0.8816121543362315  1.0000
  H   H42       1.0  0.5641104552181131  0.6987005432807577  0.38161276230260915  1.0000
  H   H43       1.0  0.5641102475005012  0.19870123474669302  0.11838824230526514  1.0000
  H   H44       1.0  0.4358912446652922  0.3012988703235068  0.6183871128544781  1.0000
  H   H45       1.0  0.3323681304285345  0.8227226528941857  0.7958144508898927  1.0000
  H   H46       1.0  0.6676328024080719  0.6772767582682492  0.2958150868260746  1.0000
  H   H47       1.0  0.6676323722267766  0.17727676072801304  0.20418594575126295  1.0000
  H   H48       1.0  0.332369311659278  0.32272208900690214  0.7041858312995188  1.0000
  H   H49       1.0  0.13139452339710542  0.6992419524981273  0.9138733048588534  1.0000
  H   H50       1.0  0.8686057131660689  0.8007589888221034  0.413872750846025  1.0000
  H   H51       1.0  0.8686053353196639  0.3007591601000215  0.08612709178125752  1.0000
  H   H52       1.0  0.13139515834910037  0.19924155743927235  0.5861266028262835  1.0000
  H   H53       1.0  0.2263997500847026  0.6700410198134961  0.0043206105894953006  1.0000
  H   H54       1.0  0.7736005289265294  0.8299582418625066  0.5043210166680581  1.0000
  H   H55       1.0  0.7735997397724432  0.3299589601462217  0.9956797860513049  1.0000
  H   H56       1.0  0.22640034258852637  0.17004230439849274  0.49567885848833293  1.0000
  H   H57       1.0  0.2958185823376596  0.7519474667835767  0.3039694845180634  1.0000
  H   H58       1.0  0.7041823015594345  0.7480536316847833  0.8039694677446863  1.0000
  H   H59       1.0  0.7041832113263452  0.24805591107313765  0.6960309121206834  1.0000
  H   H60       1.0  0.29581893881524474  0.251948047214654  0.19603040741100847  1.0000
  H   H61       1.0  0.25706356282458387  0.7829184564443282  0.38237668239433026  1.0000
  H   H62       1.0  0.7429369174551895  0.7170813972666964  0.882376704076876  1.0000
  H   H63       1.0  0.7429372633658033  0.21708378878310705  0.6176237142450989  1.0000
  H   H64       1.0  0.25706275683188556  0.2829191490126065  0.11762317107950084  1.0000
  H   H65       1.0  0.2934915098232551  0.8486605761505646  0.31197003426330383  1.0000
  H   H66       1.0  0.7065099691414147  0.6513405108688701  0.8119690924888732  1.0000
  H   H67       1.0  0.7065077049549798  0.15134223542354164  0.68803036237577  1.0000
  H   H68       1.0  0.2934918698475996  0.34866116802253805  0.18802921821459512  1.0000
  H   H69       1.0  0.8308772829219888  0.45375995712108624  0.3278703293596409  1.0000
  H   H70       1.0  0.16912310358242166  0.0462404147350526  0.8278710706049852  1.0000
  H   H71       1.0  0.1691228055492644  0.5462400228298492  0.6721295457970841  1.0000
  H   H72       1.0  0.8308763862747239  0.9537595652246654  0.17212932603580816  1.0000
  H   H73       1.0  0.8379906052569196  0.3492099479346109  0.4070066450090337  1.0000
  H   H74       1.0  0.16200836450894224  0.150789744459594  0.9070067371624475  1.0000
  H   H75       1.0  0.16200810155654471  0.6507894657154055  0.5929932301480181  1.0000
  H   H76       1.0  0.8379905267342167  0.8492102355092683  0.09299365947833853  1.0000
  H   H77       1.0  0.9169905539713099  0.508071012292703  0.57532752925583  1.0000
  H   H78       1.0  0.08300868076463541  0.9919287141841411  0.07532777109973673  1.0000
  H   H79       1.0  0.083008382596404  0.4919272687093612  0.4246728673860007  1.0000
  H   H80       1.0  0.9169908090925176  0.0080712657755768  0.9246726255410637  1.0000
  H   H81       1.0  0.9109134785142031  0.6132700114549577  0.4951226923436354  1.0000
  H   H82       1.0  0.08908695178540436  0.8867296810336074  0.9951235384750561  1.0000
  H   H83       1.0  0.08908743832516562  0.38672883583849693  0.5048782257819442  1.0000
  H   H84       1.0  0.9109125380717416  0.1132702989261105  0.0048768581657441  1.0000
  H   H85       1.0  0.9225928977419854  0.8672510828030225  0.5308483688378587  1.0000
  H   H86       1.0  0.0774067708956353  0.6327481409487705  0.0308485270585805  1.0000
  H   H87       1.0  0.0774085723868225  0.1327494634480857  0.4691525492866901  1.0000
  H   H88       1.0  0.9225907840142894  0.367249573752382  0.9691518695835842  1.0000
  H   H89       1.0  0.11793828735750367  0.024364471886919106  0.4154001228753544  1.0000
  H   H90       1.0  0.8820598956440763  0.47563464219594215  0.9153987888077566  1.0000
  H   H91       1.0  0.8820618011134015  0.9756355080629009  0.584601316733604  1.0000
  H   H92       1.0  0.11793784369612591  0.524363638825918  0.08459952189775073  1.0000
  H   H93       1.0  0.08223207598273087  0.9197791632101732  0.2646473948542934  1.0000
  H   H94       1.0  0.9177674436880137  0.5802214251863731  0.7646470650493031  1.0000
  H   H95       1.0  0.9177677827339323  0.08022194938760663  0.7353535232699003  1.0000
  H   H96       1.0  0.08223163198507427  0.41977912110208865  0.23535281010706657  1.0000
  H   H97       1.0  0.05639142728162489  0.9744064644749104  0.19630843731465575  1.0000
  H   H98       1.0  0.9436075240694564  0.5255942216520922  0.6963086960634757  1.0000
  H   H99       1.0  0.9436084314351445  0.0255946481232385  0.8036919593254555  1.0000
  H   H100      1.0  0.056392150217504905  0.47440632462684107  0.3036917005769767  1.0000
  H   H101      1.0  0.022308904666644654  0.8732471482924711  0.19225187403938554  1.0000
  H   H102      1.0  0.9776906470968356  0.626753543626542  0.6922514885649849  1.0000
  H   H103      1.0  0.9776909540500114  0.12675396430530136  0.8077490440848012  1.0000
  H   H104      1.0  0.022308842760431026  0.3732464363335454  0.30774838659174014  1.0000
  H   H105      1.0  0.0633318932190292  0.061555750704769714  0.3093437967805103  1.0000
  H   H106      1.0  0.9366673042702729  0.4384446476621379  0.8093440734868624  1.0000
  H   H107      1.0  0.9366665838399584  0.9384447955924671  0.6906565998599279  1.0000
  H   H108      1.0  0.06333117278871475  0.5615558986350991  0.19065632315358275  1.0000
  H   H109      1.0  0.9779578403453396  0.09985062942089941  0.29881918992185774  1.0000
  H   H110      1.0  0.02204117737977646  0.4001492176768694  0.7988189755265795  1.0000
  H   H111      1.0  0.022040452283832286  0.9001493505571221  0.7011812067189285  1.0000
  H   H112      1.0  0.9779577138633826  0.5998507622919932  0.20118142111421386  1.0000
  H   H113      1.0  0.0203355665699263  0.06746150841745191  0.224728307740925  1.0000
  H   H114      1.0  0.9796630698151815  0.43253901095506114  0.7247285924151187  1.0000
  H   H115      1.0  0.9796629104890613  0.932539037879785  0.7752720888995129  1.0000
  H   H116      1.0  0.02033600585779286  0.567461535333024  0.27527180422532643  1.0000
  H   H117      1.0  0.8284027777057476  0.9239720805386971  0.3343880721590154  1.0000
  H   H118      1.0  0.17159634218964476  0.5760272754936652  0.8343872126754875  1.0000
  H   H119      1.0  0.1715961135374116  0.0760278994301729  0.6656123244817779  1.0000
  H   H120      1.0  0.8284029632378065  0.42397213814720663  0.16561266248157125  1.0000
  H   H121      1.0  0.8394969292745316  0.020348486438912506  0.31003896710090834  1.0000
  H   H122      1.0  0.1605020834769135  0.4796513446151281  0.8100386582353921  1.0000
  H   H123      1.0  0.16050196196862748  0.97965149352995  0.6899614295398779  1.0000
  H   H124      1.0  0.8394966233364372  0.5203480690345188  0.18996173840574226  1.0000
  H   H125      1.0  0.8907370260901218  0.9999341301277982  0.3868576684222874  1.0000
  H   H126      1.0  0.10926225497532736  0.5000657171941045  0.8868574219339395  1.0000
  H   H127      1.0  0.10926186515303729  6.58498410715e-05  0.6131427282185058  1.0000
  H   H128      1.0  0.8907374193116337  0.49993482908482884  0.11314297470651276  1.0000
  C   C1        1.0  0.1625965214556758  0.7709377670658172  0.23126155413985577  1.0000
  C   C2        1.0  0.8374031974447645  0.7290634353903658  0.7312610414138236  1.0000
  C   C3        1.0  0.8374023697874832  0.2290622129030524  0.7687388425009377  1.0000
  C   C4        1.0  0.16259744431592085  0.27093824351821655  0.268738833741871  1.0000
  C   C5        1.0  0.07573180517351832  0.7537676575466465  0.21314520695428038  1.0000
  C   C6        1.0  0.9242679217579731  0.7462335708155123  0.71314415335727  1.0000
  C   C7        1.0  0.924267639358966  0.24623402137950026  0.7868557111695583  1.0000
  C   C8        1.0  0.07573276532726682  0.25376640912627124  0.28685572179946217  1.0000
  C   C9        1.0  0.056777109042023745  0.7552489314073583  0.1404842218367506  1.0000
  C   C10       1.0  0.9432228798542326  0.7447512682092494  0.6404831703845916  1.0000
  C   C11       1.0  0.9432223808151293  0.2447510485523595  0.8595161748040496  1.0000
  C   C12       1.0  0.056777622801313016  0.25524814541368823  0.35951618328840607  1.0000
  C   C13       1.0  0.12287869484808317  0.7737440341755076  0.09066318676489973  1.0000
  C   C14       1.0  0.8771213161336887  0.7262562366829927  0.5906621566854968  1.0000
  C   C15       1.0  0.8771213936229357  0.22625594577468183  0.9093377313599834  1.0000
  C   C16       1.0  0.12287895676749369  0.2737443095875349  0.4093371969868046  1.0000
  C   C17       1.0  0.20562147033457728  0.7907528036173302  0.11061724390388862  1.0000
  C   C18       1.0  0.7943787162313143  0.7092480050265665  0.6106167545719218  1.0000
  C   C19       1.0  0.7943788025663777  0.20924774265245116  0.8893831527365706  1.0000
  C   C20       1.0  0.2056223397135497  0.29075310755365535  0.389383120584121  1.0000
  C   C21       1.0  0.22569012942115307  0.7890268627083826  0.18173672224516227  1.0000
  C   C22       1.0  0.7743102100474885  0.710974410556979  0.6817362304504898  1.0000
  C   C23       1.0  0.7743095448656945  0.21097368357017393  0.8182641958793726  1.0000
  C   C24       1.0  0.22569066146756003  0.28902613570402036  0.31826364470590124  1.0000
  C   C25       1.0  0.9741869478701941  0.7405235790089081  0.11153352890610083  1.0000
  C   C26       1.0  0.02581425108768804  0.7594766619872717  0.6115329646210983  1.0000
  C   C27       1.0  0.02581295617113002  0.25947583462243534  0.8884668677350479  1.0000
  C   C28       1.0  0.9741872190413545  0.2405238842645758  0.38846691053529275  1.0000
  C   C29       1.0  0.7575593007495341  0.6996814626265079  0.13621747923515676  1.0000
  C   C30       1.0  0.242441288651932  0.800318743081512  0.6362173904975708  1.0000
  C   C31       1.0  0.24244060329202446  0.3003179510055817  0.8637818744378339  1.0000
  C   C32       1.0  0.757559443757742  0.19967953789309692  0.36378300614427433  1.0000
  C   C33       1.0  0.6839042371775719  0.7001243504515529  0.09344326827250882  1.0000
  C   C34       1.0  0.31609637118545925  0.7998759164213496  0.5934437028726124  1.0000
  C   C35       1.0  0.3160950682501067  0.2998750631900649  0.9065555639163921  1.0000
  C   C36       1.0  0.6839050989436969  0.20012462983087434  0.4065556507997031  1.0000
  C   C37       1.0  0.6830146030966662  0.701489818806529  0.020261842276568107  1.0000
  C   C38       1.0  0.3169866363214738  0.7985105527034692  0.5202622785574392  1.0000
  C   C39       1.0  0.31698626841850336  0.298510727454847  0.9797375113957403  1.0000
  C   C40       1.0  0.6830144196233974  0.20149055987674563  0.47973759659860366  1.0000
  C   C41       1.0  0.6116770408403553  0.7048156626875938  0.984960972324892  1.0000
  C   C42       1.0  0.3883237628235036  0.7951851769701008  0.4849619809948608  1.0000
  C   C43       1.0  0.3883220348329671  0.295184883601614  0.015037859863326708  1.0000
  C   C44       1.0  0.6116778917354607  0.20481593560133862  0.5150373726771067  1.0000
  C   C45       1.0  0.5394384093882607  0.7067735321365661  0.021670366270342408  1.0000
  C   C46       1.0  0.46056223079137487  0.7932268373680744  0.5216713330385474  1.0000
  C   C47       1.0  0.460561264898928  0.2932270141431134  0.9783289874019588  1.0000
  C   C48       1.0  0.5394386407237945  0.2067737088933015  0.47832802063376095  1.0000
  C   C49       1.0  0.5390274757616709  0.7035448841262452  0.09490446328251073  1.0000
  C   C50       1.0  0.46097354613768  0.7964548143284705  0.5949054261216561  1.0000
  C   C51       1.0  0.4609730268938748  0.29645452949669954  0.905094890390487  1.0000
  C   C52       1.0  0.5390279239914761  0.20354573192375372  0.40509392755065937  1.0000
  C   C53       1.0  0.6108461334923732  0.7002919402904766  0.1294819891997676  1.0000
  C   C54       1.0  0.38915409003529083  0.7997071424105616  0.6294819038238303  1.0000
  C   C55       1.0  0.38915418473335706  0.2997069070132455  0.8705173644735713  1.0000
  C   C56       1.0  0.6108471956642845  0.2002928375231861  0.3705164068806682  1.0000
  C   C57       1.0  0.3939247170926097  0.7161257450981184  0.005598219978793402  1.0000
  C   C58       1.0  0.606076389720137  0.7838723820926888  0.505600765199276  1.0000
  C   C59       1.0  0.6060756011332414  0.28387310220597345  0.9944006122104629  1.0000
  C   C60       1.0  0.39392627763629656  0.21612816413899338  0.4944017173775138  1.0000
  C   C61       1.0  0.3385795772025801  0.7309980995949631  0.9491735875718137  1.0000
  C   C62       1.0  0.661420135746731  0.76899939332143  0.44917515452365836  1.0000
  C   C63       1.0  0.6614199126546864  0.26900188036513134  0.05082628758490421  1.0000
  C   C64       1.0  0.33858036690892857  0.23100002030188455  0.5508236776652569  1.0000
  C   C65       1.0  0.36901257965630657  0.7750728217119802  0.8901149676244065  1.0000
  C   C66       1.0  0.6309881722719055  0.7249241893188485  0.3901155448074434  1.0000
  C   C67       1.0  0.6309877385691961  0.22492602559100314  0.10988542901709053  1.0000
  C   C68       1.0  0.3690137573659769  0.2750740916382028  0.6098838088662575  1.0000
  C   C69       1.0  0.3120054026805477  0.7885436969595007  0.8424700875764586  1.0000
  C   C70       1.0  0.6879949108599989  0.7114556474973315  0.34246963923212104  1.0000
  C   C71       1.0  0.6879940871764845  0.21145628299984054  0.15753083054841716  1.0000
  C   C72       1.0  0.3120061904095337  0.2885437661164545  0.6575297144408838  1.0000
  C   C73       1.0  0.19932920813006666  0.719070117889551  0.9080065974955644  1.0000
  C   C74       1.0  0.8006710763583482  0.7809291328529896  0.4080060664493247  1.0000
  C   C75       1.0  0.800670880341066  0.28092986206100806  0.09199379914524293  1.0000
  C   C76       1.0  0.1993296107268918  0.2190708470887941  0.5919938087074004  1.0000
  C   C77       1.0  0.2518461447301449  0.7031324106954956  0.9581718115576764  1.0000
  C   C78       1.0  0.7481549458881888  0.7968656356551381  0.4581728245944064  1.0000
  C   C79       1.0  0.7481543579252873  0.2968670029270726  0.04182806359939661  1.0000
  C   C80       1.0  0.2518463398110384  0.203134344277494  0.5418270505623327  1.0000
  C   C81       1.0  0.2614219027832975  0.7893127724501527  0.32570439632905857  1.0000
  C   C82       1.0  0.7385781884350777  0.7106877286284999  0.8257039042462041  1.0000
  C   C83       1.0  0.7385783247929893  0.21068947278605785  0.674296521794446  1.0000
  C   C84       1.0  0.2614216702819263  0.28931338397039513  0.17429544942574893  1.0000
  C   C85       1.0  0.871378208746883  0.5398447618600601  0.4065335430240183  1.0000
  C   C86       1.0  0.1286228594380462  0.9601550572980317  0.9065343003305559  1.0000
  C   C87       1.0  0.1286228925224151  0.46015465175297987  0.5934668536171445  1.0000
  C   C88       1.0  0.8713766304190996  0.039844922661686204  0.09346609631024452  1.0000
  C   C89       1.0  0.8493369814253953  0.4650668218285503  0.3822261725608983  1.0000
  C   C90       1.0  0.15066319655341684  0.0349329059818757  0.8822269272642561  1.0000
  C   C91       1.0  0.1506635212300367  0.5349325917940179  0.6177737025961749  1.0000
  C   C92       1.0  0.8493350960757552  0.9650670739961453  0.11777346937653023  1.0000
  C   C93       1.0  0.8530732155419825  0.4067599148781157  0.42682665541993003  1.0000
  C   C94       1.0  0.1469269426656865  0.09323974915599115  0.9268268174770146  1.0000
  C   C95       1.0  0.14692728711344227  0.5932394987444526  0.5731732197371429  1.0000
  C   C96       1.0  0.8530719485774725  0.9067602308128787  0.0731735791637789  1.0000
  C   C97       1.0  0.8777619719762485  0.42190803571747193  0.4965850500705643  1.0000
  C   C98       1.0  0.1222375566936265  0.07809152857393542  0.9965857516420799  1.0000
  C   C99       1.0  0.12223834624948181  0.5780908115862503  0.5034143036027745  1.0000
  C   C100      1.0  0.8777613345495325  0.9219084513949272  0.0034146449987134007  1.0000
  C   C101      1.0  0.8972766933295659  0.4966095606197386  0.521284055100516  1.0000
  C   C102      1.0  0.1027236446538282  0.0033906833221025003  0.021284892987409904  1.0000
  C   C103      1.0  0.10272380932575237  0.5033898530024531  0.47871634154063986  1.0000
  C   C104      1.0  0.897275246589338  0.9966092966467599  0.9787155036533834  1.0000
  C   C105      1.0  0.8943484865883279  0.5550025362220339  0.47660587106854996  1.0000
  C   C106      1.0  0.10565176748993825  0.9449966164256056  0.9766066464482112  1.0000
  C   C107      1.0  0.10565243025115481  0.4449963110717904  0.5233945255729469  1.0000
  C   C108      1.0  0.8943469393234125  0.055002797224048515  0.023393750192923307  1.0000
  C   C109      1.0  0.8732445563155622  0.6031646690985114  0.3573570343718871  1.0000
  C   C110      1.0  0.12675593505528585  0.8968352203893063  0.8573573473691314  1.0000
  C   C111      1.0  0.12675672938355118  0.39683531083375106  0.6426433622689275  1.0000
  C   C112      1.0  0.8732427717581713  0.10316419326071723  0.14264252778792752  1.0000
  C   C113      1.0  0.8891250928113479  0.3609851690461242  0.5434675489189689  1.0000
  C   C114      1.0  0.1108738536804097  0.1390144768734984  0.04346822158015581  1.0000
  C   C115      1.0  0.11087384375659337  0.6390131119566861  0.4565318047547039  1.0000
  C   C116      1.0  0.8891250375626355  0.8609855030949946  0.9565326965447131  1.0000
  C   C117      1.0  0.022259898841667805  0.9396153630504216  0.46935908605443916  1.0000
  C   C118      1.0  0.9777393909756994  0.5603826673312967  0.969358781507552  1.0000
  C   C119      1.0  0.9777404193840622  0.06038348425330042  0.5306402676188997  1.0000
  C   C120      1.0  0.022258578118972153  0.4396144810433499  0.030639007714569302  1.0000
  C   C121      1.0  0.9558296668631243  0.9256315905122817  0.5172657592390097  1.0000
  C   C122      1.0  0.04416940918162033  0.5743676526711498  0.017265988052294304  1.0000
  C   C123      1.0  0.044169822994256015  0.07436838944817482  0.48273359443362557  1.0000
  C   C124      1.0  0.9558295273865551  0.4256306283324066  0.9827323226532274  1.0000
  C   C125      1.0  0.06641981211154051  0.014520290650061402  0.4525678631279819  1.0000
  C   C126      1.0  0.933578538843271  0.4854793366030281  0.9525675609437062  1.0000
  C   C127      1.0  0.9335805061141896  0.985478556653668  0.547431490545357  1.0000
  C   C128      1.0  0.066418786312518  0.5145195107464533  0.04743179272960421  1.0000
  C   C129      1.0  0.04410864653252845  0.8749269189160958  0.43502826436309777  1.0000
  C   C130      1.0  0.9558910273632434  0.6250722931956858  0.9350278805490008  1.0000
  C   C131      1.0  0.9558920405524771  0.125073061024942  0.5649726537617923  1.0000
  C   C132      1.0  0.044108093634399416  0.37492655412596326  0.06497199460840623  1.0000
  C   C133      1.0  0.9544751232019452  0.9176636395752525  0.26633336194721835  1.0000
  C   C134      1.0  0.045523612677499214  0.5823363801000028  0.7663335354908727  1.0000
  C   C135      1.0  0.045523768041213906  0.08233634039361701  0.7336670346935749  1.0000
  C   C136      1.0  0.9544754629953544  0.4176641661877057  0.2336673826336552  1.0000
  C   C137      1.0  0.03348555036415506  0.9222332425975498  0.2267761761914785  1.0000
  C   C138      1.0  0.9665133874806883  0.5777673999619566  0.7267763717322568  1.0000
  C   C139      1.0  0.9665137097386349  0.0777678700097511  0.7732242204486257  1.0000
  C   C140      1.0  0.033485688192286006  0.42223314632612846  0.2732240249081955  1.0000
  C   C141      1.0  0.005316778800839506  0.056502234349615314  0.280145384317848  1.0000
  C   C142      1.0  0.9946822472022203  0.4434976394505341  0.780145655897279  1.0000
  C   C143      1.0  0.9946822968721349  0.9434983119384698  0.7198550123225972  1.0000
  C   C144      1.0  0.005316644040938532  0.5565023405183355  0.21985474074351433  1.0000
  C   C145      1.0  0.8709389477452232  0.9816592589646833  0.3333080438422585  1.0000
  C   C146      1.0  0.12906017262881164  0.5183400986116525  0.8333077754241318  1.0000
  C   C147      1.0  0.12905994349793556  0.018340721004186405  0.6666923527985348  1.0000
  C   C148      1.0  0.8709393172283342  0.48165988134806537  0.16669262121666154  1.0000
  N   N1        1.0  0.9034360784033025  0.7250821669364315  0.14569804559292984  1.0000
  N   N2        1.0  0.09656390818157244  0.7749180252242953  0.6456974637415342  1.0000
  N   N3        1.0  0.09656341145384319  0.2749178130232792  0.8543023510478637  1.0000
  N   N4        1.0  0.9034367789036678  0.22508195471748857  0.3543024114151977  1.0000
  N   N5        1.0  0.833780646941733  0.7176604782235786  0.10469427790643952  1.0000
  N   N6        1.0  0.16622037061804926  0.7823392062328622  0.6046942097322089  1.0000
  N   N7        1.0  0.16622004014362807  0.2823395017185818  0.8953050757662101  1.0000
  N   N8        1.0  0.8337807306513697  0.21766020738055408  0.3953056654248642  1.0000
  N   N9        1.0  0.4710580142937175  0.7130532692500753  0.9825955142697185  1.0000
  N   N10       1.0  0.5289438032170254  0.7869470074529661  0.4825960140082658  1.0000
  N   N11       1.0  0.5289422586073514  0.28694727702008294  0.01740436088666541  1.0000
  N   N12       1.0  0.47105766691247897  0.21305353880037364  0.5174017752118163  1.0000
  N   N13       1.0  0.22889396783872232  0.7606037649315169  0.850863911593173  1.0000
  N   N14       1.0  0.7711065264104561  0.7393961338410124  0.3508644736308143  1.0000
  N   N15       1.0  0.7711063050623463  0.23939678133864106  0.14913596356320374  1.0000
  N   N16       1.0  0.22889439042891976  0.2606027134524426  0.649136444494765  1.0000
  N   N17       1.0  0.9439311841811601  0.9825246459554581  0.29107669885521403  1.0000
  N   N18       1.0  0.056067540729735355  0.5174753383382226  0.7910764301901027  1.0000
  N   N19       1.0  0.05606710844801199  0.017475334022556407  0.7089236977855722  1.0000
  N   N20       1.0  0.9439315349433528  0.4825252079502394  0.2089234449662669  1.0000
  O   O1        1.0  0.17703218265352666  0.7674931253533547  0.30173804361022155  1.0000
  O   O2        1.0  0.8229681036189973  0.7325079763157447  0.8017370049425596  1.0000
  O   O3        1.0  0.8229680902474215  0.23250742091642718  0.6982623530302379  1.0000
  O   O4        1.0  0.1770323537119936  0.26749313627399846  0.19826234872940063  1.0000
  O   O5        1.0  0.018836129315090582  0.7377846189024525  0.26253184433950594  1.0000
  O   O6        1.0  0.9811635757233289  0.762216538838608  0.7625312937526731  1.0000
  O   O7        1.0  0.9811629463577628  0.2622159273852632  0.7374690737850216  1.0000
  O   O8        1.0  0.01883725046717195  0.23778570638919672  0.2374685814026735  1.0000
  O   O9        1.0  0.7489071525072717  0.6850727058719245  0.20023226609222186  1.0000
  O   O10       1.0  0.25109221128852977  0.8149274083156899  0.7002326811801112  1.0000
  O   O11       1.0  0.25109159963108857  0.3149250088124091  0.7997660446136339  1.0000
  O   O12       1.0  0.7489087055510736  0.1850714389785111  0.29976719397730994  1.0000
  O   O13       1.0  0.370623694780285  0.7082111406924059  0.0669289240731814  1.0000
  O   O14       1.0  0.6293757734333952  0.7917874651474579  0.5669278096698351  1.0000
  O   O15       1.0  0.6293756106469387  0.29178827294772003  0.9330719940520356  1.0000
  O   O16       1.0  0.37062169082881263  0.20821364749177462  0.4330663291613207  1.0000
  O   O17       1.0  0.8391630041871493  0.5891289409369023  0.29795061939699974  1.0000
  O   O18       1.0  0.16083631629041417  0.9108710335178146  0.7979509158877749  1.0000
  O   O19       1.0  0.16083708428386964  0.4108710390132871  0.7020502987278834  1.0000
  O   O20       1.0  0.8391629891369232  0.08912838012268051  0.20204948075336665  1.0000
  O   O21       1.0  0.9100261549492572  0.6713566275139587  0.3778831279301827  1.0000
  O   O22       1.0  0.08997313009455614  0.8286432326410563  0.8778830019361481  1.0000
  O   O23       1.0  0.08997393352176894  0.328643352436231  0.6221177901947003  1.0000
  O   O24       1.0  0.9100263597625895  0.1713567473186545  0.12211739470465234  1.0000
  O   O25       1.0  0.9184441834985009  0.3780983628790012  0.6043930450951508  1.0000
  O   O26       1.0  0.0815549204150869  0.12190176223939635  0.10439321661577593  1.0000
  O   O27       1.0  0.08155452331496355  0.6219010507710224  0.395606830061901  1.0000
  O   O28       1.0  0.9184441552578875  0.8780987840486887  0.8956071800246765  1.0000
  O   O29       1.0  0.8723229286093142  0.2923630684202508  0.5206125079075363  1.0000
  O   O30       1.0  0.1276766266281371  0.20763661017236507  0.020612575711027106  1.0000
  O   O31       1.0  0.12767540934451926  0.7076352125913348  0.4793873672502046  1.0000
  O   O32       1.0  0.8723228632290088  0.7923633697873528  0.9793878209297735  1.0000
  O   O33       1.0  0.9984853508294904  0.8078563890822822  0.45186912058789375  1.0000
  O   O34       1.0  0.0015137169866932833  0.6921427989566596  0.9518691594554343  1.0000
  O   O35       1.0  0.001514737641649311  0.19214359086827676  0.5481312760529067  1.0000
  O   O36       1.0  0.9984848053967281  0.3078560483734024  0.0481317586701238  1.0000
  O   O37       1.0  0.10294767677095258  0.8866370241726005  0.3911099116449748  1.0000
  O   O38       1.0  0.8970514179795898  0.6133622507492761  0.8911100625440658  1.0000
  O   O39       1.0  0.8970528258843584  0.1133623894495912  0.6088904849961736  1.0000
  O   O40       1.0  0.1029465057900723  0.3866365965906766  0.10888981261332732  1.0000
  O   O41       1.0  0.8996652409523307  0.8549850791997786  0.2774279734366516  1.0000
  O   O42       1.0  0.1003340886229083  0.6450149246015684  0.7774280715317377  1.0000
  O   O43       1.0  0.10033484751892269  0.14501490075115703  0.7225719017200732  1.0000
  O   O44       1.0  0.8996649870500589  0.3549856216865166  0.22257232510870753  1.0000
