data_image0
_chemical_formula_structural       Sr2H12C18O14
_chemical_formula_sum              "Sr2 H12 C18 O14"
_cell_length_a       6.856278830708843
_cell_length_b       7.026709588413335
_cell_length_c       10.78291512066224
_cell_angle_alpha    87.49599143194058
_cell_angle_beta     82.974016107369
_cell_angle_gamma    71.51256766800302

_space_group_name_H-M_alt    "P 1"
_space_group_IT_number       1

loop_
  _space_group_symop_operation_xyz
  'x, y, z'

loop_
  _atom_site_type_symbol
  _atom_site_label
  _atom_site_symmetry_multiplicity
  _atom_site_fract_x
  _atom_site_fract_y
  _atom_site_fract_z
  _atom_site_occupancy
  Sr  Sr1       1.0  0.2445295925054864  0.25717829988793994  0.05153269513546377  1.0000
  Sr  Sr2       1.0  0.7554711407282825  0.7428222687574929  0.9484673953356617  1.0000
  H   H1        1.0  0.22144664442237166  0.19596616496605893  0.6242653317295249  1.0000
  H   H2        1.0  0.7785526110315573  0.8040344143965189  0.3757339490117957  1.0000
  H   H3        1.0  0.728430487328545  0.30150812080784556  0.3934520360441666  1.0000
  H   H4        1.0  0.2715692479535932  0.6984909579740021  0.6065472478328855  1.0000
  H   H5        1.0  0.479011643601801  0.312051196816121  0.583039699355673  1.0000
  H   H6        1.0  0.5209876178245594  0.6879493788556633  0.416960508411506  1.0000
  H   H7        1.0  0.4158138772213464  0.23459680777295938  0.31725703480657325  1.0000
  H   H8        1.0  0.584184904376798  0.7654052684795616  0.6827431698248672  1.0000
  H   H9        1.0  0.5810396478566063  0.3767876418324789  0.18535744140130106  1.0000
  H   H10       1.0  0.4189610853771626  0.6232129268129539  0.8146426490698244  1.0000
  H   H11       1.0  0.6675774152202438  0.13155773200874424  0.177047377022049  1.0000
  H   H12       1.0  0.3324218402336852  0.8684428473538334  0.8229519037192645  1.0000
  C   C1        1.0  0.5591910979000757  0.2599416853712243  0.8242595269531279  1.0000
  C   C2        1.0  0.4408096353336928  0.740058883274209  0.1757405635180049  1.0000
  C   C3        1.0  0.7094236945924662  0.2628373657041934  0.7111345699153588  1.0000
  C   C4        1.0  0.29057703864130247  0.7371632029412397  0.2888655205557668  1.0000
  C   C5        1.0  0.9199724088006961  0.22991797757637045  0.7223413009194458  1.0000
  C   C6        1.0  0.08002685262566445  0.7700825980954136  0.27765890684773337  1.0000
  C   C7        1.0  0.9965611421625341  0.22011669222352032  0.8476288612688092  1.0000
  C   C8        1.0  0.0034381192638263617  0.7798838834482639  0.15237134649836995  1.0000
  C   C9        1.0  0.05872353195603352  0.2218739370958289  0.615262236688757  1.0000
  C   C10       1.0  0.9412766831543139  0.778123641105296  0.38473705032402694  1.0000
  C   C11       1.0  0.9891948436587158  0.24991655320504694  0.49690141164553825  1.0000
  C   C12       1.0  0.010805371451631667  0.7500810249960707  0.5030978753672456  1.0000
  C   C13       1.0  0.13273777470563178  0.24830107129113094  0.3817253191863583  1.0000
  C   C14       1.0  0.8672624463771468  0.7516965032192007  0.618274894852284  1.0000
  C   C15       1.0  0.779895970161718  0.2818347662153613  0.4860890398332812  1.0000
  C   C16       1.0  0.22010376512042032  0.7181643125664863  0.5139102440437708  1.0000
  C   C17       1.0  0.6411780193336654  0.28845875426903694  0.5925769567136212  1.0000
  C   C18       1.0  0.35882123612026356  0.7115418250935407  0.4074223240276992  1.0000
  O   O1        1.0  0.393023992280945  0.4077727648453405  0.8436570776285135  1.0000
  O   O2        1.0  0.606976740952817  0.5922278038000998  0.15634301284261193  1.0000
  O   O3        1.0  0.6005155224192152  0.1076253393686741  0.8959081816678276  1.0000
  O   O4        1.0  0.3994852048421294  0.8923752329675524  0.10409098177743906  1.0000
  O   O5        1.0  0.9069731574767774  0.36463119495778074  0.9234458745839685  1.0000
  O   O6        1.0  0.09302610394958326  0.6353693807140104  0.07655433318321056  1.0000
  O   O7        1.0  0.1529817117278185  0.07543427985446982  0.8730167261514336  1.0000
  O   O8        1.0  0.8470190215059504  0.9245662887909706  0.12698336431969173  1.0000
  O   O9        1.0  0.3250469866883279  0.22768006081418696  0.40157614421820387  1.0000
  O   O10       1.0  0.6749522747380254  0.772320514857597  0.5984240635489753  1.0000
  O   O11       1.0  0.0736464786518525  0.2664889819468783  0.2759745289920373  1.0000
  O   O12       1.0  0.9263542486094851  0.7335115903893481  0.7240246344532295  1.0000
  O   O13       1.0  0.5398384751344664  0.2499935885734033  0.1948484599096361  1.0000
  O   O14       1.0  0.46016225809930217  0.7500069800720298  0.8051516305614965  1.0000
