data_image0
_chemical_formula_structural       Zn2H24C28N12O8
_chemical_formula_sum              "Zn2 H24 C28 N12 O8"
_cell_length_a       6.984458158365244
_cell_length_b       9.212678279997695
_cell_length_c       12.107501473010693
_cell_angle_alpha    90.0000539888499
_cell_angle_beta     90.0001235298375
_cell_angle_gamma    105.18715075603352

_space_group_name_H-M_alt    "P 1"
_space_group_IT_number       1

loop_
  _space_group_symop_operation_xyz
  'x, y, z'

loop_
  _atom_site_type_symbol
  _atom_site_label
  _atom_site_symmetry_multiplicity
  _atom_site_fract_x
  _atom_site_fract_y
  _atom_site_fract_z
  _atom_site_occupancy
  Zn  Zn1       1.0  0.09871758554628218  0.7405860524332936  0.3021873649109423  1.0000
  Zn  Zn2       1.0  0.901283269656517  0.2594148428369039  0.8021892828085342  1.0000
  H   H1        1.0  0.7442271313050456  0.2280495889142883  0.2387277514844612  1.0000
  H   H2        1.0  0.2557726665116674  0.7719489221681214  0.7387275819204789  1.0000
  H   H3        1.0  0.8596376819508436  0.3387973011818133  0.3517057556484957  1.0000
  H   H4        1.0  0.1403604142638031  0.6611991989211959  0.8517061887119938  1.0000
  H   H5        1.0  0.4965936364328273  0.2733550353371328  0.3725446528313512  1.0000
  H   H6        1.0  0.5034071460020044  0.7266448845344584  0.8725447591024819  1.0000
  H   H7        1.0  0.4773152424201257  0.0789027616794513  0.3544037513664975  1.0000
  H   H8        1.0  0.522682207604575  0.9210959923196286  0.8544023695010594  1.0000
  H   H9        1.0  0.78087345275339  0.9393444199094889  0.23160434705760483  1.0000
  H   H10       1.0  0.21912813243458373  0.060655202104378185  0.7316036207478833  1.0000
  H   H11       1.0  0.08128363877081311  0.23025042883673313  0.4853653437492086  1.0000
  H   H12       1.0  0.9187166023044852  0.7697508539425115  0.985363520394813  1.0000
  H   H13       1.0  0.823725194958378  0.36574092118611656  0.5524094146056697  1.0000
  H   H14       1.0  0.17627597691945604  0.6342594451997386  0.052409168761052206  1.0000
  H   H15       1.0  0.3935028290418572  0.9466741083151505  0.5329214370974142  1.0000
  H   H16       1.0  0.6064993010206905  0.0533250932746441  0.0329213095906908  1.0000
  H   H17       1.0  0.5654788846746116  0.45322263384375816  0.7920565821155846  1.0000
  H   H18       1.0  0.4345201060913907  0.5467771138667387  0.29205576907944675  1.0000
  H   H19       1.0  0.8897232950940293  0.6242767369504278  0.7445284597594295  1.0000
  H   H20       1.0  0.11027548340933177  0.3757229098743976  0.24452794594853344  1.0000
  H   H21       1.0  0.924518749966836  0.7864584987304326  0.5746355188604753  1.0000
  H   H22       1.0  0.0754796567663192  0.21354191220977733  0.074634019245309  1.0000
  H   H23       1.0  0.6267706083142314  0.7737264152657417  0.45829010248789354  1.0000
  H   H24       1.0  0.3732254864871153  0.2262714331961959  0.9582888611578113  1.0000
  C   C1        1.0  0.7717491590613363  0.22622076945419414  0.3277857790170415  1.0000
  C   C2        1.0  0.22824933303567718  0.7737813022671816  0.8277839246247893  1.0000
  C   C3        1.0  0.5717934379729357  0.18425328002416563  0.38712984034773973  1.0000
  C   C4        1.0  0.428207796583699  0.8157477955479918  0.8871299169951783  1.0000
  C   C5        1.0  0.8784959860810062  0.98668286440531  0.29953256030066205  1.0000
  C   C6        1.0  0.12150590247975399  0.0133169017977011  0.7995325043361703  1.0000
  C   C7        1.0  0.0328101068504481  0.13371672618622196  0.43080323720420916  1.0000
  C   C8        1.0  0.967190548782952  0.8662821926053396  0.930801543580955  1.0000
  C   C9        1.0  0.7226959626862524  0.2585652054559162  0.5753504625787542  1.0000
  C   C10       1.0  0.2773053116462165  0.7414352096253012  0.0753495936285731  1.0000
  C   C11       1.0  0.5050664012426367  0.04102419076568958  0.5672404006281795  1.0000
  C   C12       1.0  0.4949348368689428  0.9589762071002071  0.06723913308420042  1.0000
  C   C13       1.0  0.4307030252544664  0.605320724921576  0.5572417971834085  1.0000
  C   C14       1.0  0.5692938715965354  0.3946796477871075  0.05724104269641831  1.0000
  C   C15       1.0  0.41429099524852125  0.5127777510589129  0.6509844637640256  1.0000
  C   C16       1.0  0.5857091846658592  0.48722282325545757  0.1509829702814685  1.0000
  C   C17       1.0  0.5797720181192929  0.5246971768819149  0.7191109307523079  1.0000
  C   C18       1.0  0.4202256016482266  0.4753035394196131  0.21911004855685692  1.0000
  C   C19       1.0  0.7624387424652069  0.6223532455823672  0.692387151383528  1.0000
  C   C20       1.0  0.23756344154084266  0.377648542667849  0.19238514560220213  1.0000
  C   C21       1.0  0.7816920222979106  0.7114109717140308  0.597549296520647  1.0000
  C   C22       1.0  0.21830648677000394  0.2885894878645558  0.09754802870028104  1.0000
  C   C23       1.0  0.6158150642169886  0.7038628020815096  0.5317891324474573  1.0000
  C   C24       1.0  0.38418133197670573  0.29613639185829754  0.0317880766229663  1.0000
  C   C25       1.0  0.2552397789240429  0.6004004567699041  0.48372940932986114  1.0000
  C   C26       1.0  0.7447582486780604  0.39959857174422797  0.9837287552305372  1.0000
  C   C27       1.0  0.2303456131156167  0.39361998977718565  0.6817280565465327  1.0000
  C   C28       1.0  0.7696561363045759  0.6063806511070597  0.18172687776252167  1.0000
  N   N1        1.0  0.007205844229780138  0.9230251558810706  0.3467473515362728  1.0000
  N   N2        1.0  0.9927976873962338  0.07697471185366568  0.8467467745020657  1.0000
  N   N3        1.0  0.10467723719851561  0.015116986528226996  0.4302754673652558  1.0000
  N   N4        1.0  0.8953266674663354  0.9848830585070373  0.9302737694665099  1.0000
  N   N5        1.0  0.8901563414733857  0.12007015302389588  0.3504213683273321  1.0000
  N   N6        1.0  0.10984290995428125  0.8799297185757168  0.8504210946214884  1.0000
  N   N7        1.0  0.7099782988495491  0.19429945186207928  0.6737291104956427  1.0000
  N   N8        1.0  0.29002666623622975  0.8057022994074996  0.17372830356508473  1.0000
  N   N9        1.0  0.5716285265145586  0.05641626110649161  0.6695844368053159  1.0000
  N   N10       1.0  0.4283742138900024  0.9435832305709442  0.1695830753090561  1.0000
  N   N11       1.0  0.5955810845651187  0.16466700346576602  0.5056266332107597  1.0000
  N   N12       1.0  0.4044188331602144  0.8353343870464869  0.0056268159677799  1.0000
  O   O1        1.0  0.27512587942297984  0.720268123968296  0.4233883612380184  1.0000
  O   O2        1.0  0.7248714917087185  0.2797296517210199  0.9233875962403673  1.0000
  O   O3        1.0  0.10800944174970079  0.48853532162552665  0.4830858746914188  1.0000
  O   O4        1.0  0.8919900151832394  0.5114637068351369  0.9830863102617118  1.0000
  O   O5        1.0  0.21138918464595952  0.2627059724701155  0.6474905457510189  1.0000
  O   O6        1.0  0.7886124118678168  0.7372945957396979  0.14748948464410463  1.0000
  O   O7        1.0  0.11144043803242447  0.43353149151993614  0.7508463035320929  1.0000
  O   O8        1.0  0.8885583686855656  0.5664681687149342  0.2508452441447915  1.0000
