data_image0
_chemical_formula_structural       Zn4H16C24N24O16
_chemical_formula_sum              "Zn4 H16 C24 N24 O16"
_cell_length_a       9.240368511846864
_cell_length_b       10.1231426653749
_cell_length_c       11.482199350029832
_cell_angle_alpha    79.2425015044401
_cell_angle_beta     66.5834234319094
_cell_angle_gamma    87.0180726824154

_space_group_name_H-M_alt    "P 1"
_space_group_IT_number       1

loop_
  _space_group_symop_operation_xyz
  'x, y, z'

loop_
  _atom_site_type_symbol
  _atom_site_label
  _atom_site_symmetry_multiplicity
  _atom_site_fract_x
  _atom_site_fract_y
  _atom_site_fract_z
  _atom_site_occupancy
  Zn  Zn1       1.0  0.974263146808987  0.42398993203718044  0.6661570738261487  1.0000
  Zn  Zn2       1.0  0.025737634440808704  0.5760096378091718  0.3338431968104699  1.0000
  Zn  Zn3       1.0  0.9146357074736358  0.1491027775608984  0.9404826780968563  1.0000
  Zn  Zn4       1.0  0.0853627462874584  0.8508978024511936  0.05951730049893199  1.0000
  H   H1        1.0  0.5515228158497437  0.09292149253518289  0.007648753449643646  1.0000
  H   H2        1.0  0.44847684583474023  0.907080089677102  0.9923515481577568  1.0000
  H   H3        1.0  0.6561823437978165  0.3611060145599367  0.6393307739817259  1.0000
  H   H4        1.0  0.3438172606717984  0.6388935617434511  0.3606681292586487  1.0000
  H   H5        1.0  0.10906578938339351  0.29260602626929  0.058475182918733985  1.0000
  H   H6        1.0  0.890933782675127  0.7073925385254966  0.9415256364903397  1.0000
  H   H7        1.0  0.24304344274568726  0.5839445216994222  0.699921446044371  1.0000
  H   H8        1.0  0.7569572774855756  0.4160530336838806  0.3000800415774307  1.0000
  H   H9        1.0  0.2099509159119322  0.3269005759417639  0.20988721202562738  1.0000
  H   H10       1.0  0.7900498964810653  0.67310000256181  0.7901120142263593  1.0000
  H   H11       1.0  0.2558713499710237  0.2183873580508475  0.577878939796939  1.0000
  H   H12       1.0  0.7441282532307057  0.7816122154011538  0.42212083522750987  1.0000
  H   H13       1.0  0.03065607384997549  0.9423749203411658  0.3282474064605552  1.0000
  H   H14       1.0  0.9693447086677055  0.05762465235658002  0.6717519923919963  1.0000
  H   H15       1.0  0.7258720411304367  0.23444357400965288  0.21459120163513032  1.0000
  H   H16       1.0  0.27412759067872383  0.7655570023967968  0.7854092725728279  1.0000
  C   C1        1.0  0.6028177174428963  0.1628962707140644  0.9172432585262554  1.0000
  C   C2        1.0  0.3971819143662644  0.8371043056923781  0.08275721568170272  1.0000
  C   C3        1.0  0.5408177220316618  0.21491060091913278  0.8251891997682107  1.0000
  C   C4        1.0  0.4591807603368708  0.7850909820474073  0.17481147801109378  1.0000
  C   C5        1.0  0.6572493337598004  0.302643247342445  0.7281741706305735  1.0000
  C   C6        1.0  0.3427502694419218  0.6973563261095563  0.2718256043938752  1.0000
  C   C7        1.0  0.12093596104305251  0.35360354274099143  0.9668532170995477  1.0000
  C   C8        1.0  0.8790647591882179  0.6463940126423041  0.03314827052226119  1.0000
  C   C9        1.0  0.21939040722434563  0.4660535461606727  0.8949754817185678  1.0000
  C   C10       1.0  0.7806091959773838  0.5339460272913286  0.1050242933058811  1.0000
  C   C11       1.0  0.1916592710705629  0.5024576804083338  0.7816195175367752  1.0000
  C   C12       1.0  0.8083414803039091  0.49754088363219057  0.21838092570040152  1.0000
  C   C13       1.0  0.19575334833761807  0.3147828934989434  0.3096057995204617  1.0000
  C   C14       1.0  0.8042462847394347  0.6852176857588931  0.690393802903422  1.0000
  C   C15       1.0  0.27059060975174987  0.2264099268733588  0.3757903013598706  1.0000
  C   C16       1.0  0.7294066348180762  0.7735896480871675  0.6242102260083726  1.0000
  C   C17       1.0  0.2228922775804136  0.26094161729577786  0.49801044365926816  1.0000
  C   C18       1.0  0.7771072957459921  0.7390569503503885  0.5019895039657384  1.0000
  C   C19       1.0  0.9645989499175727  0.004648980977556499  0.2797926103053925  1.0000
  C   C20       1.0  0.03540068189158771  0.9953515954288931  0.7202078639025657  1.0000
  C   C21       1.0  0.8587200009935287  0.10743435982003288  0.3212358822535889  1.0000
  C   C22       1.0  0.14127963081563882  0.8925662165864168  0.6787645919543691  1.0000
  C   C23       1.0  0.809492823448558  0.15678868036013682  0.22077189341484874  1.0000
  C   C24       1.0  0.19050562777676563  0.8432118939491743  0.7792298287490808  1.0000
  N   N1        1.0  0.7814628005579962  0.3020865050715571  0.760048431150551  1.0000
  N   N2        1.0  0.2185380118350082  0.6979140734320239  0.2399507951014356  1.0000
  N   N3        1.0  0.7478578165879171  0.2148827802967688  0.8764573133689381  1.0000
  N   N4        1.0  0.2521418152212433  0.7851177961096809  0.12354316083902007  1.0000
  N   N5        1.0  0.3947309271694549  0.1776513150785988  0.8269832340899084  1.0000
  N   N6        1.0  0.6052699163667513  0.8223502720822041  0.17301494777745305  1.0000
  N   N7        1.0  0.082216939258771  0.41723881144770286  0.7873401071752396  1.0000
  N   N8        1.0  0.9177838407231392  0.5827607555472554  0.2126610352454463  1.0000
  N   N9        1.0  0.04034112808556499  0.3243184857536646  0.9004824993214058  1.0000
  N   N10       1.0  0.9596608026048585  0.675680077532597  0.09951756774387388  1.0000
  N   N11       1.0  0.32292569708533136  0.531261375354184  0.9315181941350018  1.0000
  N   N12       1.0  0.6770738438299801  0.468736180783374  0.06848366965870414  1.0000
  N   N13       1.0  0.1228186677339096  0.36287008958746725  0.504648043104602  1.0000
  N   N14       1.0  0.8771809666110216  0.6371304925217558  0.4953506875352146  1.0000
  N   N15       1.0  0.1069631240393747  0.3968396442405576  0.38787577195191153  1.0000
  N   N16       1.0  0.8930376870857444  0.6031609314116295  0.6121243260841495  1.0000
  N   N17       1.0  0.3755433464646885  0.12354679867556231  0.3263283292969276  1.0000
  N   N18       1.0  0.6244574659283161  0.8764537798280115  0.673670896955059  1.0000
  N   N19       1.0  0.8826431389906022  0.088874382776261  0.1250498668068046  1.0000
  N   N20       1.0  0.11735531223472151  0.9111261915330501  0.8749518553571248  1.0000
  N   N21       1.0  0.9769120200305823  0.9942836106575682  0.16170768994184198  1.0000
  N   N22       1.0  0.023087583171147202  0.0057159627944401  0.8382920850825997  1.0000
  N   N23       1.0  0.8128933358823643  0.1567136563257279  0.43819822494712923  1.0000
  N   N24       1.0  0.1871051166108444  0.8432869208349771  0.5618026254327262  1.0000
  O   O1        1.0  0.3634204956322193  0.22160453429884808  0.7310238751100684  1.0000
  O   O2        1.0  0.6365791673201502  0.7783970507648236  0.2689755547132575  1.0000
  O   O3        1.0  0.3034420389751062  0.102777143269698  0.9264845254645521  1.0000
  O   O4        1.0  0.6965575642266231  0.8972224301823032  0.07351524955989666  1.0000
  O   O5        1.0  0.4115464789596075  0.6241168272593355  0.8510065449980928  1.0000
  O   O6        1.0  0.5884531515816749  0.3758837462957203  0.14899480099393259  1.0000
  O   O7        1.0  0.31884500423078777  0.4935848457595213  0.042401205910607635  1.0000
  O   O8        1.0  0.6811546275783726  0.5064157306469285  0.9575992682973506  1.0000
  O   O9        1.0  0.4489248519473605  0.06529281202151789  0.39066518782221477  1.0000
  O   O10       1.0  0.5510747798618071  0.9347077643849246  0.6093352863857433  1.0000
  O   O11       1.0  0.38716875353058106  0.097836635927834  0.2207904945878951  1.0000
  O   O12       1.0  0.6128356254177094  0.902164943267408  0.7792083023319022  1.0000
  O   O13       1.0  0.7257027996447436  0.25647428784149884  0.4518550510672057  1.0000
  O   O14       1.0  0.274295622973149  0.743525283513371  0.5481459719132147  1.0000
  O   O15       1.0  0.8631875740593814  0.1001940799117946  0.5201595057408993  1.0000
  O   O16       1.0  0.1368132357978453  0.8998064928889989  0.4798414640792288  1.0000
