data_image0
_chemical_formula_structural       Ag4H64C104S12N8O12F36
_chemical_formula_sum              "Ag4 H64 C104 S12 N8 O12 F36"
_cell_length_a       11.550176103966662
_cell_length_b       11.550183657227764
_cell_length_c       26.801222575545864
_cell_angle_alpha    95.74878063107485
_cell_angle_beta     95.748862744744
_cell_angle_gamma    94.02462613416792

_space_group_name_H-M_alt    "P 1"
_space_group_IT_number       1

loop_
  _space_group_symop_operation_xyz
  'x, y, z'

loop_
  _atom_site_type_symbol
  _atom_site_label
  _atom_site_symmetry_multiplicity
  _atom_site_fract_x
  _atom_site_fract_y
  _atom_site_fract_z
  _atom_site_occupancy
  Ag  Ag1       1.0  0.5389753306394311  0.9928949459459415  0.7098450647700216  1.0000
  Ag  Ag2       1.0  0.007105253319018299  0.46102494884043205  0.7901542757502893  1.0000
  Ag  Ag3       1.0  0.461026019401487  0.007103500834503506  0.29015471341773486  1.0000
  Ag  Ag4       1.0  0.9928943456907008  0.5389742123182799  0.209845082908501  1.0000
  H   H1        1.0  0.784033666441175  0.6966274428010875  0.6435685284695721  1.0000
  H   H2        1.0  0.3033712170456866  0.21596570695476913  0.8564316055409761  1.0000
  H   H3        1.0  0.21596329797290542  0.303372342871441  0.35643148645349504  1.0000
  H   H4        1.0  0.6966265996561704  0.7840358933145806  0.14356890188773969  1.0000
  H   H5        1.0  0.03452715262299931  0.0947122819979995  0.6548327352350397  1.0000
  H   H6        1.0  0.9052893740436543  0.9654725814654765  0.8451671331951119  1.0000
  H   H7        1.0  0.9654732971410597  0.9052895702308206  0.3451664088499911  1.0000
  H   H8        1.0  0.09471108737316308  0.0345266483970406  0.154833386513701  1.0000
  H   H9        1.0  0.9285664426765693  0.09668511036532122  0.6025396155118656  1.0000
  H   H10       1.0  0.903317471316356  0.0714336695478153  0.897460569540449  1.0000
  H   H11       1.0  0.07143400003504749  0.903316734809955  0.39746027418759416  1.0000
  H   H12       1.0  0.09668212570058192  0.9285646116108383  0.102539869004957  1.0000
  H   H13       1.0  0.907630567685665  0.1703422420431977  0.6621154549057877  1.0000
  H   H14       1.0  0.8296573151219488  0.09236928367451466  0.8378841825681675  1.0000
  H   H15       1.0  0.09236990430982671  0.8296569983996416  0.33788394638139607  1.0000
  H   H16       1.0  0.1703440071685378  0.9076308913650805  0.16211679111127347  1.0000
  H   H17       1.0  0.7847703507431874  0.6385293029413647  0.7379108582459252  1.0000
  H   H18       1.0  0.3614705930528856  0.2152283541608284  0.7620893182089857  1.0000
  H   H19       1.0  0.21523096142797732  0.36147261799125374  0.262089446889135  1.0000
  H   H20       1.0  0.6385272650449494  0.784769775483127  0.23791028946521206  1.0000
  H   H21       1.0  0.6446337777742598  0.537563690431824  0.7888141863263841  1.0000
  H   H22       1.0  0.46243722702529066  0.35536597891614713  0.7111860715971049  1.0000
  H   H23       1.0  0.3553666836425577  0.4624355394306859  0.21118633338243595  1.0000
  H   H24       1.0  0.5375615040583169  0.6446322300119292  0.28881357870547925  1.0000
  H   H25       1.0  0.468067779766784  0.6386437103058566  0.8116782520042845  1.0000
  H   H26       1.0  0.36135535909411237  0.5319326188144301  0.6883214984217644  1.0000
  H   H27       1.0  0.5319309447237259  0.3613562480420214  0.18832035694671126  1.0000
  H   H28       1.0  0.638644236389389  0.46806653881750987  0.31167823304424047  1.0000
  H   H29       1.0  0.4388088060449674  0.8346677547494675  0.781374819315971  1.0000
  H   H30       1.0  0.1653321448457561  0.5611902832033592  0.7186255906869122  1.0000
  H   H31       1.0  0.5611908171889581  0.1653296746233153  0.2186237166583567  1.0000
  H   H32       1.0  0.8346691880233976  0.4388099024165655  0.2813742645708928  1.0000
  H   H33       1.0  0.20697269672336202  0.0334884997685236  0.559618390758338  1.0000
  H   H34       1.0  0.96651139714686  0.7930269299611296  0.940381088642269  1.0000
  H   H35       1.0  0.7930312495840967  0.9665110401769322  0.44038304507846243  1.0000
  H   H36       1.0  0.03348996147994401  0.20697064739958645  0.0596186510104673  1.0000
  H   H37       1.0  0.0388456427872512  0.8192404944046034  0.7059476287713693  1.0000
  H   H38       1.0  0.18075836582531216  0.9611537465322966  0.7940530099343377  1.0000
  H   H39       1.0  0.9611530640721425  0.180759446309402  0.2940528442156917  1.0000
  H   H40       1.0  0.8192438486154927  0.038845648952012424  0.20594684941683278  1.0000
  H   H41       1.0  0.06596612564717219  0.7157170157216228  0.6565240280214865  1.0000
  H   H42       1.0  0.2842851233427197  0.9340351929770775  0.843476508525569  1.0000
  H   H43       1.0  0.9340325675666818  0.2842846673586266  0.3434761492284011  1.0000
  H   H44       1.0  0.7157170875718606  0.06596419898045272  0.1565237236328088  1.0000
  H   H45       1.0  0.17185567576576943  0.7510169190016994  0.7095250358988564  1.0000
  H   H46       1.0  0.24898370154356544  0.8281447274164075  0.7904750390052583  1.0000
  H   H47       1.0  0.8281439005531794  0.24898309746965455  0.29047585252380503  1.0000
  H   H48       1.0  0.7510167805712484  0.17185276713340863  0.20952503082629895  1.0000
  H   H49       1.0  0.2993849148995551  0.21242164692214524  0.5758750779362102  1.0000
  H   H50       1.0  0.7875778430705294  0.7006151929687758  0.9241236334943465  1.0000
  H   H51       1.0  0.7006137833739602  0.787579163211596  0.4241254335858641  1.0000
  H   H52       1.0  0.21242348627240662  0.2993849891243698  0.07587659457066562  1.0000
  H   H53       1.0  0.4619943322139548  0.3629352960220657  0.5700866395903147  1.0000
  H   H54       1.0  0.6370655024340904  0.5380053591599533  0.9299121152712075  1.0000
  H   H55       1.0  0.5380061413149732  0.63706306794748  0.4299134687762702  1.0000
  H   H56       1.0  0.3629384509258172  0.4619941878390533  0.0700885749511642  1.0000
  H   H57       1.0  0.6487720130427519  0.3629151561825239  0.6279057889777561  1.0000
  H   H58       1.0  0.6370849065747564  0.3512270070791175  0.8720933301037661  1.0000
  H   H59       1.0  0.3512275996125069  0.6370822626099439  0.3720938654182006  1.0000
  H   H60       1.0  0.3629164192419552  0.6487731714872567  0.1279072707684605  1.0000
  H   H61       1.0  0.6650588792336906  0.2087756046667266  0.6859414729885033  1.0000
  H   H62       1.0  0.7912258769391796  0.33494401146499087  0.8140575590898679  1.0000
  H   H63       1.0  0.33494157359724847  0.7912244946155198  0.3140590852553373  1.0000
  H   H64       1.0  0.20877543875820948  0.6650579129944133  0.18594237323797813  1.0000
  C   C1        1.0  0.9220992731532861  0.836162843025093  0.585989239944439  1.0000
  C   C2        1.0  0.16383713669662817  0.0779015949980462  0.9140102733913551  1.0000
  C   C3        1.0  0.0779020768876322  0.16383560375535205  0.4140105382433177  1.0000
  C   C4        1.0  0.8361668342943887  0.9220979696348337  0.0859885527949587  1.0000
  C   C5        1.0  0.0340979128620376  0.8578277475948112  0.575673184867412  1.0000
  C   C6        1.0  0.1421726072206084  0.9659019517547306  0.9243267832284445  1.0000
  C   C7        1.0  0.9659025278567979  0.14217321758039958  0.4243277847186561  1.0000
  C   C8        1.0  0.857830495844297  0.03409666064752062  0.0756723346016699  1.0000
  C   C9        1.0  0.05020267982921919  0.8141698550876059  0.5221671222230952  1.0000
  C   C10       1.0  0.18582965506964647  0.9497963925531109  0.9778320436531799  1.0000
  C   C11       1.0  0.9497969105946139  0.1858301754908496  0.47783227497071573  1.0000
  C   C12       1.0  0.8141699318279622  0.050203634498565526  0.022167726347845522  1.0000
  C   C13       1.0  0.9337849853271721  0.7398759198458437  0.5014825390646392  1.0000
  C   C14       1.0  0.26012333273624216  0.06621296926932271  0.9985168425548563  1.0000
  C   C15       1.0  0.0662146081635342  0.260122357786031  0.49851827228798135  1.0000
  C   C16       1.0  0.7398753761159399  0.933787851444741  0.0014825505455889159  1.0000
  C   C17       1.0  0.8468963437038112  0.7763517442205695  0.540148054379692  1.0000
  C   C18       1.0  0.22364778020849493  0.15310527042130664  0.95985184063516  1.0000
  C   C19       1.0  0.15310412123923808  0.22364748916871946  0.4598520925219134  1.0000
  C   C20       1.0  0.7763517930435812  0.8468964989966207  0.040147633628699005  1.0000
  C   C21       1.0  0.8780022829981178  0.9834439263347361  0.6565252565382095  1.0000
  C   C22       1.0  0.016556091315713704  0.12199703254145078  0.8434745067109972  1.0000
  C   C23       1.0  0.1219973195378259  0.0165552383507546  0.34347372931337355  1.0000
  C   C24       1.0  0.9834443701011111  0.8780021973210664  0.15652601299782282  1.0000
  C   C25       1.0  0.8697800787477092  0.8700152537531594  0.632222321146294  1.0000
  C   C26       1.0  0.12998444407881488  0.1302211709922076  0.8677779179510876  1.0000
  C   C27       1.0  0.1302212541214445  0.1299849318667654  0.36777753411151076  1.0000
  C   C28       1.0  0.8700169180742066  0.8697764098952729  0.13222144889443396  1.0000
  C   C29       1.0  0.8006341248307646  0.7894309824104154  0.6562881267240853  1.0000
  C   C30       1.0  0.21056827095011954  0.1993673036689145  0.8437121037901105  1.0000
  C   C31       1.0  0.1993663522243878  0.21056738508590914  0.34371160883528507  1.0000
  C   C32       1.0  0.7894313073616103  0.8006335928024981  0.15628770474592812  1.0000
  C   C33       1.0  0.756072402431272  0.8409655808277634  0.6979818256489522  1.0000
  C   C34       1.0  0.1590345815448586  0.24392785411497903  0.8020191115204085  1.0000
  C   C35       1.0  0.24392805039966697  0.15903451845449007  0.30201873259488815  1.0000
  C   C36       1.0  0.8409650018265326  0.7560721694099184  0.19798103128782432  1.0000
  C   C37       1.0  0.9400550869755477  0.09209572418600943  0.6434509544791139  1.0000
  C   C38       1.0  0.9079041792144051  0.0599450134658071  0.8565487416840794  1.0000
  C   C39       1.0  0.059945376434065195  0.9079043856765664  0.35654848534308303  1.0000
  C   C40       1.0  0.09209627361653358  0.9400550858164393  0.1434518165597609  1.0000
  C   C41       1.0  0.6805109089519518  0.7840687478030474  0.7303884812910366  1.0000
  C   C42       1.0  0.21593070543640636  0.31948696455388875  0.769611192685346  1.0000
  C   C43       1.0  0.3194904360293052  0.21593057192391288  0.26961096262453305  1.0000
  C   C44       1.0  0.784067999889551  0.6805138526334032  0.2303885732223065  1.0000
  C   C45       1.0  0.705213141988544  0.676607966783415  0.7474320688409788  1.0000
  C   C46       1.0  0.3233935852439629  0.29478669626795545  0.7525685715472362  1.0000
  C   C47       1.0  0.29478731436861233  0.3233921360256104  0.25256811659564693  1.0000
  C   C48       1.0  0.676605998127428  0.7052133272569421  0.2474315712609965  1.0000
  C   C49       1.0  0.6279743334601021  0.6220868792254493  0.77600480854489  1.0000
  C   C50       1.0  0.37791374286179297  0.3720260321508063  0.7239954341215479  1.0000
  C   C51       1.0  0.3720252827213812  0.3779105430937831  0.2239944730438594  1.0000
  C   C52       1.0  0.6220858440358228  0.62797399490087  0.2760043358794774  1.0000
  C   C53       1.0  0.5297030523287843  0.6776234251913705  0.7887051296661979  1.0000
  C   C54       1.0  0.32237696226618334  0.4702969239816498  0.7112946674188407  1.0000
  C   C55       1.0  0.4702948370457137  0.3223729797202067  0.21129290970910827  1.0000
  C   C56       1.0  0.6776226246314322  0.5297031030700197  0.2887051025821846  1.0000
  C   C57       1.0  0.5119890006300309  0.7854355826022895  0.7717412247088972  1.0000
  C   C58       1.0  0.21456478844988414  0.4880095569640161  0.7282588449155866  1.0000
  C   C59       1.0  0.48801063471600514  0.21456098087752912  0.2282568999231884  1.0000
  C   C60       1.0  0.7854365323071661  0.511991494548866  0.27174142168445314  1.0000
  C   C61       1.0  0.1642490384265614  0.8807435430902328  0.6578050188366831  1.0000
  C   C62       1.0  0.1192599846408982  0.835749801394492  0.842195449588395  1.0000
  C   C63       1.0  0.8357505429520414  0.11925560043460588  0.34219620385816535  1.0000
  C   C64       1.0  0.8807422489644593  0.16424873525040343  0.15780325280611857  1.0000
  C   C65       1.0  0.13425649536484488  0.9117884430660153  0.609569264106092  1.0000
  C   C66       1.0  0.0882120261454276  0.8657445490655106  0.8904311484222943  1.0000
  C   C67       1.0  0.8657466072407162  0.08820841286287621  0.3904316406900392  1.0000
  C   C68       1.0  0.9117901882953844  0.13425484641879853  0.1095687109288832  1.0000
  C   C69       1.0  0.21478012116776313  0.9993823853759662  0.5960676874555161  1.0000
  C   C70       1.0  0.0006162133324707006  0.7852209085537395  0.9039307730196667  1.0000
  C   C71       1.0  0.785222096339922  0.0006152571617690186  0.40393358605445684  1.0000
  C   C72       1.0  0.9993851508133388  0.21477755233380685  0.09606751393924637  1.0000
  C   C73       1.0  0.3040509420502815  0.03630034746532831  0.6336986714433904  1.0000
  C   C74       1.0  0.9636991474100683  0.6959517616025366  0.8663005818673996  1.0000
  C   C75       1.0  0.6959495294858582  0.9636971365041586  0.36630251680981013  1.0000
  C   C76       1.0  0.03630393848307279  0.304048589639187  0.13369861303276306  1.0000
  C   C77       1.0  0.10757611247593252  0.7873982755121105  0.6838034001979878  1.0000
  C   C78       1.0  0.21260537606353583  0.8924243064796398  0.8161979013233277  1.0000
  C   C79       1.0  0.8924234466712518  0.21260347979871597  0.3161975652947219  1.0000
  C   C80       1.0  0.7873977148892664  0.10757517181556862  0.18380162784902146  1.0000
  C   C81       1.0  0.397961908538953  0.1264192727903719  0.6319034774827726  1.0000
  C   C82       1.0  0.8735793571888522  0.6020393535488539  0.8680953005544507  1.0000
  C   C83       1.0  0.6020385735758608  0.8735782217594446  0.36809659234878467  1.0000
  C   C84       1.0  0.1264211062207536  0.3979607563137221  0.13190413926774616  1.0000
  C   C85       1.0  0.3826691171854932  0.2123004560359617  0.5986681880429926  1.0000
  C   C86       1.0  0.7876997903385998  0.6173328001239257  0.901330662392617  1.0000
  C   C87       1.0  0.6173322242695464  0.7876988601642264  0.40133162867978456  1.0000
  C   C88       1.0  0.21230153394466814  0.3826682549157355  0.09866923140020842  1.0000
  C   C89       1.0  0.47299368465412067  0.2964544083597289  0.5959816363161465  1.0000
  C   C90       1.0  0.7035447039501219  0.527005553181766  0.9040170451934201  1.0000
  C   C91       1.0  0.5270050307911589  0.7035446629345402  0.40401879813588687  1.0000
  C   C92       1.0  0.2964566253928069  0.4729946289113868  0.095983182871592  1.0000
  C   C93       1.0  0.5769226080526835  0.29646680337700804  0.6275121127865759  1.0000
  C   C94       1.0  0.7035334985794748  0.4230778550353095  0.8724867069101803  1.0000
  C   C95       1.0  0.4230796063881285  0.7035325921073011  0.3724877465645946  1.0000
  C   C96       1.0  0.29646869868956566  0.576923279288472  0.1275132295110382  1.0000
  C   C97       1.0  0.586065327792852  0.2107273690298328  0.6601997164618467  1.0000
  C   C98       1.0  0.7892736420157007  0.4139355844999812  0.8397991825548272  1.0000
  C   C99       1.0  0.41393512151186235  0.7892727267256421  0.33980121458920104  1.0000
  C   C100      1.0  0.21072768226756722  0.5860654705396795  0.16020071123799798  1.0000
  C   C101      1.0  0.5809112651153325  0.043645025187785805  0.8781700175633561  1.0000
  C   C102      1.0  0.9563599065314817  0.41908532605661725  0.6218307760224491  1.0000
  C   C103      1.0  0.419076922985404  0.9563583112154174  0.12183013655813817  1.0000
  C   C104      1.0  0.043643132446675316  0.5809176122836632  0.3781707713260473  1.0000
  S   S1        1.0  0.7989006899629983  0.989364886051483  0.7076581068250151  1.0000
  S   S2        1.0  0.010633931123948101  0.20109838140396616  0.792341567139978  1.0000
  S   S3        1.0  0.20110326186346583  0.010635537420810708  0.29234187631795544  1.0000
  S   S4        1.0  0.989363911335566  0.7989006106061751  0.20765882468366925  1.0000
  S   S5        1.0  0.2888359412785917  0.9613995875553198  0.6860122757056927  1.0000
  S   S6        1.0  0.0386022341891135  0.7111649775960348  0.8139878490144524  1.0000
  S   S7        1.0  0.7111645009736802  0.03860050114660398  0.31398940095978384  1.0000
  S   S8        1.0  0.9613991244376904  0.2888325997646746  0.18601189063828372  1.0000
  S   S9        1.0  0.5342674705082543  0.1302171106836809  0.8257459796448217  1.0000
  S   S10       1.0  0.8697857344569113  0.46573080153178387  0.6742555034579142  1.0000
  S   S11       1.0  0.46572770853109097  0.8697868670460662  0.1742537698893614  1.0000
  S   S12       1.0  0.1302147128550146  0.534268414223625  0.32574650747974937  1.0000
  N   N1        1.0  0.5842219628948583  0.8367975041216127  0.7425955223526232  1.0000
  N   N2        1.0  0.16320257562676938  0.41577607991016646  0.7574041441065729  1.0000
  N   N3        1.0  0.41577849698853  0.1632026022141844  0.2574042902767886  1.0000
  N   N4        1.0  0.8367978600324051  0.5842257582115594  0.2425964912073084  1.0000
  N   N5        1.0  0.49981401771275813  0.1265012401707111  0.6621594343122296  1.0000
  N   N6        1.0  0.8734987736849078  0.5001871301973113  0.8378398031491728  1.0000
  N   N7        1.0  0.5001873288019424  0.8734972030829622  0.3378407166827415  1.0000
  N   N8        1.0  0.12650167408637  0.4998138420314574  0.16216042082247378  1.0000
  O   O1        1.0  0.44272965837824785  0.051902745804447606  0.7949958789968932  1.0000
  O   O2        1.0  0.9481012847258582  0.5572687574777716  0.7050052866565579  1.0000
  O   O3        1.0  0.5572655261801103  0.9481021154521302  0.2050024178434668  1.0000
  O   O4        1.0  0.051896502232786204  0.44273369105066973  0.2949974961504509  1.0000
  O   O5        1.0  0.6401134360452474  0.15110664369687749  0.801172830168447  1.0000
  O   O6        1.0  0.8488920789659459  0.3598873150762572  0.6988278577163669  1.0000
  O   O7        1.0  0.35988616097169057  0.8488916374617758  0.19882760837695906  1.0000
  O   O8        1.0  0.1511092312124305  0.6401137258563026  0.301173527305302  1.0000
  O   O9        1.0  0.49192625712504423  0.2330631644551673  0.8518709016973531  1.0000
  O   O10       1.0  0.7669407209580114  0.5080744606039574  0.6481292029295743  1.0000
  O   O11       1.0  0.5080706749382884  0.7669409788963789  0.14812818747918752  1.0000
  O   O12       1.0  0.2330588745254829  0.4919246970279758  0.3518705285364305  1.0000
  F   F1        1.0  0.06903307515013782  0.9043884009020854  0.49267659264908303  1.0000
  F   F2        1.0  0.09561224896135197  0.9309630969174165  0.007323520431455707  1.0000
  F   F3        1.0  0.9309612859449601  0.09561028455188142  0.507322510239362  1.0000
  F   F4        1.0  0.9043882159816903  0.06903613647187264  0.9926766264701498  1.0000
  F   F5        1.0  0.1448402126686688  0.7492089354157583  0.5197058065152618  1.0000
  F   F6        1.0  0.25079193012812334  0.8551582358928301  0.9802930651915672  1.0000
  F   F7        1.0  0.855157635309844  0.2507909401212203  0.48029313261456247  1.0000
  F   F8        1.0  0.749211136600465  0.1448429741883004  0.0197072866652519  1.0000
  F   F9        1.0  0.894758353708319  0.7604029004603915  0.4534789695808215  1.0000
  F   F10       1.0  0.23960054614038742  0.10523866015915218  0.0465208408700875  1.0000
  F   F11       1.0  0.1052403789087251  0.23959443199439787  0.5465213878011709  1.0000
  F   F12       1.0  0.7604007730832264  0.8947632678270238  0.953478718650551  1.0000
  F   F13       1.0  0.94872111395312  0.6239759139758546  0.501082569617857  1.0000
  F   F14       1.0  0.37602338108860767  0.051274915975049906  0.9989149000092041  1.0000
  F   F15       1.0  0.0512810969614605  0.3760234779816827  0.4989176625405278  1.0000
  F   F16       1.0  0.62397448252824  0.9487240971957361  0.0010832549711707997  1.0000
  F   F17       1.0  0.7721728700762611  0.8532588984396201  0.5199561055145595  1.0000
  F   F18       1.0  0.14674027535198056  0.22782849794234045  0.9800437188890995  1.0000
  F   F19       1.0  0.22782933025965238  0.14674048293759515  0.4800452450654618  1.0000
  F   F20       1.0  0.8532567258577614  0.7721704465246475  0.019953275041253018  1.0000
  F   F21       1.0  0.776383965746554  0.6820889366320982  0.549388568633219  1.0000
  F   F22       1.0  0.3179104274618965  0.22361834957840185  0.9506121037150378  1.0000
  F   F23       1.0  0.2236173616035941  0.3179103654609889  0.4506127393184087  1.0000
  F   F24       1.0  0.6820891367449419  0.7763825327859095  0.04938919604985871  1.0000
  F   F25       1.0  0.6317185704837839  0.9469425763576209  0.8606873722680672  1.0000
  F   F26       1.0  0.05306190739369748  0.36828106746418865  0.6393144102203435  1.0000
  F   F27       1.0  0.36827483130736743  0.05306296753624911  0.1393138603082349  1.0000
  F   F28       1.0  0.9469393750342477  0.6317217017275211  0.36068817029301675  1.0000
  F   F29       1.0  0.659264842641427  0.1088314854362054  0.9127137477299598  1.0000
  F   F30       1.0  0.8911729659934835  0.34073374748247437  0.5872874907731712  1.0000
  F   F31       1.0  0.3407233364140795  0.8911709639133887  0.0872882318925718  1.0000
  F   F32       1.0  0.10883093431768741  0.6592718925082436  0.41271272357993644  1.0000
  F   F33       1.0  0.48807453156045  0.007856806422836413  0.9017194394162827  1.0000
  F   F34       1.0  0.9921502187105843  0.5119231948863004  0.5982814821857331  1.0000
  F   F35       1.0  0.5119093748627391  0.9921409487822996  0.09827691508821351  1.0000
  F   F36       1.0  0.007857997621663101  0.48808454862353995  0.40172237764427626  1.0000
