data_image0
_chemical_formula_structural       Al2H17C26O10F
_chemical_formula_sum              "Al2 H17 C26 O10 F1"
_cell_length_a       6.723225632889535
_cell_length_b       11.13029278395695
_cell_length_c       17.934841407704194
_cell_angle_alpha    71.21392696172205
_cell_angle_beta     76.91756287095988
_cell_angle_gamma    73.05277745627708

_space_group_name_H-M_alt    "P 1"
_space_group_IT_number       1

loop_
  _space_group_symop_operation_xyz
  'x, y, z'

loop_
  _atom_site_type_symbol
  _atom_site_label
  _atom_site_symmetry_multiplicity
  _atom_site_fract_x
  _atom_site_fract_y
  _atom_site_fract_z
  _atom_site_occupancy
  Al  Al1       1.0  0.5013862365471837  0.4981407800162432  0.4994367176909833  1.0000
  Al  Al2       1.0  0.0023698448374390346  0.49573726723806993  0.49980620391309577  1.0000
  H   H1        1.0  0.20458042815977942  0.659067030745476  0.4438801832813369  1.0000
  H   H2        1.0  0.749823179829157  0.38090132383657493  0.5933637768569399  1.0000
  H   H3        1.0  0.12284123322904617  0.10453488999409898  0.508797591162228  1.0000
  H   H4        1.0  0.7605846290963001  0.12814819702234811  0.4899909964898939  1.0000
  H   H5        1.0  0.2539179177306393  0.8709445339143259  0.5055492773478891  1.0000
  H   H6        1.0  0.5547583196366616  0.5837281224312676  0.2608862019729372  1.0000
  H   H7        1.0  0.6098412002559499  0.5810959085912871  0.119102065044288  1.0000
  H   H8        1.0  0.2751038129207757  0.4366198560550174  0.1282895443525547  1.0000
  H   H9        1.0  0.7240848836881354  0.5671727528999784  0.8693248888394933  1.0000
  H   H10       1.0  0.4452687912233627  0.4081609665910052  0.7420042823648672  1.0000
  H   H11       1.0  0.38614530509341444  0.4140383655501979  0.8830233088817251  1.0000
  H   H12       1.0  0.29575653925498097  0.4995952735706554  0.3024182240299922  1.0000
  H   H13       1.0  0.26238397186133966  0.3403877691922617  0.33157008500354834  1.0000
  H   H14       1.0  0.4200602077272392  0.39519673317479237  0.23899700717498007  1.0000
  H   H15       1.0  0.5841200140819821  0.6134089137713162  0.7571894137928226  1.0000
  H   H16       1.0  0.7483861556828868  0.6570791621978317  0.6643560176736898  1.0000
  H   H17       1.0  0.6989040421420897  0.501317411944079  0.6986255262639531  1.0000
  C   C1        1.0  0.8277281699547674  0.5143303284072261  0.35922377943585093  1.0000
  C   C2        1.0  0.6469246609305729  0.7278343053523813  0.49369443154347437  1.0000
  C   C3        1.0  0.17596351577284242  0.4772580231472007  0.641834611718039  1.0000
  C   C4        1.0  0.3595381026561312  0.26928240991919955  0.5030539510606573  1.0000
  C   C5        1.0  0.5784540623371299  0.8676141797570125  0.4951437910995794  1.0000
  C   C6        1.0  0.43321233155518973  0.13017972265276256  0.5003044105439259  1.0000
  C   C7        1.0  0.7174612644945596  0.9435187574889454  0.49048016145032847  1.0000
  C   C8        1.0  0.2900382755180075  0.0579898807521104  0.5040308452448699  1.0000
  C   C9        1.0  0.6485886568282239  0.07221857481390259  0.4934685580268764  1.0000
  C   C10       1.0  0.3628779868347961  0.9287085313888145  0.5019449258053256  1.0000
  C   C11       1.0  0.8801601528435157  0.5124433507685782  0.27418910956302506  1.0000
  C   C12       1.0  0.7120057119505813  0.5522694473551938  0.23059192894917402  1.0000
  C   C13       1.0  0.7423893685726811  0.5507933993074232  0.1518754043548327  1.0000
  C   C14       1.0  0.9476122094111901  0.5081465892212194  0.11408764848387416  1.0000
  C   C15       1.0  0.11661785640583122  0.469638274201266  0.1576922301229473  1.0000
  C   C16       1.0  0.08816476269772273  0.47069246499315653  0.23716680239685667  1.0000
  C   C17       1.0  0.9830166563592683  0.5027255882813721  0.034296769416371775  1.0000
  C   C18       1.0  0.01239962563336405  0.49717596288208926  0.9655860563958711  1.0000
  C   C19       1.0  0.049546610888072044  0.4910441208162908  0.8859086619001104  1.0000
  C   C20       1.0  0.8827041218770258  0.531330757810686  0.8410743005770486  1.0000
  C   C21       1.0  0.9133453646870038  0.5284138713774312  0.761885697514451  1.0000
  C   C22       1.0  0.12139408179069011  0.4827596234013286  0.7262605252121261  1.0000
  C   C23       1.0  0.2874846451823246  0.44228227762881306  0.7709753909224517  1.0000
  C   C24       1.0  0.2550586939278219  0.445480795615133  0.8494063796124394  1.0000
  C   C25       1.0  0.277424135396842  0.42412786973104494  0.2792997400189421  1.0000
  C   C26       1.0  0.7257870615164635  0.5777799405508122  0.718564384743317  1.0000
  O   O1        1.0  0.6385786857618571  0.5140671459521045  0.39240570067281055  1.0000
  O   O2        1.0  0.8405786193599383  0.6718061143760394  0.4954455233198587  1.0000
  O   O3        1.0  0.03245597696830056  0.47006015633768083  0.6085573513211386  1.0000
  O   O4        1.0  0.498306110714431  0.3238160187239387  0.5060087261860886  1.0000
  O   O5        1.0  0.3653598310282645  0.47858478934579557  0.6087886223293281  1.0000
  O   O6        1.0  0.16447688455804144  0.32181281543569906  0.5024008666048659  1.0000
  O   O7        1.0  0.9724091649685886  0.5176179416626782  0.3931915441960356  1.0000
  O   O8        1.0  0.5039357027867554  0.6755628051431444  0.4912006193500745  1.0000
  O   O9        1.0  0.24104996541876741  0.564458839287049  0.46296519147422543  1.0000
  O   O10       1.0  0.7588931289775115  0.43277447504123506  0.5383579398268381  1.0000
  F   F1        1.0  0.9291116534442949  0.89348382899005  0.48184421245113646  1.0000
