data_image0
_chemical_formula_structural       Er2H8C24O16F12
_chemical_formula_sum              "Er2 H8 C24 O16 F12"
_cell_length_a       8.702051611952093
_cell_length_b       8.71587798638624
_cell_length_c       11.511581965816166
_cell_angle_alpha    104.75351426023944
_cell_angle_beta     112.2417065246675
_cell_angle_gamma    99.36391100356212

_space_group_name_H-M_alt    "P 1"
_space_group_IT_number       1

loop_
  _space_group_symop_operation_xyz
  'x, y, z'

loop_
  _atom_site_type_symbol
  _atom_site_label
  _atom_site_symmetry_multiplicity
  _atom_site_fract_x
  _atom_site_fract_y
  _atom_site_fract_z
  _atom_site_occupancy
  Er  Er1       1.0  0.6467178709621776  0.3401385652161225  0.98677603204429  1.0000
  Er  Er2       1.0  0.35328516789083847  0.659864925459992  0.013221328931443552  1.0000
  H   H1        1.0  0.4625116485497571  0.983885332539771  0.8125990655994572  1.0000
  H   H2        1.0  0.1711657996387075  0.6494115462754237  0.1875107043010189  1.0000
  H   H3        1.0  0.5374893513296897  0.016115738634631803  0.18739634138046313  1.0000
  H   H4        1.0  0.8288433961181666  0.35059174084759803  0.8124900913635072  1.0000
  H   H5        1.0  0.5915384258781201  0.9746700825254848  0.9454967228986177  1.0000
  H   H6        1.0  0.028734206740459487  0.6456971703698997  0.05478618859417137  1.0000
  H   H7        1.0  0.4084633455325389  0.025340957460066697  0.05450099903023902  1.0000
  H   H8        1.0  0.9712704330824522  0.3543110720214243  0.9452187068507739  1.0000
  C   C1        1.0  0.6187404858657003  0.6323607691231813  0.2508935901145648  1.0000
  C   C2        1.0  0.3812515033292029  0.3676315719860881  0.7491035171146763  1.0000
  C   C3        1.0  0.7484327761044653  0.636759174046091  0.38473401930949797  1.0000
  C   C4        1.0  0.25155799459340505  0.36322939238992547  0.615263687509227  1.0000
  C   C5        1.0  0.7055562718961993  0.5334572218826139  0.4490112995886548  1.0000
  C   C6        1.0  0.08399249806726056  0.2557475252144243  0.550748899448024  1.0000
  C   C7        1.0  0.2944299330637747  0.46653618347034614  0.5509939555298828  1.0000
  C   C8        1.0  0.9160068852946351  0.7442446414419451  0.4492502602961466  1.0000
  C   C9        1.0  0.8232231746691878  0.5388702678279104  0.5733588919675227  1.0000
  C   C10       1.0  0.9650285982527931  0.24907288374672015  0.4264196629026954  1.0000
  C   C11       1.0  0.17677118212485954  0.4611367356320315  0.4266497889395636  1.0000
  C   C12       1.0  0.03497327840145196  0.7509155955369876  0.5735759499093334  1.0000
  C   C13       1.0  0.9916443900565213  0.6497697357373938  0.6408885360615386  1.0000
  C   C14       1.0  0.008356235470472498  0.3502225181948546  0.3591075172490648  1.0000
  C   C15       1.0  0.11486082282746678  0.6634839467380401  0.7778990079265141  1.0000
  C   C16       1.0  0.8851463462107532  0.3365170663224646  0.22209552309296762  1.0000
  C   C17       1.0  0.8694011191092058  0.8883181926642436  0.8808971536358925  1.0000
  C   C18       1.0  0.007885846791239774  0.9885990208381303  0.11930751961154579  1.0000
  C   C19       1.0  0.13059942400048635  0.11168895629668898  0.11910461640182748  1.0000
  C   C20       1.0  0.992119628214091  0.0114080409087123  0.8806947566396134  1.0000
  C   C21       1.0  0.875528227563329  0.8751097485440908  0.00017313925306434535  1.0000
  C   C22       1.0  0.12447393122214119  0.1249023266590967  0.9998309924747913  1.0000
  C   C23       1.0  0.7420564456307518  0.7415849683680592  0.0002594625611749784  1.0000
  C   C24       1.0  0.2579465458861563  0.25842589710280345  0.9997429121027325  1.0000
  O   O1        1.0  0.0690402962672181  0.5711660419504838  0.8363219757690885  1.0000
  O   O2        1.0  0.7341467669193092  0.23260502580254894  0.16362058828082848  1.0000
  O   O3        1.0  0.9309771149749365  0.4288396938238819  0.16367731154127085  1.0000
  O   O4        1.0  0.26585627928665195  0.7673985521370953  0.8363741863053632  1.0000
  O   O5        1.0  0.6103215761560888  0.5339025416565378  0.144512533873133  1.0000
  O   O6        1.0  0.38968233456975543  0.46608829895320986  0.8554867571943987  1.0000
  O   O7        1.0  0.7712141827615396  0.602118766762608  0.9878260410352057  1.0000
  O   O8        1.0  0.6148405980913126  0.7830279085255469  0.012775145012795948  1.0000
  O   O9        1.0  0.22879457338244438  0.3978908017618324  0.012175082778192322  1.0000
  O   O10       1.0  0.38515793622404  0.21696924252403701  0.987225692249865  1.0000
  O   O11       1.0  0.5226396466196022  0.7264910918673309  0.248716297756026  1.0000
  O   O12       1.0  0.47735646295657835  0.2734986552749561  0.751281428036357  1.0000
  O   O13       1.0  0.5761459645273632  0.043104669246837125  0.8880471129438375  1.0000
  O   O14       1.0  0.15483635992529096  0.6876041392331376  0.11209429815821895  1.0000
  O   O15       1.0  0.4238521310168721  0.9569027414799507  0.11194793801331573  1.0000
  O   O16       1.0  0.8451699453604886  0.31240168369353677  0.8879070831588365  1.0000
  F   F1        1.0  0.5466100507864057  0.4239562043528124  0.3895041219459827  1.0000
  F   F2        1.0  0.03396857883627999  0.15610024831899236  0.610036400757501  1.0000
  F   F3        1.0  0.4533818665625802  0.5760432206727942  0.6105066202699164  1.0000
  F   F4        1.0  0.9660181531301716  0.8438839445190426  0.3899436039920444  1.0000
  F   F5        1.0  0.7668103546707671  0.4319434832532778  0.6252502709361565  1.0000
  F   F6        1.0  0.8062144117402211  0.14053330839351474  0.374273872953637  1.0000
  F   F7        1.0  0.2331769194249844  0.5680757338936361  0.3747720120469751  1.0000
  F   F8        1.0  0.19378303383150092  0.8594377981593908  0.6257168334831958  1.0000
  F   F9        1.0  0.7410744559831812  0.7821654038456601  0.7632030063292987  1.0000
  F   F10       1.0  0.019858142214040746  0.9781173897664817  0.23712687963994478  1.0000
  F   F11       1.0  0.25892855345804827  0.21783773777637092  0.2368047002045941  1.0000
  F   F12       1.0  0.9801469494766691  0.021884716662618996  0.7628733770068975  1.0000
