data_image0
_chemical_formula_structural       Cd2H16C22S2N6Cl2
_chemical_formula_sum              "Cd2 H16 C22 S2 N6 Cl2"
_cell_length_a       7.769065852655931
_cell_length_b       9.306192625976559
_cell_length_c       9.500632267799647
_cell_angle_alpha    102.95186026304403
_cell_angle_beta     107.71919910742459
_cell_angle_gamma    105.2909514792611

_space_group_name_H-M_alt    "P 1"
_space_group_IT_number       1

loop_
  _space_group_symop_operation_xyz
  'x, y, z'

loop_
  _atom_site_type_symbol
  _atom_site_label
  _atom_site_symmetry_multiplicity
  _atom_site_fract_x
  _atom_site_fract_y
  _atom_site_fract_z
  _atom_site_occupancy
  Cd  Cd1       1.0  0.9821232257287633  0.7083732227926164  0.07998423228222869  1.0000
  Cd  Cd2       1.0  0.017877628045347652  0.29163528230394326  0.920014453349097  1.0000
  H   H1        1.0  0.31202965657151077  0.0639263392979075  0.281143343792337  1.0000
  H   H2        1.0  0.6879764551288476  0.9360786495458626  0.7188674477927537  1.0000
  H   H3        1.0  0.4958100042599014  0.24815466468631803  0.5600548688030571  1.0000
  H   H4        1.0  0.5041916742398627  0.7518432478442206  0.439957489969558  1.0000
  H   H5        1.0  0.42521441653634884  0.15981096059383051  0.772718079415519  1.0000
  H   H6        1.0  0.574782801327004  0.8401798632555569  0.22728952166477978  1.0000
  H   H7        1.0  0.1713490148624076  0.8995839590707888  0.7021288355732125  1.0000
  H   H8        1.0  0.8286490104260053  0.1004056723619513  0.2978723883117098  1.0000
  H   H9        1.0  0.6131287820370516  0.43137904188955645  0.06988913332598662  1.0000
  H   H10       1.0  0.38687215946594483  0.5686235467057801  0.9301009107701078  1.0000
  H   H11       1.0  0.4881360825017111  0.3174499258764101  0.24846673752078635  1.0000
  H   H12       1.0  0.5118560301711242  0.682547934977663  0.7515190403733529  1.0000
  H   H13       1.0  0.6805887430503147  0.45178578520395973  0.5440376534822208  1.0000
  H   H14       1.0  0.31939944851075813  0.548206177933743  0.45594902341202487  1.0000
  H   H15       1.0  0.9664429968954025  0.6909161238181484  0.6377438236446552  1.0000
  H   H16       1.0  0.03354927209583994  0.3090758514544873  0.36224912491383077  1.0000
  C   C1        1.0  0.10341770954129731  0.8447034596172501  0.45300709548233453  1.0000
  C   C2        1.0  0.8965834111432825  0.15529325370323482  0.546995390011304  1.0000
  C   C3        1.0  0.2834364380062481  0.0330530768928341  0.3780852224699061  1.0000
  C   C4        1.0  0.7165689631432102  0.9669471919889927  0.6219254130686026  1.0000
  C   C5        1.0  0.38554747886927737  0.13431175258147482  0.5319549478866179  1.0000
  C   C6        1.0  0.6144536829690211  0.86568497929089  0.4680570249267647  1.0000
  C   C7        1.0  0.34599751011885627  0.08524902976747478  0.6505335846954381  1.0000
  C   C8        1.0  0.654002922877993  0.9147429738976599  0.3494740154848089  1.0000
  C   C9        1.0  0.20387295458714783  0.939100217288683  0.6107235864990842  1.0000
  C   C10       1.0  0.7961261131694709  0.060891779583052086  0.3892805175975695  1.0000
  C   C11       1.0  0.940771316399804  0.6932248936946621  0.4036546599131229  1.0000
  C   C12       1.0  0.059228111699866366  0.3067741694166913  0.5963426594784098  1.0000
  C   C13       1.0  0.6858029726861403  0.4864062187861292  0.19679357054628357  1.0000
  C   C14       1.0  0.3141974567280243  0.5135951912123461  0.8031971417372221  1.0000
  C   C15       1.0  0.6187857153369122  0.4222788571372649  0.29772309933523644  1.0000
  C   C16       1.0  0.3812101337035187  0.5777213662520567  0.7022641177647202  1.0000
  C   C17       1.0  0.7226789087859516  0.4966506615909481  0.4582395856687569  1.0000
  C   C18       1.0  0.2773108327595183  0.5033448435212905  0.541748249103165  1.0000
  C   C19       1.0  0.8852278995840732  0.6331471652341207  0.5120871057710233  1.0000
  C   C20       1.0  0.11476352540103824  0.3668459859646021  0.48790378680973134  1.0000
  C   C21       1.0  0.21872635667514123  0.0183702553943945  0.9870820112519496  1.0000
  C   C22       1.0  0.7812785152260134  0.9816535991009163  0.012922078708584344  1.0000
  S   S1        1.0  0.2470493518018913  0.8488952759230416  0.9758215266163647  1.0000
  S   S2        1.0  0.7529589975705946  0.15111796455060764  0.024185308159793858  1.0000
  N   N1        1.0  0.1467350737944387  0.8921455614306952  0.33961779968501576  1.0000
  N   N2        1.0  0.8532686347701101  0.10785705724200062  0.6603876697513869  1.0000
  N   N3        1.0  0.8419074754889522  0.6175731155430811  0.24816931903302478  1.0000
  N   N4        1.0  0.1580943283107176  0.38242830537142686  0.7518269976273616  1.0000
  N   N5        1.0  0.20419825497835117  0.14322394962419338  0.9955355928293417  1.0000
  N   N6        1.0  0.7958118655626552  0.8567810204347097  0.004465658220411338  1.0000
  Cl  Cl1       1.0  0.22586782935678681  0.5444258534242934  0.1588503826124068  1.0000
  Cl  Cl2       1.0  0.7741406031719437  0.45558146848679837  0.8411467564818765  1.0000
