data_image0
_chemical_formula_structural       Bi4H40C12S12O44
_chemical_formula_sum              "Bi4 H40 C12 S12 O44"
_cell_length_a       10.481329992
_cell_length_b       10.498
_cell_length_c       11.475031860148778
_cell_angle_alpha    115.4456575412616
_cell_angle_beta     90.0
_cell_angle_gamma    90.0

_space_group_name_H-M_alt    "P 1"
_space_group_IT_number       1

loop_
  _space_group_symop_operation_xyz
  'x, y, z'

loop_
  _atom_site_type_symbol
  _atom_site_label
  _atom_site_symmetry_multiplicity
  _atom_site_fract_x
  _atom_site_fract_y
  _atom_site_fract_z
  _atom_site_occupancy
  Bi  Bi1       1.0  0.6534266171590275  0.24375606373438072  0.2756952578946041  1.0000
  Bi  Bi2       1.0  0.1534280478934846  0.2562434632775634  0.7243051547719972  1.0000
  Bi  Bi3       1.0  0.3465733836042375  0.7562453684023468  0.7243051547719972  1.0000
  Bi  Bi4       1.0  0.8465729069471735  0.7437556104939276  0.2756942928183719  1.0000
  H   H1        1.0  0.4657118899725248  0.3663004988045985  0.0183827721035854  1.0000
  H   H2        1.0  0.9657114133154536  0.13370043401018708  0.981618605639241  1.0000
  H   H3        1.0  0.5342890648681333  0.6337008872506402  0.9816195707154733  1.0000
  H   H4        1.0  0.0342885874478043  0.8663029032513238  0.018381807027353095  1.0000
  H   H5        1.0  0.4832115775255303  0.5413995992897043  0.1464561089538137  1.0000
  H   H6        1.0  0.9832120549458594  0.9586012874435924  0.8535471989414845  1.0000
  H   H7        1.0  0.5167874691603345  0.4586002887997083  0.8535491290939561  1.0000
  H   H8        1.0  0.0167898539721918  0.0414033634577819  0.1464580391062782  1.0000
  H   H9        1.0  0.11446925160411328  0.4505783872417197  0.43983542375865164  1.0000
  H   H10       1.0  0.6144687749470492  0.049421639092166486  0.5601640238317174  1.0000
  H   H11       1.0  0.8855307491591446  0.5494211397702244  0.5601649889079496  1.0000
  H   H12       1.0  0.38553217989360883  0.9505788865636617  0.4398344586824123  1.0000
  H   H13       1.0  0.1526457044307534  0.2997202757702979  0.2923437880058515  1.0000
  H   H14       1.0  0.6526442736962892  0.20028020380403433  0.7076566246607499  1.0000
  H   H15       1.0  0.8473533422551185  0.7002787980011932  0.7076556595845175  1.0000
  H   H16       1.0  0.3473547729895756  0.799720275770298  0.2923437880058515  1.0000
  H   H17       1.0  0.1952452600540155  0.6117042046349255  0.3435246759189923  1.0000
  H   H18       1.0  0.6952457374743446  0.8882958216989607  0.6564747716713697  1.0000
  H   H19       1.0  0.8047547407092424  0.3882948691365655  0.6564747716713697  1.0000
  H   H20       1.0  0.3047542632889204  0.11170375139447232  0.34352371084276  1.0000
  H   H21       1.0  0.2437715444461901  0.4597460775304185  0.20073296142535207  1.0000
  H   H22       1.0  0.7437720218665191  0.040253948803467735  0.7992664861650098  1.0000
  H   H23       1.0  0.7562284563170749  0.5402524969191305  0.799267451241242  1.0000
  H   H24       1.0  0.256228932974139  0.9597460775304189  0.20073296142535207  1.0000
  H   H25       1.0  0.885483045289469  0.18438409510667947  0.401862569182846  1.0000
  H   H26       1.0  0.3854797056369605  0.31561452542436547  0.5981359133312836  1.0000
  H   H27       1.0  0.1145179095511892  0.8156159312272068  0.5981368784075158  1.0000
  H   H28       1.0  0.6145174328941181  0.6843845483471256  0.40186353425907834  1.0000
  H   H29       1.0  0.7806795517596967  0.10083045693436078  0.43436440658859243  1.0000
  H   H30       1.0  0.2806771661845815  0.3991705219619135  0.5656350410017694  1.0000
  H   H31       1.0  0.21932140308096137  0.8991681635966771  0.5656340759255372  1.0000
  H   H32       1.0  0.7193209264238973  0.6008309101748142  0.4343653716648248  1.0000
  H   H33       1.0  0.5150262422917891  0.11643522839148801  0.0103456172275571  1.0000
  H   H34       1.0  0.0150276730262462  0.38356243957715475  0.9896528652865726  1.0000
  H   H35       1.0  0.48497280439407575  0.8835628928176079  0.989653830362812  1.0000
  H   H36       1.0  0.9849723277370118  0.6164371335162784  0.0103456172275571  1.0000
  H   H37       1.0  0.409631220777996  0.1740940433207854  0.117185346779209  1.0000
  H   H38       1.0  0.9096326522757181  0.32590643625355403  0.8828150658873923  1.0000
  H   H39       1.0  0.5903668718304758  0.8259059830131008  0.882814100811153  1.0000
  H   H40       1.0  0.0903673484875398  0.6740935900803322  0.11718438170297668  1.0000
  C   C1        1.0  0.5118319911780915  0.46933434396556356  0.0479305111573254  1.0000
  C   C2        1.0  0.0118324678351556  0.03066559020533796  0.9520727967379727  1.0000
  C   C3        1.0  0.4881680095851735  0.5306650908833959  0.952073761814205  1.0000
  C   C4        1.0  0.9881694410828955  0.9693376548931951  0.0479314762335576  1.0000
  C   C5        1.0  0.1282690270248281  0.4121606389705761  0.3354585687559464  1.0000
  C   C6        1.0  0.628267596290371  0.0878403399256982  0.6645408788344227  1.0000
  C   C7        1.0  0.87173192781583  0.5878384348009149  0.6645408788344227  1.0000
  C   C8        1.0  0.3717314503955009  0.912159686408188  0.3354585687559464  1.0000
  C   C9        1.0  0.2250306022041357  0.5007930570695295  0.3046842178089051  1.0000
  C   C10       1.0  0.7250301255470646  0.999207921826752  0.6953152297814639  1.0000
  C   C11       1.0  0.7749693985591293  0.49920601670196163  0.6953152297814639  1.0000
  C   C12       1.0  0.2749698752161933  0.0007921045071341908  0.3046842178089051  1.0000
  S   S1        1.0  0.6778023404875526  0.439484905989346  0.0601570619647802  1.0000
  S   S2        1.0  0.1778037712220168  0.060519698830539384  0.939850106235454  1.0000
  S   S3        1.0  0.3221957521209191  0.5605196988305394  0.939850106235454  1.0000
  S   S4        1.0  0.8221971836186412  0.9394839995084399  0.0601551318123086  1.0000
  S   S5        1.0  0.9760831886610433  0.4240096996050582  0.2714952461246085  1.0000
  S   S6        1.0  0.4760827112407143  0.07599037281031677  0.7285022713132889  1.0000
  S   S7        1.0  0.0239158580248215  0.5759907799692741  0.7285051665419857  1.0000
  S   S8        1.0  0.5239172895225437  0.9240092002831162  0.2714962112008408  1.0000
  S   S9        1.0  0.3744648821281018  0.503717488935493  0.3807283647363704  1.0000
  S   S10       1.0  0.8744634513936375  0.9962825834798822  0.619269152701527  1.0000
  S   S11       1.0  0.6255360727125563  0.4962839432012345  0.6192720479302309  1.0000
  S   S12       1.0  0.1255355952922272  0.0037165363730977674  0.3807283647363704  1.0000
  O   O1        1.0  0.7255243376369407  0.3365639577210544  0.9363883777844109  1.0000
  O   O2        1.0  0.2255248142940047  0.1634375665786578  0.0636081745772543  1.0000
  O   O3        1.0  0.2744747090489312  0.663438019819111  0.0636091396534866  1.0000
  O   O4        1.0  0.7744751864692532  0.8365634583991124  0.936389342860643  1.0000
  O   O5        1.0  0.688152172053087  0.3984037179468061  0.1675256532926142  1.0000
  O   O6        1.0  0.188151694632765  0.10159630838708006  0.8324737942977478  1.0000
  O   O7        1.0  0.311848782787564  0.6015963083870801  0.8324737942977478  1.0000
  O   O8        1.0  0.8118483061305001  0.898403264706353  0.1675246882163819  1.0000
  O   O9        1.0  0.3426521255166293  0.5370861606660853  0.517623463440799  1.0000
  O   O10       1.0  0.8426526029369584  0.9629133663458589  0.4823769492258023  1.0000
  O   O11       1.0  0.6573469211692355  0.46291286702391693  0.4823779143020346  1.0000
  O   O12       1.0  0.1573473978263067  0.03708665998802728  0.5176224983645668  1.0000
  O   O13       1.0  0.8872833893311523  0.35029199392955956  0.320624381964457  1.0000
  O   O14       1.0  0.3872819578334301  0.14970712592342747  0.6793731354734404  1.0000
  O   O15       1.0  0.1127166114321128  0.6497089849667219  0.679375065625905  1.0000
  O   O16       1.0  0.6127170888524418  0.8502910413671643  0.320624381964457  1.0000
  O   O17       1.0  0.9503202368022556  0.5799138635987262  0.3319341103496924  1.0000
  O   O18       1.0  0.45031975938192664  0.9200871152975554  0.6680653372406695  1.0000
  O   O19       1.0  0.0496807180384025  0.42008616273516003  0.6680653372406695  1.0000
  O   O20       1.0  0.5496811954587315  0.07991291103633098  0.3319341103496924  1.0000
  O   O21       1.0  0.9857394059614464  0.3632776819867587  0.1316692108977833  1.0000
  O   O22       1.0  0.4857398826185176  0.13672189110667424  0.8683292716163464  1.0000
  O   O23       1.0  0.0142586866470253  0.6367223904286163  0.8683283065401071  1.0000
  O   O24       1.0  0.5142610722221406  0.8632776819867587  0.1316692108977833  1.0000
  O   O25       1.0  0.7932199450208869  0.18591112573984964  0.4199934563893848  1.0000
  O   O26       1.0  0.2932166053683787  0.3140884473535834  0.5800050261247449  1.0000
  O   O27       1.0  0.2067810098197711  0.8140874947911884  0.5800050261247449  1.0000
  O   O28       1.0  0.7067805331627071  0.6859101731774545  0.4199934563893848  1.0000
  O   O29       1.0  0.4981199908775835  0.1398784215188726  0.1021060306243058  1.0000
  O   O30       1.0  0.9981214223753057  0.3601221041369557  0.897892451889824  1.0000
  O   O31       1.0  0.5018790558082813  0.8601221041369557  0.897892451889824  1.0000
  O   O32       1.0  0.0018785783879522  0.6398774689564776  0.1021060306243058  1.0000
  O   O33       1.0  0.4505535083433542  0.6132264347519225  0.3675820962779994  1.0000
  O   O34       1.0  0.95055207760889  0.8867721396976265  0.6324183163886018  1.0000
  O   O35       1.0  0.5494474464973038  0.3867725468565837  0.6324212116173058  1.0000
  O   O36       1.0  0.04944792315436789  0.11322788663625968  0.3675811312017601  1.0000
  O   O37       1.0  0.42677980785017405  0.3595509299249997  0.3160547459968726  1.0000
  O   O38       1.0  0.9267793311931031  0.1404481438464913  0.6839447015934894  1.0000
  O   O39       1.0  0.5732201929130909  0.6404490964088865  0.6839447015934894  1.0000
  O   O40       1.0  0.0732206695701549  0.8595518824873879  0.3160547459968726  1.0000
  O   O41       1.0  0.7381496437861585  0.5811272944170227  0.09671704493413098  1.0000
  O   O42       1.0  0.2381491663658295  0.9188736383977627  0.9032843328087026  1.0000
  O   O43       1.0  0.2618513110544924  0.4188736383977627  0.9032843328087026  1.0000
  O   O44       1.0  0.7618508343974284  0.0811277937389647  0.0967160798578988  1.0000
