data_image0
_chemical_formula_structural       KCrH12C6N4O12
_chemical_formula_sum              "K1 Cr1 H12 C6 N4 O12"
_cell_length_a       4.724422496663169
_cell_length_b       7.317791063536248
_cell_length_c       11.967834278717591
_cell_angle_alpha    64.71035531173742
_cell_angle_beta     73.61320770235173
_cell_angle_gamma    85.524163696729

_space_group_name_H-M_alt    "P 1"
_space_group_IT_number       1

loop_
  _space_group_symop_operation_xyz
  'x, y, z'

loop_
  _atom_site_type_symbol
  _atom_site_label
  _atom_site_symmetry_multiplicity
  _atom_site_fract_x
  _atom_site_fract_y
  _atom_site_fract_z
  _atom_site_occupancy
  K   K1        1.0  0.5000005202129074  2.92986803881412e-06  0.999999894701638  1.0000
  Cr  Cr1       1.0  0.5000030638277619  4.731867413461739e-06  0.49999894507676873  1.0000
  H   H1        1.0  0.17596061483225606  0.6686534269292466  0.5589005621229718  1.0000
  H   H2        1.0  0.8240409874448531  0.33134736392965886  0.44109957874317735  1.0000
  H   H3        1.0  0.12016919305003168  0.8626132882005566  0.4325337223170891  1.0000
  H   H4        1.0  0.879828022827908  0.13738741652519343  0.5674660712569023  1.0000
  H   H5        1.0  0.15333497849331218  0.34573604252395995  0.6235520756028025  1.0000
  H   H6        1.0  0.8466710988173884  0.6542652469551983  0.37644579868933903  1.0000
  H   H7        1.0  0.826465020665374  0.422639725692008  0.6877931800798153  1.0000
  H   H8        1.0  0.17354111470226738  0.5773600610011017  0.31220500513448  1.0000
  H   H9        1.0  0.001701489534255478  0.3585752099097376  0.9633016317945505  1.0000
  H   H10       1.0  0.9982981095191762  0.6414228760497522  0.036696779048014584  1.0000
  H   H11       1.0  0.7614065394197808  0.4823630420840177  0.8699773875164496  1.0000
  H   H12       1.0  0.2385952380608387  0.5176350181941985  0.13002163261655403  1.0000
  C   C1        1.0  0.16725488518277837  0.922859890543151  0.7527552850273906  1.0000
  C   C2        1.0  0.8327402388370614  0.07713769679608622  0.24724539238917492  1.0000
  C   C3        1.0  0.4294574057870192  0.7801615319653764  0.7633055410884779  1.0000
  C   C4        1.0  0.5705377182328205  0.21983605537385395  0.23669513632808764  1.0000
  C   C5        1.0  0.14432127063268038  0.37583041214983837  0.7818169789754066  1.0000
  C   C6        1.0  0.8556825976733577  0.6241689877374482  0.2181832108146011  1.0000
  N   N1        1.0  0.9490834161585724  0.4021882557975474  0.8791181390481952  1.0000
  N   N2        1.0  0.050916065748303686  0.5978110579565837  0.12088170344966188  1.0000
  N   N3        1.0  0.05242044063564318  0.43333769177144904  0.6694584535599973  1.0000
  N   N4        1.0  0.9475834572152023  0.5666618456115344  0.3305408649412911  1.0000
  O   O1        1.0  0.5911088065529028  0.7880261026448993  0.6530730466460853  1.0000
  O   O2        1.0  0.4088905582074105  0.2119744389038729  0.34692822750705693  1.0000
  O   O3        1.0  0.9893641592452981  0.9276903709572225  0.8488758308199849  1.0000
  O   O4        1.0  0.010635409230651796  0.07230579972912209  0.1511255048108779  1.0000
  O   O5        1.0  0.1601939943496546  0.03208628411599079  0.6333511493330661  1.0000
  O   O6        1.0  0.8398010420684372  0.9679126685135915  0.36665008845007213  1.0000
  O   O7        1.0  0.4689586309443571  0.6707118599083731  0.8692113231815599  1.0000
  O   O8        1.0  0.5310388467061669  0.32928297116890093  0.1307888427922919  1.0000
  O   O9        1.0  0.2679391751874221  0.7999905064066156  0.48175133663884406  1.0000
  O   O10       1.0  0.7320601906055586  0.20001181291960526  0.5182478840147198  1.0000
  O   O11       1.0  0.3934880974656778  0.3064839785807579  0.7863584982089193  1.0000
  O   O12       1.0  0.6065137085270748  0.693512441415713  0.21364170413495032  1.0000
