data_image0
_chemical_formula_structural       Zn2H40C60N6O8
_chemical_formula_sum              "Zn2 H40 C60 N6 O8"
_cell_length_a       10.372234392444922
_cell_length_b       12.687569110700093
_cell_length_c       12.905856159347797
_cell_angle_alpha    62.931225880580136
_cell_angle_beta     87.98926319858836
_cell_angle_gamma    71.61245465987815

_space_group_name_H-M_alt    "P 1"
_space_group_IT_number       1

loop_
  _space_group_symop_operation_xyz
  'x, y, z'

loop_
  _atom_site_type_symbol
  _atom_site_label
  _atom_site_symmetry_multiplicity
  _atom_site_fract_x
  _atom_site_fract_y
  _atom_site_fract_z
  _atom_site_occupancy
  Zn  Zn1       1.0  0.4064768115523165  0.44683536890922687  0.9071975605390962  1.0000
  Zn  Zn2       1.0  0.5935168573860709  0.553173383408577  0.09278913322785347  1.0000
  H   H1        1.0  0.6872680458425081  0.5851807457861896  0.41235275196400784  1.0000
  H   H2        1.0  0.31272961488759426  0.41481515902466987  0.5876517449894578  1.0000
  H   H3        1.0  0.13129210934224034  0.5010033550040589  0.9887307756056176  1.0000
  H   H4        1.0  0.868727467057859  0.49899572885369275  0.011284415531875428  1.0000
  H   H5        1.0  0.634502550335249  0.582619014103038  0.6318588101112184  1.0000
  H   H6        1.0  0.36551983394676313  0.4173517468932316  0.36815586169379344  1.0000
  H   H7        1.0  0.9511658583096857  0.6740145884702714  0.007406409062596707  1.0000
  H   H8        1.0  0.04885717978106639  0.32598316781914605  0.9926113998762391  1.0000
  H   H9        1.0  0.8050361098247978  0.6868761225717248  0.855172937559182  1.0000
  H   H10       1.0  0.1949867536327687  0.31309118112610423  0.14484845377379682  1.0000
  H   H11       1.0  0.9919098324929935  0.7252303978971072  0.730401544307334  1.0000
  H   H12       1.0  0.00808974774470529  0.27477117712052757  0.2695991554535695  1.0000
  H   H13       1.0  0.36219399794491375  0.726939615170174  0.817139813411842  1.0000
  H   H14       1.0  0.6378138840820212  0.27306566243148467  0.18285664324046996  1.0000
  H   H15       1.0  0.8095904897204065  0.8404154039934612  0.011328115521116905  1.0000
  H   H16       1.0  0.19040844574323051  0.15957899233048775  0.9886737452872156  1.0000
  H   H17       1.0  0.9836354588131899  0.005104181318188173  0.8727853525559014  1.0000
  H   H18       1.0  0.016352775616809447  0.994903033388475  0.12721629342111396  1.0000
  H   H19       1.0  0.988730433291913  0.6677675534528902  0.17892472556234654  1.0000
  H   H20       1.0  0.0112697092012226  0.3322265153248339  0.8210795212410816  1.0000
  H   H21       1.0  0.4634798807259487  0.16019843066624867  0.07008970561574303  1.0000
  H   H22       1.0  0.5364996101123084  0.8398273356033884  0.9298923058637669  1.0000
  H   H23       1.0  0.1893882399396247  0.9132813731419915  0.8206960222313101  1.0000
  H   H24       1.0  0.8106167690265451  0.0867256902119848  0.17929370945049783  1.0000
  H   H25       1.0  0.18430601250412354  0.6834834492172062  0.6030857702291926  1.0000
  H   H26       1.0  0.8156970779364129  0.3165134518425959  0.3969008576213183  1.0000
  H   H27       1.0  0.16871396192969715  0.7460379355284841  0.4493644638778209  1.0000
  H   H28       1.0  0.831277529647501  0.253971718595146  0.5506228097284095  1.0000
  H   H29       1.0  0.10874062137362726  0.7067888034063402  0.31418877716482285  1.0000
  H   H30       1.0  0.8912562034508795  0.2932098058701627  0.6858155423664273  1.0000
  H   H31       1.0  0.6265535589983601  0.9540155137661085  0.09287594780751374  1.0000
  H   H32       1.0  0.3734116650204911  0.046002290459291786  0.9071185102338434  1.0000
  H   H33       1.0  0.8605946490202786  0.9260010514048886  0.4131106796556381  1.0000
  H   H34       1.0  0.1394052961406942  0.07399260946968407  0.5869046494374858  1.0000
  H   H35       1.0  0.23307561137782787  0.8602235108778162  0.6046015913056237  1.0000
  H   H36       1.0  0.7669244682092468  0.1397722802027914  0.39541059453090815  1.0000
  H   H37       1.0  0.6513910863109161  0.3626538605054249  0.8008702095858666  1.0000
  H   H38       1.0  0.3486050961241674  0.6373428276902686  0.1991130323167383  1.0000
  H   H39       1.0  0.8199500642785934  0.16769872802247932  0.8095033005365623  1.0000
  H   H40       1.0  0.18003423562636583  0.8322905869507049  0.19048655958467034  1.0000
  C   C1        1.0  0.8117781597215056  0.6412293034605412  0.577203253739313  1.0000
  C   C2        1.0  0.18822964458475863  0.35876183056973343  0.4228008278958272  1.0000
  C   C3        1.0  0.7771371273288922  0.6144857957761829  0.39167489776844633  1.0000
  C   C4        1.0  0.22286367531415863  0.38551258369443525  0.6083300376423324  1.0000
  C   C5        1.0  0.13985613893088095  0.5940090088121579  0.9544426767112173  1.0000
  C   C6        1.0  0.8601522011158452  0.4059996302170389  0.04556263394526637  1.0000
  C   C7        1.0  0.7125613671879805  0.6142145096213696  0.6512752970167457  1.0000
  C   C8        1.0  0.2874541344810666  0.3857684950220771  0.3487352356525406  1.0000
  C   C9        1.0  0.7123505218155516  0.6295649562146934  0.7522246742536822  1.0000
  C   C10       1.0  0.28766527465941755  0.37041603147704183  0.24778035431909023  1.0000
  C   C11       1.0  0.6101324195198785  0.59813874844982  0.8354126767956771  1.0000
  C   C12       1.0  0.38986172957603316  0.4018620544821445  0.16457383547538035  1.0000
  C   C13       1.0  0.040027400738047336  0.6910844658482561  0.9634985743467795  1.0000
  C   C14       1.0  0.9599873369661508  0.30891933755740547  0.03650814004843284  1.0000
  C   C15       1.0  0.811331752677461  0.6722420236728937  0.7780029926984326  1.0000
  C   C16       1.0  0.1886753391507128  0.3277431126043736  0.22200727212435117  1.0000
  C   C17       1.0  0.05505967076132382  0.8103481898040813  0.9147404962567905  1.0000
  C   C18       1.0  0.9449514506523259  0.18965713760247385  0.08526197704602369  1.0000
  C   C19       1.0  0.9145454668015419  0.6779117671694479  0.608642512341973  1.0000
  C   C20       1.0  0.08545830298075432  0.32209161003206077  0.3913564716874022  1.0000
  C   C21       1.0  0.8397643670441898  0.6409678802993852  0.4665400103968695  1.0000
  C   C22       1.0  0.16023973789164364  0.35902882667324587  0.533463002631308  1.0000
  C   C23       1.0  0.7616285687129577  0.6023124464589742  0.2039075487553533  1.0000
  C   C24       1.0  0.23837640809883712  0.3976906031963098  0.7960938212691175  1.0000
  C   C25       1.0  0.9147557941983778  0.6945805641886336  0.7084610635301021  1.0000
  C   C26       1.0  0.0852455245725707  0.30541891304444146  0.2915418699588699  1.0000
  C   C27       1.0  0.9590044604745813  0.6763462302484626  0.43691562706710124  1.0000
  C   C28       1.0  0.040988686135271686  0.3236511332444111  0.5630854893809883  1.0000
  C   C29       1.0  0.8299574395403084  0.6265550953469373  0.2869118330913167  1.0000
  C   C30       1.0  0.17004008196573045  0.3734381378956896  0.7130928902258591  1.0000
  C   C31       1.0  0.2685167141430469  0.720451317564738  0.8562197992942799  1.0000
  C   C32       1.0  0.731489588748502  0.27955640275114035  0.14377896381391517  1.0000
  C   C33       1.0  0.8368283592507527  0.9256110857863507  0.9632731639665836  1.0000
  C   C34       1.0  0.16316274922196777  0.0743898510806034  0.0367283059570767  1.0000
  C   C35       1.0  0.9557148724931469  0.9200418174750522  0.9158187091984544  1.0000
  C   C36       1.0  0.04427982631639079  0.07996387275478871  0.08418621940093371  1.0000
  C   C37       1.0  0.9476438040790001  0.6621164528678064  0.25937152351927756  1.0000
  C   C38       1.0  0.0523594337788396  0.33787445278436923  0.7406360494054882  1.0000
  C   C39       1.0  0.0540259840000133  0.8788514017190961  0.5090305554527748  1.0000
  C   C40       1.0  0.9459736783355979  0.12115061644446708  0.49097387284653854  1.0000
  C   C41       1.0  0.7399713607595615  0.04254459833626359  0.953907488426758  1.0000
  C   C42       1.0  0.26001615737634165  0.9574515851677955  0.046090522821181444  1.0000
  C   C43       1.0  0.5450444939963149  0.15637166524982155  0.014823391827782454  1.0000
  C   C44       1.0  0.4549344649174856  0.8436416294704825  0.985167208547118  1.0000
  C   C45       1.0  0.17266340881938189  0.8231129842024316  0.8599100255613906  1.0000
  C   C46       1.0  0.8273379257481324  0.17689786681751937  0.1400863209539978  1.0000
  C   C47       1.0  0.11122969376489068  0.7470322105199261  0.5223565678027385  1.0000
  C   C48       1.0  0.8887738796671982  0.2529662666910397  0.47764659749248045  1.0000
  C   C49       1.0  0.014234613804717432  0.6855943781453675  0.33407526957397954  1.0000
  C   C50       1.0  0.9857681496755223  0.3144005261674536  0.665928500715701  1.0000
  C   C51       1.0  0.6358775223343897  0.042601563948636616  0.0268923926420968  1.0000
  C   C52       1.0  0.36410070872545935  0.957408601019452  0.9731025412656821  1.0000
  C   C53       1.0  0.92246704274028  0.9584972945643812  0.45086558614644906  1.0000
  C   C54       1.0  0.07754032655403618  0.04149767693675701  0.5491511269727667  1.0000
  C   C55       1.0  0.13083547513455332  0.921774835644804  0.5580463248876273  1.0000
  C   C56       1.0  0.869163185696962  0.0782192509922695  0.4419658065648663  1.0000
  C   C57       1.0  0.65019699896488  0.2696858281204726  0.8639461800050796  1.0000
  C   C58       1.0  0.34979132572760113  0.7303231366197949  0.136032971703294  1.0000
  C   C59       1.0  0.7441209022072857  0.16080639114909442  0.8705132132914672  1.0000
  C   C60       1.0  0.2558627783160928  0.8391882016416902  0.12947705468936732  1.0000
  N   N1        1.0  0.2530370838270315  0.6072240643986149  0.9024964163238068  1.0000
  N   N2        1.0  0.7469735214587205  0.3927801652454831  0.09750805890082151  1.0000
  N   N3        1.0  0.5517991818469595  0.2684227775474568  0.9351195393372081  1.0000
  N   N4        1.0  0.4481910100249351  0.731590170339473  0.06486268697361909  1.0000
  N   N5        1.0  0.0034539322182496088  0.6960950957671841  0.524541139526761  1.0000
  N   N6        1.0  0.9965403027915728  0.30391118376030596  0.47545891919943983  1.0000
  O   O1        1.0  0.5435558607757898  0.5339256729002315  0.8240150400356613  1.0000
  O   O2        1.0  0.4564039445025542  0.4661119413644458  0.1759403889971694  1.0000
  O   O3        1.0  0.5956745887174649  0.6376062405569483  0.9114563081938557  1.0000
  O   O4        1.0  0.40433280369654784  0.3623729280434135  0.08854446840144449  1.0000
  O   O5        1.0  0.6829416066640023  0.5356366416678782  0.24498859127827907  1.0000
  O   O6        1.0  0.31703431880919913  0.4643825859624898  0.7549976449660392  1.0000
  O   O7        1.0  0.7800464428844547  0.649237837079447  0.09651551346902215  1.0000
  O   O8        1.0  0.21998453263349663  0.35075280206199705  0.9034849586335059  1.0000
