data_image0
_chemical_formula_structural       Hg4H56C56Br8N16
_chemical_formula_sum              "Hg4 H56 C56 Br8 N16"
_cell_length_a       4.214447184
_cell_length_b       18.800160140512084
_cell_length_c       20.0902
_cell_angle_alpha    98.4293311527273
_cell_angle_beta     90.0
_cell_angle_gamma    90.0

_space_group_name_H-M_alt    "P 1"
_space_group_IT_number       1

loop_
  _space_group_symop_operation_xyz
  'x, y, z'

loop_
  _atom_site_type_symbol
  _atom_site_label
  _atom_site_symmetry_multiplicity
  _atom_site_fract_x
  _atom_site_fract_y
  _atom_site_fract_z
  _atom_site_occupancy
  Hg  Hg1       1.0  0.0585130123201481  0.2499985225898413  0.2500001084308749  1.0000
  Hg  Hg2       1.0  0.9414544367914388  0.749997718645993  0.7499991270771389  1.0000
  Hg  Hg3       1.0  0.9270919362410055  0.750000944960689  0.24999658312121656  1.0000
  Hg  Hg4       1.0  0.072896867984575  0.2500028243427721  0.7500056760818907  1.0000
  H   H1        1.0  0.1358636079659092  0.20559045162210046  0.39582222942417644  1.0000
  H   H2        1.0  0.1358683535467904  0.294408744434044  0.10417878024258441  1.0000
  H   H3        1.0  0.8641180778883353  0.7944079404901956  0.6041773011337171  1.0000
  H   H4        1.0  0.8641346874214406  0.7055961003076519  0.8958216354649695  1.0000
  H   H5        1.0  0.3347841219499799  0.2504507443669438  0.5134612128627154  1.0000
  H   H6        1.0  0.334788867530861  0.2495500648465523  0.9865395203363293  1.0000
  H   H7        1.0  0.6652189190182511  0.7495476477453522  0.4865368244298054  1.0000
  H   H8        1.0  0.6652402741322376  0.7504542421760263  0.01346231487412549  1.0000
  H   H9        1.0  0.6365247641931262  0.365985611489691  0.53315405404787  1.0000
  H   H10       1.0  0.6364986634982585  0.1340103582517571  0.9668440242684397  1.0000
  H   H11       1.0  0.3635043774699724  0.6340090165887915  0.46684048037661086  1.0000
  H   H12       1.0  0.3635043774699724  0.8659901847370078  0.0331602811354585  1.0000
  H   H13       1.0  0.4683129041201468  0.3868249158554988  0.324729107710759  1.0000
  H   H14       1.0  0.4683010401679297  0.11317159160506658  0.1752695421231394  1.0000
  H   H15       1.0  0.5316782728958742  0.6131707876612111  0.6752670675040309  1.0000
  H   H16       1.0  0.5316877640576436  0.8868332531366291  0.8247353533805325  1.0000
  H   H17       1.0  0.8782171986996232  0.551703577717724  0.40174177700322394  1.0000
  H   H18       1.0  0.878224317070952  0.9482956236080753  0.0982569934883486  1.0000
  H   H19       1.0  0.12176211436418069  0.4482953521136892  0.5982548407863959  1.0000
  H   H20       1.0  0.1217739783163907  0.051706532538041486  0.9017455421824678  1.0000
  H   H21       1.0  0.4905388321981193  0.5177772654908637  0.37958382469326324  1.0000
  H   H22       1.0  0.4905459505694481  0.982218171801115  0.12041841150200133  1.0000
  H   H23       1.0  0.5094428536561324  0.4822184380258534  0.6204153370522789  1.0000
  H   H24       1.0  0.5094499720274612  0.0177812957494154  0.8795862441320779  1.0000
  H   H25       1.0  0.8256598903909733  0.47486136507183113  0.33827352690905604  1.0000
  H   H26       1.0  0.8256670087623021  0.0251378309843133  0.161725491737208  1.0000
  H   H27       1.0  0.1743217954632712  0.5251381024786994  0.6617216713776628  1.0000
  H   H28       1.0  0.1743336594154812  0.9748637874426791  0.8382784634365096  1.0000
  H   H29       1.0  0.6481182182967871  0.8916818664114743  0.19825788265187333  1.0000
  H   H30       1.0  0.6481205910872347  0.6083081936893393  0.3017416248981776  1.0000
  H   H31       1.0  0.3518871954618845  0.1083165257008218  0.8017446344367656  1.0000
  H   H32       1.0  0.35189194104277277  0.3916912738611913  0.6982540711436657  1.0000
  H   H33       1.0  0.3328906351766037  0.0054621507869399  0.2376404002281944  1.0000
  H   H34       1.0  0.3328787712243866  0.4945305926398049  0.26235624000303664  1.0000
  H   H35       1.0  0.6671076602107462  0.9945373167635907  0.7623617666302638  1.0000
  H   H36       1.0  0.6671290153247327  0.5054704880680703  0.7376401750813459  1.0000
  H   H37       1.0  0.1466337037859091  0.027627470494408595  0.3562094296758076  1.0000
  H   H38       1.0  0.1466123486719226  0.4723717255617359  0.14378809570508372  1.0000
  H   H39       1.0  0.8533764555536578  0.9723709216178874  0.6437930874128384  1.0000
  H   H40       1.0  0.8533788283440984  0.5276331191799598  0.8562093334717247  1.0000
  H   H41       1.0  0.6017847393196831  0.8285170772167161  0.386063571078779  1.0000
  H   H42       1.0  0.6018013488527814  0.6714778223561453  0.11393709808864123  1.0000
  H   H43       1.0  0.3982088104867785  0.17147970173822805  0.613936733701948  1.0000
  H   H44       1.0  0.3982064376963379  0.32852540922819873  0.8860611053110006  1.0000
  H   H45       1.0  0.2280631262028905  0.9017684016016148  0.5469277581515329  1.0000
  H   H46       1.0  0.2280773629455481  0.598229186566833  0.9530727820731216  1.0000
  H   H47       1.0  0.771906695699144  0.0982305282297986  0.4530743349444606  1.0000
  H   H48       1.0  0.7719114412800323  0.4017702809836976  0.046924904989218405  1.0000
  H   H49       1.0  0.5863710926030663  0.8827471255692032  0.5007315615121684  1.0000
  H   H50       1.0  0.5863805837648357  0.6172499248801273  0.9992689049500144  1.0000
  H   H51       1.0  0.4136034748798494  0.11725019110486559  0.4992732968271554  1.0000
  H   H52       1.0  0.4136129660416188  0.38274846723216877  0.0007266435668853163  1.0000
  H   H53       1.0  0.2402236772223816  0.8324967363990508  0.4752671411098889  1.0000
  H   H54       1.0  0.2402355411745987  0.6675030026458655  0.0247307076339069  1.0000
  H   H55       1.0  0.7597532630509747  0.16750380658971403  0.5247331822530228  1.0000
  H   H56       1.0  0.7597627542127511  0.3324980780620166  0.9752657074504754  1.0000
  C   C1        1.0  0.2614340509908288  0.2566146186011125  0.4081072119976881  1.0000
  C   C2        1.0  0.2614340509908288  0.24338457745503206  0.0918932999139486  1.0000
  C   C3        1.0  0.7385618716060733  0.7433826980729492  0.5918906777698965  1.0000
  C   C4        1.0  0.7385737355582904  0.7566197295675464  0.9081080375413819  1.0000
  C   C5        1.0  0.3758191598682501  0.2812604365936977  0.47246055507216056  1.0000
  C   C6        1.0  0.3758096687064807  0.2187376840242194  0.027540307069656895  1.0000
  C   C7        1.0  0.624188626680862  0.7187358046421366  0.5275366894153494  1.0000
  C   C8        1.0  0.6242052362139674  0.7812660852792419  0.9724629476436991  1.0000
  C   C9        1.0  0.5395322092616368  0.34593352791065957  0.4837383370616807  1.0000
  C   C10       1.0  0.539525090890308  0.1540645927072575  0.016262027325005604  1.0000
  C   C11       1.0  0.4604755772874825  0.6540627133251746  0.516258409670705  1.0000
  C   C12       1.0  0.460477950077923  0.8459375634388593  0.9837420016111835  1.0000
  C   C13       1.0  0.5803465776687275  0.386247405524216  0.43068068790361747  1.0000
  C   C14       1.0  0.5803181041834122  0.11374802649811498  0.0693173166502206  1.0000
  C   C15       1.0  0.4196707000421611  0.6137466848351494  0.5693142705135159  1.0000
  C   C16       1.0  0.4196730728326088  0.886255205086229  0.9306868598109119  1.0000
  C   C17       1.0  0.4473896379952862  0.3586737069414737  0.3682377807253587  1.0000
  C   C18       1.0  0.4473682828812997  0.1413222627999744  0.1317612931011993  1.0000
  C   C19       1.0  0.5526157757633925  0.6413209211370088  0.631758744719619  1.0000
  C   C20       1.0  0.5526252669251619  0.8586820442226042  0.8682425331297525  1.0000
  C   C21       1.0  0.7562533971478018  0.454841006920681  0.4400612540033321  1.0000
  C   C22       1.0  0.756234414824263  0.04515550053988449  0.0599378935856976  1.0000
  C   C23       1.0  0.24375438940131028  0.545154696596029  0.5599334279460848  1.0000
  C   C24       1.0  0.24375201661086976  0.954846117887115  0.9400670570982684  1.0000
  C   C25       1.0  0.7392286257205143  0.5028206082612172  0.3869421821788777  1.0000
  C   C26       1.0  0.7392262529300666  0.9971780553454648  0.11305651455022309  1.0000
  C   C27       1.0  0.2607625512955067  0.4971761706937343  0.6130546383159797  1.0000
  C   C28       1.0  0.260767296876395  0.0028235630815345  0.8869469428683774  1.0000
  C   C29       1.0  0.5619550789463617  0.9050855908322291  0.24973618506547984  1.0000
  C   C30       1.0  0.5619574517368093  0.5949060824259289  0.2502630460168689  1.0000
  C   C31       1.0  0.4380574531836388  0.0949111881227154  0.7502671062459997  1.0000
  C   C32       1.0  0.4380598259740793  0.4050960737201805  0.74973152557196  1.0000
  C   C33       1.0  0.3883522389872738  0.9672120444127399  0.2717152895071848  1.0000
  C   C34       1.0  0.3883522389872738  0.5327823174410113  0.22828231936701834  1.0000
  C   C35       1.0  0.6116531747714049  0.0327847345422114  0.7282855130286663  1.0000
  C   C36       1.0  0.6116626659331743  0.46722037642422254  0.7717133214945306  1.0000
  C   C37       1.0  0.2847799361578112  0.9798161805070364  0.33789909064818613  1.0000
  C   C38       1.0  0.2847823089482588  0.5201797945040596  0.1620982417583079  1.0000
  C   C39       1.0  0.7152136136486433  0.020181136167025195  0.6621022834052611  1.0000
  C   C40       1.0  0.7152207320199722  0.4798239747994018  0.8378985421384328  1.0000
  C   C41       1.0  0.3558616194536199  0.9299997306640222  0.3815602088448884  1.0000
  C   C42       1.0  0.3558663650345082  0.5699983952235428  0.11843891187686491  1.0000
  C   C43       1.0  0.6441343031432822  0.0699975860100395  0.6184421607188071  1.0000
  C   C44       1.0  0.6441343031432822  0.4300059117990429  0.8815569502720992  1.0000
  C   C45       1.0  0.5357096438582403  0.8695832238744714  0.35556484029983443  1.0000
  C   C46       1.0  0.5357215078104502  0.6304127511366246  0.14443697190277763  1.0000
  C   C47       1.0  0.46428627873866185  0.13041463051871455  0.6444385985365813  1.0000
  C   C48       1.0  0.4642886515291096  0.3695904804477195  0.8555597382314915  1.0000
  C   C49       1.0  0.2388023757471274  0.9397953598120523  0.45134526938919345  1.0000
  C   C50       1.0  0.23880712132801563  0.5602043792328573  0.048653574864843625  1.0000
  C   C51       1.0  0.7611935468497748  0.0602035700193611  0.5486558281965443  1.0000
  C   C52       1.0  0.7611935468497748  0.4397967014750179  0.9513433379746631  1.0000
  C   C53       1.0  0.3269278127937767  0.8863138164699434  0.49657079961267675  1.0000
  C   C54       1.0  0.3269373039555461  0.6136848471367315  0.0034288926266725864  1.0000
  C   C55       1.0  0.6730491274795867  0.11368618879969719  0.5034309432531288  1.0000
  C   C56       1.0  0.6730586186413561  0.3863151581329163  0.9965678726878906  1.0000
  Br  Br1       1.0  0.8357608593060988  0.133312398838342  0.2875922741695264  1.0000
  Br  Br2       1.0  0.8358272974384988  0.3666959384427884  0.21241546476561277  1.0000
  Br  Br3       1.0  0.1642730279378881  0.8666806160827889  0.7124114963148999  1.0000
  Br  Br4       1.0  0.1641804891106204  0.6333051422650939  0.7875869233802604  1.0000
  Br  Br5       1.0  0.0842554158343916  0.7131155644349008  0.36423025901205364  1.0000
  Br  Br6       1.0  0.0842625342057204  0.7868970798688153  0.13577334207204933  1.0000
  Br  Br7       1.0  0.9157594890860565  0.2868935820597329  0.6357802041426339  1.0000
  Br  Br8       1.0  0.9157998265235818  0.2131120666258184  0.864232143531396  1.0000
  N   N1        1.0  0.2969998069383806  0.2950884213974945  0.35733370777649753  1.0000
  N   N2        1.0  0.2969879429861635  0.20490862378218816  0.1426665090852453  1.0000
  N   N3        1.0  0.7029961156585216  0.7049072821192226  0.6426639607036648  1.0000
  N   N4        1.0  0.703005606820291  0.7950956832403904  0.8573353261252024  1.0000
  N   N5        1.0  0.9171380803333378  0.4681818182047905  0.4959723951827116  1.0000
  N   N6        1.0  0.9171167252193513  0.03181630241311949  0.004025978183484799  1.0000
  N   N7        1.0  0.0828815701679915  0.5318133475928021  0.5040207197388683  1.0000
  N   N8        1.0  0.0828673334253338  0.96818585373299  0.9959785485078284  1.0000
  N   N9        1.0  0.6333997991799265  0.857765770847827  0.2914087951692039  1.0000
  N   N10       1.0  0.6334164087130247  0.6422280532868001  0.20859272198352133  1.0000
  N   N11       1.0  0.3666056145787522  0.1422304703880002  0.7085949201349209  1.0000
  N   N12       1.0  0.3665984962074234  0.357775178297544  0.7914039881507478  1.0000
  N   N13       1.0  0.0563466546458429  0.9957332040790234  0.46766613153614145  1.0000
  N   N14       1.0  0.0563419090649617  0.5042670726850105  0.032334279745747124  1.0000
  N   N15       1.0  0.9436540135319476  0.0042662634715072  0.5323350398120681  1.0000
  N   N16       1.0  0.9436540135319476  0.49573454574198905  0.9676651956318526  1.0000
