data_image0
_chemical_formula_structural       Al2H18C42O12F6
_chemical_formula_sum              "Al2 H18 C42 O12 F6"
_cell_length_a       3.9656691010717817
_cell_length_b       24.628519401247658
_cell_length_c       24.629081636546502
_cell_angle_alpha    120.0078924144748
_cell_angle_beta     89.98537393267513
_cell_angle_gamma    90.01105955582501

_space_group_name_H-M_alt    "P 1"
_space_group_IT_number       1

loop_
  _space_group_symop_operation_xyz
  'x, y, z'

loop_
  _atom_site_type_symbol
  _atom_site_label
  _atom_site_symmetry_multiplicity
  _atom_site_fract_x
  _atom_site_fract_y
  _atom_site_fract_z
  _atom_site_occupancy
  Al  Al1       1.0  0.9938139830384074  0.4999792315549811  0.5000114996577877  1.0000
  Al  Al2       1.0  0.9937353716562072  0.16668446669543607  0.8333243368727494  1.0000
  H   H1        1.0  0.3081511941857329  0.43695232838619075  0.7294538986831892  1.0000
  H   H2        1.0  0.3083129869089943  0.2297060766522989  0.6038969428875943  1.0000
  H   H3        1.0  0.7150218302397562  0.3278609108936621  0.8235702078854173  1.0000
  H   H4        1.0  0.7055628113224515  0.3907225265951554  0.7698310312389793  1.0000
  H   H5        1.0  0.7149545471123985  0.3388475384454352  0.5097703358323997  1.0000
  H   H6        1.0  0.7056374139014705  0.27597991800310956  0.5635067720612881  1.0000
  H   H7        1.0  0.3082368435637902  0.792472027942722  0.563048939241419  1.0000
  H   H8        1.0  0.3082980250702576  0.8741818678314675  0.7702942335141997  1.0000
  H   H9        1.0  0.7148014401635121  0.9957464245416787  0.6721645117554615  1.0000
  H   H10       1.0  0.7056277386774995  0.8791274097792438  0.6093027879385031  1.0000
  H   H11       1.0  0.7149077231882471  0.6709282883551567  0.6611480521036056  1.0000
  H   H12       1.0  0.7055397746900312  0.7875443106086807  0.7240227001752969  1.0000
  H   H13       1.0  0.3073885393345607  0.27055036894242324  0.20753235653101135  1.0000
  H   H14       1.0  0.307339584875173  0.3960904937849179  0.12581350299836905  1.0000
  H   H15       1.0  0.7146982337671444  0.17644804388805818  0.004235986639038515  1.0000
  H   H16       1.0  0.704980097887848  0.23017207359663422  0.12084779991788959  1.0000
  H   H17       1.0  0.7149416050828633  0.4901945327858641  0.32905449351413546  1.0000
  H   H18       1.0  0.7048446725930758  0.43646948953787756  0.21244308063787534  1.0000
  C   C1        1.0  0.4945113684645506  0.44873049066897147  0.4036629276768194  1.0000
  C   C2        1.0  0.49431478417643154  0.4549068055804568  0.5512721099731975  1.0000
  C   C3        1.0  0.4946214272193358  0.5963380589918685  0.5451060869244697  1.0000
  C   C4        1.0  0.4946161934769933  0.21178822728337116  0.7820895285148026  1.0000
  C   C5        1.0  0.4943221533801889  0.07033608857089048  0.788246386761223  1.0000
  C   C6        1.0  0.4942582311388364  0.21794326982688975  0.9296736920907945  1.0000
  C   C7        1.0  0.5000960826707085  0.4209620294568808  0.5870336492533496  1.0000
  C   C8        1.0  0.5004218443977563  0.2457078281439634  0.7463067552173398  1.0000
  C   C9        1.0  0.38778641144786263  0.4469973892295371  0.6490166308382966  1.0000
  C   C10       1.0  0.39511952005745593  0.4139346745708962  0.6810057422341912  1.0000
  C   C11       1.0  0.38817167517478884  0.2196649778182334  0.6843221496788771  1.0000
  C   C12       1.0  0.3954136635972176  0.2527199700092241  0.6523235591381819  1.0000
  C   C13       1.0  0.6199715678809808  0.3076877266351731  0.7758391312102404  1.0000
  C   C14       1.0  0.6144511591790903  0.3425087575381555  0.7456359260904861  1.0000
  C   C15       1.0  0.6197645174457023  0.3590037226898204  0.5575016436141168  1.0000
  C   C16       1.0  0.6143485627090469  0.32417152560321233  0.5876958208710406  1.0000
  C   C17       1.0  0.5041145220921096  0.3513940002020064  0.6501752784164551  1.0000
  C   C18       1.0  0.5042003222678558  0.3152848457110197  0.6831739268179575  1.0000
  C   C19       1.0  0.5003680619037566  0.6660553162624083  0.579027787490034  1.0000
  C   C20       1.0  0.5001977841340874  0.0006090152507169703  0.754298651076624  1.0000
  C   C21       1.0  0.3880257128068649  0.7019903950476375  0.5529946014630622  1.0000
  C   C22       1.0  0.39533617578928926  0.7670530087204669  0.586056315550074  1.0000
  C   C23       1.0  0.3879551391194838  0.9646706446553425  0.7803528202041291  1.0000
  C   C24       1.0  0.395295429020308  0.8996105735938185  0.7472811072313018  1.0000
  C   C25       1.0  0.619776098180452  0.9681795637529331  0.6923341353512381  1.0000
  C   C26       1.0  0.6144061991165657  0.9031463627034028  0.6575033957194305  1.0000
  C   C27       1.0  0.6199121552207885  0.6984978935295628  0.640994647885769  1.0000
  C   C28       1.0  0.61445664561802  0.7635281928800239  0.6758194643336565  1.0000
  C   C29       1.0  0.5042002148206919  0.7987693777283199  0.6486057102848548  1.0000
  C   C30       1.0  0.5041525321953273  0.8678885567811961  0.684727863781184  1.0000
  C   C31       1.0  0.5001381867596847  0.41294696778011547  0.3339499499592263  1.0000
  C   C32       1.0  0.49988548675003835  0.2537020766901674  0.9993893439908631  1.0000
  C   C33       1.0  0.3876944974569909  0.35097201500423136  0.29800561818094445  1.0000
  C   C34       1.0  0.39457820112924213  0.3189749577228583  0.23294117708571346  1.0000
  C   C35       1.0  0.3874277551335865  0.3156739549208467  0.03533352320179963  1.0000
  C   C36       1.0  0.39449881752048543  0.3476546451660312  0.10039063847117548  1.0000
  C   C37       1.0  0.61938186974767  0.2241738233181394  0.0318186321662353  1.0000
  C   C38       1.0  0.6136873246248412  0.2543570089135089  0.09684274422621535  1.0000
  C   C39       1.0  0.6195562155498494  0.44247004032076376  0.30148709515091093  1.0000
  C   C40       1.0  0.6136839799137589  0.41227552543102775  0.2364622460215031  1.0000
  C   C41       1.0  0.5032643264042703  0.3498239188229917  0.20122029970642782  1.0000
  C   C42       1.0  0.5032589854666654  0.3168211245845072  0.13211094660846354  1.0000
  O   O1        1.0  0.7276623070845646  0.5694649695865337  0.5587848989327212  1.0000
  O   O2        1.0  0.7276402432170952  0.4892730753561949  0.4305393024032965  1.0000
  O   O3        1.0  0.7274393899714723  0.4412333740489983  0.5107097741164778  1.0000
  O   O4        1.0  0.25649136339718137  0.5682465154281715  0.5063705249410404  1.0000
  O   O5        1.0  0.2562159192758812  0.4936501167003868  0.5619303052403096  1.0000
  O   O6        1.0  0.25642449911840254  0.43807219377621465  0.4317556231083869  1.0000
  O   O7        1.0  0.7273911626658458  0.17739318414811583  0.9027847037666987  1.0000
  O   O8        1.0  0.7276147077315186  0.2254501754008445  0.8226310523713208  1.0000
  O   O9        1.0  0.7274623852730996  0.0972233869329173  0.7745738597968737  1.0000
  O   O10       1.0  0.25626907434589435  0.22861158126996622  0.9015790133619389  1.0000
  O   O11       1.0  0.2561769677856489  0.09842286406853874  0.8269858158964069  1.0000
  O   O12       1.0  0.2564524284213974  0.1730338889524176  0.7714162829235461  1.0000
  F   F1        1.0  0.2745428499330628  0.5070500364061276  0.680628753658219  1.0000
  F   F2        1.0  0.2751330998251901  0.1595990433354402  0.6527223380519587  1.0000
  F   F3        1.0  0.27491267834149363  0.6735319227740034  0.49294554395957835  1.0000
  F   F4        1.0  0.2748440482577479  0.9931196932414539  0.8403997671109734  1.0000
  F   F5        1.0  0.27482709058589444  0.3193563536327062  0.3264690701771683  1.0000
  F   F6        1.0  0.27440640301058034  0.34727564508455094  0.006879813774418143  1.0000
