data_image0
_chemical_formula_structural       Sr4H52C60N4O20
_chemical_formula_sum              "Sr4 H52 C60 N4 O20"
_cell_length_a       6.8065916000047
_cell_length_b       14.851735814027721
_cell_length_c       14.762933401028063
_cell_angle_alpha    90.00020162227682
_cell_angle_beta     89.99990376818998
_cell_angle_gamma    90.00009286479579

_space_group_name_H-M_alt    "P 1"
_space_group_IT_number       1

loop_
  _space_group_symop_operation_xyz
  'x, y, z'

loop_
  _atom_site_type_symbol
  _atom_site_label
  _atom_site_symmetry_multiplicity
  _atom_site_fract_x
  _atom_site_fract_y
  _atom_site_fract_z
  _atom_site_occupancy
  Sr  Sr1       1.0  0.8536116073008769  0.19194989055085904  0.5511228573081937  1.0000
  Sr  Sr2       1.0  0.6463909384724785  0.8080499840365292  0.0511204148777864  1.0000
  Sr  Sr3       1.0  0.14638997606472512  0.691951141250705  0.9488783009441659  1.0000
  Sr  Sr4       1.0  0.35360844105298384  0.3080504330180958  0.4488793510785953  1.0000
  H   H1        1.0  0.8399197874614542  0.3336580463754331  0.2507580103586662  1.0000
  H   H2        1.0  0.660079104557404  0.6663391625793623  0.750762278111395  1.0000
  H   H3        1.0  0.16007674459470422  0.8336612995205356  0.24923574956559236  1.0000
  H   H4        1.0  0.33992973377709035  0.16634226705220098  0.7492401445650925  1.0000
  H   H5        1.0  0.8902611175168574  0.4482410897762747  0.12851080781524618  1.0000
  H   H6        1.0  0.6097323359263457  0.5517550166158853  0.628515388460869  1.0000
  H   H7        1.0  0.10972994435736182  0.9482440615597414  0.3714840335794419  1.0000
  H   H8        1.0  0.39027315759950193  0.05175858760883051  0.8714873074893956  1.0000
  H   H9        1.0  0.8811839994055788  0.5000276521247856  0.5270929351611713  1.0000
  H   H10       1.0  0.6188054099901379  0.49997281141968136  0.027098911157082694  1.0000
  H   H11       1.0  0.11881396481145862  2.9358237704000003e-05  0.9729014498975558  1.0000
  H   H12       1.0  0.3811884691490661  0.9999726918565274  0.4729045099189051  1.0000
  H   H13       1.0  0.8905721731260314  0.6619939792626254  0.5673548631687382  1.0000
  H   H14       1.0  0.6094112153312777  0.33800729897223647  0.06736163009912839  1.0000
  H   H15       1.0  0.10941901983685651  0.1619955370514603  0.932639415722086  1.0000
  H   H16       1.0  0.39057210965277983  0.838007326843197  0.43264230574532536  1.0000
  H   H17       1.0  0.8931054382541107  0.778529638199828  0.44483876613499956  1.0000
  H   H18       1.0  0.6068868816049219  0.22147027218570517  0.9448448936959506  1.0000
  H   H19       1.0  0.10689236739615642  0.27853188864704503  0.05515683148372119  1.0000
  H   H20       1.0  0.3931059914944229  0.7214716697821544  0.5551584007852168  1.0000
  H   H21       1.0  0.8889626021861687  0.7323731329688101  0.2837968435778393  1.0000
  H   H22       1.0  0.6110391097647964  0.2676262119625434  0.7838024532804297  1.0000
  H   H23       1.0  0.11103944722010077  0.23237527861875412  0.2161979138880952  1.0000
  H   H24       1.0  0.38896714954893946  0.7676281719468038  0.7162003266010969  1.0000
  H   H25       1.0  0.8780695023441538  0.8810927333854365  0.831302120151065  1.0000
  H   H26       1.0  0.6219335085410409  0.11890677833993381  0.3313026855650633  1.0000
  H   H27       1.0  0.12193128283230689  0.38109270034080833  0.6686969956551891  1.0000
  H   H28       1.0  0.3780681383364808  0.6189078901454226  0.16869844546231144  1.0000
  H   H29       1.0  0.0224636154593938  0.8162089562759933  0.7541652336050149  1.0000
  H   H30       1.0  0.4775399069200717  0.1837885676949611  0.2541630384988736  1.0000
  H   H31       1.0  0.9775384087092293  0.3162091543495649  0.7458343307496234  1.0000
  H   H32       1.0  0.5224619701258177  0.6837907306025741  0.24583696660264553  1.0000
  H   H33       1.0  0.7595740913709007  0.810534465581263  0.7507116903146525  1.0000
  H   H34       1.0  0.7404306774791751  0.18946072323498703  0.2507090244428695  1.0000
  H   H35       1.0  0.24042791267041963  0.31053749654854823  0.7492892087772416  1.0000
  H   H36       1.0  0.25957268885328233  0.6894640502404384  0.2492916780360943  1.0000
  H   H37       1.0  0.893468448278803  0.967342115734411  0.5611513488999833  1.0000
  H   H38       1.0  0.6065355307087472  0.0326530808157415  0.06115094487921619  1.0000
  H   H39       1.0  0.10651795121899713  0.4673430198493734  0.9388501032031937  1.0000
  H   H40       1.0  0.3934658101956644  0.5326578458783969  0.4388498819663624  1.0000
  H   H41       1.0  0.7561483998552279  0.8672581810648055  0.5840931439421695  1.0000
  H   H42       1.0  0.7438554969157068  0.13273776936541992  0.084095016935386  1.0000
  H   H43       1.0  0.243843521258718  0.36725910631404457  0.9159072778236703  1.0000
  H   H44       1.0  0.2561447298648289  0.6327416788584443  0.41590751761914646  1.0000
  H   H45       1.0  0.018961512081823204  0.8651820640966505  0.5884292895125893  1.0000
  H   H46       1.0  0.48103966588789865  0.1348142046209091  0.0884316605421773  1.0000
  H   H47       1.0  0.9810274633424853  0.3651808267257905  0.911567060695887  1.0000
  H   H48       1.0  0.5189590990960795  0.6348189668286324  0.411570881337333  1.0000
  H   H49       1.0  0.8592671375350206  0.020527271062931604  0.8008628923356297  1.0000
  H   H50       1.0  0.6407301057698334  0.9794694404935597  0.3008637683921549  1.0000
  H   H51       1.0  0.14073089939100922  0.5205289873204465  0.6991383387400274  1.0000
  H   H52       1.0  0.35926841268850757  0.4794703634066267  0.1991386342217822  1.0000
  C   C1        1.0  0.8580181435534796  0.35540733462824636  0.42655575939330237  1.0000
  C   C2        1.0  0.6419845259798932  0.644593184881309  0.9265586099463902  1.0000
  C   C3        1.0  0.14199021896134673  0.8554079371453581  0.0734401093406518  1.0000
  C   C4        1.0  0.35801835855347974  0.14459433884307063  0.5734430586659511  1.0000
  C   C5        1.0  0.919176025674993  0.6229324852244177  0.139831347917962  1.0000
  C   C6        1.0  0.5808276713462419  0.37706433424634866  0.6398380447256499  1.0000
  C   C7        1.0  0.0808241663341676  0.12293646064300391  0.360164378335149  1.0000
  C   C8        1.0  0.41918191452028003  0.8770668220993728  0.8601657984798334  1.0000
  C   C9        1.0  0.8631296200176308  0.4296678960980315  0.35799092413684963  1.0000
  C   C10       1.0  0.6368703568870657  0.5703303627013839  0.8579962263056797  1.0000
  C   C11       1.0  0.13687753677297823  0.929671428865433  0.14200520649527698  1.0000
  C   C12       1.0  0.3631307950362769  0.0703324345148459  0.64200788989708  1.0000
  C   C13       1.0  0.8568564064347585  0.40460803843853915  0.26782452022778347  1.0000
  C   C14       1.0  0.6431453627559236  0.5953905770854391  0.7678285510932594  1.0000
  C   C15       1.0  0.1431433156340631  0.9046105458015533  0.23217219939974845  1.0000
  C   C16       1.0  0.35686175472510945  0.09539296085361572  0.7321749761146703  1.0000
  C   C17       1.0  0.8806086194050948  0.4689263345375991  0.19921427617059348  1.0000
  C   C18       1.0  0.6193919264884614  0.5310713667589795  0.6992194536421152  1.0000
  C   C19       1.0  0.1193927999969802  0.9689290652160951  0.3007806381696412  1.0000
  C   C20       1.0  0.38061496282706025  0.031075355663453805  0.8007838467360813  1.0000
  C   C21       1.0  0.8937136889925411  0.5599332448879365  0.21906956407324424  1.0000
  C   C22       1.0  0.6062882549066018  0.4400645261312306  0.7190778177670438  1.0000
  C   C23       1.0  0.10629068702746033  0.05993628761077471  0.28092255313824666  1.0000
  C   C24       1.0  0.39371714695631255  0.9400673902223816  0.7809269249938138  1.0000
  C   C25       1.0  0.8861635411574939  0.5893205417476752  0.3115282084221036  1.0000
  C   C26       1.0  0.6138366022461242  0.4106775539138782  0.8115356751639665  1.0000
  C   C27       1.0  0.1138394699486156  0.08932461206191529  0.18846468980320444  1.0000
  C   C28       1.0  0.38616722620488275  0.9106800877717022  0.6884682865866054  1.0000
  C   C29       1.0  0.8800163131781177  0.522430165987025  0.38226945381363453  1.0000
  C   C30       1.0  0.6199835767255025  0.477569524703469  0.882274442132413  1.0000
  C   C31       1.0  0.1199879297961957  0.022433319146784897  0.11772591799788047  1.0000
  C   C32       1.0  0.38001901985364833  0.9775704589846155  0.6177297555217578  1.0000
  C   C33       1.0  0.8831954703618764  0.5510997047252675  0.4742295467695357  1.0000
  C   C34       1.0  0.6167952750146809  0.4489023288214753  0.9742344364899367  1.0000
  C   C35       1.0  0.11680299765287572  0.05109983934825381  0.0257666035190951  1.0000
  C   C36       1.0  0.38319840488544804  0.948902942565397  0.5257689826952755  1.0000
  C   C37       1.0  0.8887093635263171  0.6413262361700233  0.4964014490504667  1.0000
  C   C38       1.0  0.6112813023984317  0.3586772218709342  0.9964060249134474  1.0000
  C   C39       1.0  0.11128795539959671  0.14132561553360287  0.0035929873200614996  1.0000
  C   C40       1.0  0.3887105882719908  0.8586777618447031  0.5035957213338164  1.0000
  C   C41       1.0  0.8910587976656643  0.7071716175686902  0.42722086875388493  1.0000
  C   C42       1.0  0.6089335853304476  0.292828904277421  0.9272265689893047  1.0000
  C   C43       1.0  0.10893875484539  0.20717393139279489  0.072775154580988  1.0000
  C   C44       1.0  0.3910610100733933  0.7928296888983228  0.5727762997763222  1.0000
  C   C45       1.0  0.8903302086187849  0.6818357002248447  0.3372082256553099  1.0000
  C   C46       1.0  0.6096698427602406  0.31816315892676533  0.8372153694071398  1.0000
  C   C47       1.0  0.10967313067647673  0.18183900396481087  0.1627856762111364  1.0000
  C   C48       1.0  0.39033365750159993  0.8181656057019068  0.6627882660756299  1.0000
  C   C49       1.0  0.8861617361530707  0.855043134386513  0.7620035127983015  1.0000
  C   C50       1.0  0.6138429922307012  0.1449541140485735  0.2620034990721791  1.0000
  C   C51       1.0  0.1138389566144724  0.35504401199639096  0.7379961885134065  1.0000
  C   C52       1.0  0.38616021621384533  0.6449561484939892  0.23799772381657647  1.0000
  C   C53       1.0  0.8879045417145336  0.9060712331170181  0.602145128447624  1.0000
  C   C54       1.0  0.6120992903681709  0.09392478069558759  0.10214561350408498  1.0000
  C   C55       1.0  0.1120860479219203  0.40607132409000707  0.8978547528259497  1.0000
  C   C56       1.0  0.38790079872577365  0.5939287243763972  0.39785678416993864  1.0000
  C   C57       1.0  0.8650381368545581  0.014374326085075497  0.7262665933627799  1.0000
  C   C58       1.0  0.6349608429359466  0.9856261634855913  0.22627155989923148  1.0000
  C   C59       1.0  0.1349554707513789  0.5143715867319257  0.7737305517744275  1.0000
  C   C60       1.0  0.3650391665287244  0.48562869922772495  0.2737315418018511  1.0000
  N   N1        1.0  0.8820630148256329  0.9291872154492039  0.6978266977753689  1.0000
  N   N2        1.0  0.6179390052071058  0.07080711435757078  0.1978270967100144  1.0000
  N   N3        1.0  0.11793500264159461  0.42919101472057963  0.802172587652116  1.0000
  N   N4        1.0  0.3820610018789877  0.5708107177520033  0.3021745420629003  1.0000
  O   O1        1.0  0.993751161535407  0.3507622408242597  0.4859097554322246  1.0000
  O   O2        1.0  0.5062512952979787  0.6492398337378373  0.9859140839321012  1.0000
  O   O3        1.0  0.006251307838290599  0.8507605144566028  0.014087451662540199  1.0000
  O   O4        1.0  0.49375160571408117  0.1492395331598999  0.5140889558091714  1.0000
  O   O5        1.0  0.7211786385536383  0.29707402381673387  0.42008003258242604  1.0000
  O   O6        1.0  0.7788225850265749  0.7029271462730333  0.9200809490544087  1.0000
  O   O7        1.0  0.2788192328681021  0.7970727304409806  0.07991969466288398  1.0000
  O   O8        1.0  0.2211805064415699  0.20292620168031308  0.5799195705344997  1.0000
  O   O9        1.0  0.0218033154928392  0.5937031308893096  0.07409742352088237  1.0000
  O   O10       1.0  0.4781979138264845  0.4062917408689445  0.5741039106876187  1.0000
  O   O11       1.0  0.9781967728298112  0.093708001636017  0.42589752227939925  1.0000
  O   O12       1.0  0.5218073682330556  0.9062965554952669  0.9259007129712484  1.0000
  O   O13       1.0  0.8363931672951351  0.6996985706475767  0.1427232175823931  1.0000
  O   O14       1.0  0.663610519363459  0.3002982589766461  0.642729578513716  1.0000
  O   O15       1.0  0.16360729704299357  0.19970461717853996  0.3572714246586344  1.0000
  O   O16       1.0  0.3364032016712173  0.8002993287304179  0.8572733165868414  1.0000
  O   O17       1.0  0.8555108172406988  0.08208079880800773  0.6763382923876549  1.0000
  O   O18       1.0  0.6444795264806588  0.9179100889317341  0.17633759365720175  1.0000
  O   O19       1.0  0.14447862306111864  0.5820869950166027  0.8236658652669034  1.0000
  O   O20       1.0  0.3555173044387415  0.4179148129218929  0.32366662398102614  1.0000
