data_image0
_chemical_formula_structural       Zn2H36C38N8O14
_chemical_formula_sum              "Zn2 H36 C38 N8 O14"
_cell_length_a       8.803019075225924
_cell_length_b       9.873496077005157
_cell_length_c       11.336067359628338
_cell_angle_alpha    83.3780451095282
_cell_angle_beta     71.07313826707993
_cell_angle_gamma    81.96657679968958

_space_group_name_H-M_alt    "P 1"
_space_group_IT_number       1

loop_
  _space_group_symop_operation_xyz
  'x, y, z'

loop_
  _atom_site_type_symbol
  _atom_site_label
  _atom_site_symmetry_multiplicity
  _atom_site_fract_x
  _atom_site_fract_y
  _atom_site_fract_z
  _atom_site_occupancy
  Zn  Zn1       1.0  0.3741216102607154  0.2551440347236422  0.27595518594339546  1.0000
  Zn  Zn2       1.0  0.6258775404689062  0.7448572622026718  0.7240455739089382  1.0000
  H   H1        1.0  0.5598240936970954  0.4165714773304714  0.09545059899166829  1.0000
  H   H2        1.0  0.44017625896560736  0.583429820807126  0.9045489767256638  1.0000
  H   H3        1.0  0.4525993977292942  0.3586323426063274  0.026423072719708736  1.0000
  H   H4        1.0  0.5474009549334086  0.64136895553127  0.9735765029976302  1.0000
  H   H5        1.0  0.6169253618403874  0.3735999120215041  0.3154645337572218  1.0000
  H   H6        1.0  0.3830763249915067  0.6264003620123405  0.6845348099853152  1.0000
  H   H7        1.0  0.6318972074758097  0.21569958888158408  0.3809786546971236  1.0000
  H   H8        1.0  0.3681020779686366  0.78430068192754  0.6190212924923555  1.0000
  H   H9        1.0  0.8933826128402418  0.8543595780542291  0.38547928594047676  1.0000
  H   H10       1.0  0.106615469431766  0.14564069194468485  0.6145227277955241  1.0000
  H   H11       1.0  0.5996490325910457  0.08531623832848109  0.04482720168621772  1.0000
  H   H12       1.0  0.4003511841174686  0.9146860863273791  0.955174069105503  1.0000
  H   H13       1.0  0.6846991281769166  0.8362473093518118  0.00843990628729332  1.0000
  H   H14       1.0  0.3153000237920623  0.1637539871734361  0.9915599711535134  1.0000
  H   H15       1.0  0.4601246515259307  0.7433815789712028  0.40298450131959374  1.0000
  H   H16       1.0  0.5398757011367721  0.25661971916640175  0.5970150743977454  1.0000
  H   H17       1.0  0.1466262905967284  0.043866728988611194  0.28802339516182934  1.0000
  H   H18       1.0  0.8533731258444706  0.9561325169065426  0.7119783865993695  1.0000
  H   H19       1.0  0.7765382844957431  0.9827885046728466  0.2515763197772144  1.0000
  H   H20       1.0  0.22346113442417703  0.0172107404201682  0.7484236971609304  1.0000
  H   H21       1.0  0.9345755079243363  0.918707245773554  0.12035687198377329  1.0000
  H   H22       1.0  0.06542404447105102  0.08129097360333758  0.879643214703037  1.0000
  H   H23       1.0  0.8186266397559906  0.19431169303002346  0.07905371088030934  1.0000
  H   H24       1.0  0.1813751793120134  0.8056875556887775  0.9209465850224203  1.0000
  H   H25       1.0  0.9269700537124949  0.4194497007915102  0.047875650984814014  1.0000
  H   H26       1.0  0.07303310200342146  0.5805485230213916  0.9521226481200666  1.0000
  H   H27       1.0  0.15417519357237816  0.4427105127707519  0.1277807174368846  1.0000
  H   H28       1.0  0.8458267602104571  0.5572877098308595  0.8722187658029907  1.0000
  H   H29       1.0  0.2742677935700827  0.3634526927460654  0.5361115147715265  1.0000
  H   H30       1.0  0.7257314906350064  0.636547578464139  0.4638893148294796  1.0000
  H   H31       1.0  0.13298667444030346  0.5743473270228918  0.6407493108851339  1.0000
  H   H32       1.0  0.8670127432402596  0.42565191847119627  0.35925158846453786  1.0000
  H   H33       1.0  0.040973852625491254  0.7751979708467899  0.513914379314876  1.0000
  H   H34       1.0  0.9590243656007047  0.22480127263386862  0.48608593934673644  1.0000
  H   H35       1.0  0.27806718704304967  0.5499696847915841  0.1883269116849107  1.0000
  H   H36       1.0  0.7219322306375134  0.4500295607024968  0.8116739876647613  1.0000
  C   C1        1.0  0.5777166370097222  0.7693709477520443  0.20326689554619287  1.0000
  C   C2        1.0  0.42228251495926383  0.23063034877319671  0.7967329818946138  1.0000
  C   C3        1.0  0.32357027865482735  0.0069900642207017015  0.4530232808120117  1.0000
  C   C4        1.0  0.6764302050046213  0.9930102090029249  0.5469781294770469  1.0000
  C   C5        1.0  0.4357138386314433  0.9543608769119059  0.33118446217780917  1.0000
  C   C6        1.0  0.5642865127919023  0.045640421626771406  0.6688159959510569  1.0000
  C   C7        1.0  0.5661351304094993  0.0054775145064382995  0.1206296773451072  1.0000
  C   C8        1.0  0.4338640203201223  0.9945237824198756  0.8793710825072266  1.0000
  C   C9        1.0  0.6159924645241759  0.8669403043998398  0.10167111131449506  1.0000
  C   C10       1.0  0.3840053545149758  0.13306201582808797  0.8983281156895797  1.0000
  C   C11       1.0  0.49009332484208573  0.815496164125513  0.3209232011637439  1.0000
  C   C12       1.0  0.50990702658126  0.18450513441316474  0.6790772569651152  1.0000
  C   C13       1.0  0.6213416102791244  0.61645664490635  0.19065603333084616  1.0000
  C   C14       1.0  0.37865887585904556  0.383543627515138  0.8093436121351657  1.0000
  C   C15       1.0  0.09756162283783715  0.1240629717766737  0.231996112172716  1.0000
  C   C16       1.0  0.9024389955364499  0.8759362753297635  0.7680044854534883  1.0000
  C   C17       1.0  0.9757743491371897  0.0999177116428953  0.18612601377946453  1.0000
  C   C18       1.0  0.02422640395192133  0.9000805093463597  0.8138737711838783  1.0000
  C   C19       1.0  0.9076997826105855  0.963921351660531  0.210199672415527  1.0000
  C   C20       1.0  0.09229963506997761  0.03607789383355  0.7898012269341449  1.0000
  C   C21       1.0  0.9141752882261828  0.20743520888256478  0.11707250579138428  1.0000
  C   C22       1.0  0.08582399721827022  0.7925650619265597  0.8829274413980951  1.0000
  C   C23       1.0  0.976421044945227  0.3328667208766447  0.0976388144315549  1.0000
  C   C24       1.0  0.023580910076965715  0.667131501323894  0.9023597863967933  1.0000
  C   C25       1.0  0.10035888845072803  0.34699127070243213  0.14490923687604607  1.0000
  C   C26       1.0  0.8996430653320999  0.6530069518991795  0.8550902463638295  1.0000
  C   C27       1.0  0.23675279611701686  0.45332940240504643  0.482943954506723  1.0000
  C   C28       1.0  0.7632454208698154  0.5466698414766781  0.5170572465664163  1.0000
  C   C29       1.0  0.1563579481489441  0.571591350137112  0.540771440748294  1.0000
  C   C30       1.0  0.8436390681441781  0.4284078921322561  0.459230062048313  1.0000
  C   C31       1.0  0.10736661634000204  0.6831684445768076  0.46954265534129275  1.0000
  C   C32       1.0  0.8926317353616685  0.31682977318772737  0.5304577330689851  1.0000
  C   C33       1.0  0.1491375697810469  0.6751587249304692  0.340274213261388  1.0000
  C   C34       1.0  0.850861847899516  0.3248405205636118  0.6597266860882838  1.0000
  C   C35       1.0  0.10694057019881602  0.7847250947970535  0.24987039609575123  1.0000
  C   C36       1.0  0.8930565808091302  0.2152731213551249  0.7501302940380014  1.0000
  C   C37       1.0  0.23647995801742652  0.5551177434864981  0.28937065160003766  1.0000
  C   C38       1.0  0.7635194596631365  0.44488150200758275  0.710630247749634  1.0000
  N   N1        1.0  0.47401221709301217  0.047763697432848994  0.23252230100886348  1.0000
  N   N2        1.0  0.5259881330909693  0.9522376015068941  0.7674790395315227  1.0000
  N   N3        1.0  0.16117478652628145  0.2443077099331319  0.21130155322821045  1.0000
  N   N4        1.0  0.8388259665628299  0.7556905110561233  0.7886982317351324  1.0000
  N   N5        1.0  0.2739692222153139  0.4444166878167906  0.35886496053542766  1.0000
  N   N6        1.0  0.726031262683499  0.5555835850057704  0.641135567342104  1.0000
  N   N7        1.0  0.9665947226729731  0.865216436301708  0.2940485098603316  1.0000
  N   N8        1.0  0.03340336207775611  0.13478383289506016  0.705951739052608  1.0000
  O   O1        1.0  0.4991326028110807  0.33764510660488156  0.09686272502654694  1.0000
  O   O2        1.0  0.500866547918541  0.6623561903214323  0.9031380348257798  1.0000
  O   O3        1.0  0.26854263388769795  0.13454951091300424  0.45098296596113124  1.0000
  O   O4        1.0  0.7314577175356479  0.8654517876256734  0.5490174921677349  1.0000
  O   O5        1.0  0.28622435155226383  0.9233823446517415  0.5473346075060233  1.0000
  O   O6        1.0  0.7137747979380011  0.07661895267563779  0.45266703475783027  1.0000
  O   O7        1.0  0.6262472811146086  0.5718938924359519  0.08754741631237549  1.0000
  O   O8        1.0  0.3737542734811755  0.428107406912936  0.9124509752699619  1.0000
  O   O9        1.0  0.6448396102404886  0.5447450562668054  0.28360331706782194  1.0000
  O   O10       1.0  0.35516087589768114  0.45525521615467585  0.7163963283981826  1.0000
  O   O11       1.0  0.5807178918435982  0.2802822508982601  0.32773021385538925  1.0000
  O   O12       1.0  0.4192824608191047  0.7197190472393444  0.6722693618619502  1.0000
  O   O13       1.0  0.19554949206615663  0.7956129860610232  0.13905529030334654  1.0000
  O   O14       1.0  0.8044465942022542  0.2043842019605435  0.8609440064794921  1.0000
