data_image0
_chemical_formula_structural       Cd4H38C50Br8N14
_chemical_formula_sum              "Cd4 H38 C50 Br8 N14"
_cell_length_a       11.33771101857299
_cell_length_b       11.33746951231064
_cell_length_c       12.024653667523046
_cell_angle_alpha    76.11589545297477
_cell_angle_beta     76.11488843732242
_cell_angle_gamma    83.2245483131463

_space_group_name_H-M_alt    "P 1"
_space_group_IT_number       1

loop_
  _space_group_symop_operation_xyz
  'x, y, z'

loop_
  _atom_site_type_symbol
  _atom_site_label
  _atom_site_symmetry_multiplicity
  _atom_site_fract_x
  _atom_site_fract_y
  _atom_site_fract_z
  _atom_site_occupancy
  Cd  Cd1       1.0  0.4963820543572269  0.052380748915702185  0.6444818928864535  1.0000
  Cd  Cd2       1.0  0.9476118188408976  0.503607758409153  0.8555151606337859  1.0000
  Cd  Cd3       1.0  0.5036112209614316  0.9476174945996833  0.3555240749134115  1.0000
  Cd  Cd4       1.0  0.0523876422475738  0.4963932175988147  0.1444846330387506  1.0000
  H   H1        1.0  0.5557143997272078  0.4442863246997248  0.7499868725721869  1.0000
  H   H2        1.0  0.4442927721724957  0.555721935919955  0.2500062048632117  1.0000
  H   H3        1.0  0.5722661628211796  0.6223690079094908  0.8292063605902341  1.0000
  H   H4        1.0  0.37763068858598087  0.42772465894081785  0.6707773552905607  1.0000
  H   H5        1.0  0.4277348231122105  0.37763652003224024  0.1707937226836407  1.0000
  H   H6        1.0  0.6223775080359176  0.5722817802577752  0.3292183970993818  1.0000
  H   H7        1.0  0.6257160992427444  0.7342386382794998  0.11042086877176163  1.0000
  H   H8        1.0  0.265767923310989  0.37428370664002836  0.3895634559151944  1.0000
  H   H9        1.0  0.3742884304212168  0.26575414422254073  0.8895779679769831  1.0000
  H   H10       1.0  0.7342297210517189  0.6257172696755547  0.610435085120919  1.0000
  H   H11       1.0  0.16788029331753057  0.7658828928564246  0.9453921334979113  1.0000
  H   H12       1.0  0.23410804942869134  0.8321216693343414  0.5546150321666232  1.0000
  H   H13       1.0  0.8321204263908228  0.2341126203080961  0.05460944213495364  1.0000
  H   H14       1.0  0.7658977713790093  0.1678793067091888  0.44538415546652743  1.0000
  H   H15       1.0  0.4642824066435766  0.6811829786087173  0.023812082502026002  1.0000
  H   H16       1.0  0.318808666910023  0.5357228875083777  0.4761804894070636  1.0000
  H   H17       1.0  0.535716495945998  0.3188125344926788  0.9761899039167046  1.0000
  H   H18       1.0  0.6811851099069556  0.4642817306594225  0.5238172710615672  1.0000
  H   H19       1.0  0.22680675443321263  0.18474022176526014  0.715054712672874  1.0000
  H   H20       1.0  0.8152575241165466  0.7731872063014364  0.7849460725812777  1.0000
  H   H21       1.0  0.7731856137016424  0.8152580230161346  0.2849456385419061  1.0000
  H   H22       1.0  0.18474756463585607  0.226811039663275  0.21504807628782885  1.0000
  H   H23       1.0  0.9858081302169456  0.9120636990534763  0.9374449962179482  1.0000
  H   H24       1.0  0.0879295942344811  0.0141920813664314  0.5625675277884383  1.0000
  H   H25       1.0  0.014190713406918602  0.08793272394009222  0.06255929272720101  1.0000
  H   H26       1.0  0.9120752020475467  0.9858107162835522  0.4374281531790203  1.0000
  H   H27       1.0  0.6712358972270422  0.0593910235550013  0.8316397621035704  1.0000
  H   H28       1.0  0.940614226982767  0.32874541386458833  0.6683521071574462  1.0000
  H   H29       1.0  0.32876658122392405  0.9406054001209155  0.16836121013640343  1.0000
  H   H30       1.0  0.0593835323636611  0.6712537398861472  0.33165430449302863  1.0000
  H   H31       1.0  0.7332510761577213  0.9270652107516638  0.012188167211768006  1.0000
  H   H32       1.0  0.0729488747120826  0.26673514062482434  0.4878000779671225  1.0000
  H   H33       1.0  0.2667552124453678  0.0729284824471392  0.9878092344329444  1.0000
  H   H34       1.0  0.9270498517664194  0.7332631028945613  0.512205489186286  1.0000
  H   H35       1.0  0.016204851026167002  0.1301621674478923  0.824772557010206  1.0000
  H   H36       1.0  0.8698314861372224  0.9837891699679915  0.6752382456428663  1.0000
  H   H37       1.0  0.9837875745023013  0.869835165958399  0.17523214536731774  1.0000
  H   H38       1.0  0.1301699683776079  0.0162090758704778  0.3247567247979859  1.0000
  C   C1        1.0  0.4832887609537337  0.5167046676746736  0.7499892743633082  1.0000
  C   C2        1.0  0.5167149508543433  0.4833008605471035  0.2500093610206164  1.0000
  C   C3        1.0  0.4890959546827034  0.8395676145191897  0.8809678733341573  1.0000
  C   C4        1.0  0.16043576271124496  0.510893201424267  0.6190259928837064  1.0000
  C   C5        1.0  0.5109017470736107  0.16043245042128257  0.11903501886470741  1.0000
  C   C6        1.0  0.8395638151295587  0.4891059536871579  0.3809741860028666  1.0000
  C   C7        1.0  0.3972459836317555  0.7066969786048674  0.7927491571315313  1.0000
  C   C8        1.0  0.2932964706075509  0.6027540275177117  0.7072465682514489  1.0000
  C   C9        1.0  0.6027537101753353  0.2933003548685349  0.20725473381367007  1.0000
  C   C10       1.0  0.7067046328642235  0.3972496802689419  0.2927505733918778  1.0000
  C   C11       1.0  0.29057799079026847  0.8975619984213735  0.8304429803445145  1.0000
  C   C12       1.0  0.10243064713797172  0.7094183815544212  0.6695643256557773  1.0000
  C   C13       1.0  0.7094206790806796  0.10243715721458811  0.16955490880155813  1.0000
  C   C14       1.0  0.8975706894454449  0.2905816840683997  0.33043524983791167  1.0000
  C   C15       1.0  0.4931795721132985  0.6167252044967667  0.7948367887872082  1.0000
  C   C16       1.0  0.38326861451212574  0.5068210435590499  0.7051368255377497  1.0000
  C   C17       1.0  0.5068268659624948  0.38328032437579646  0.20515873528447062  1.0000
  C   C18       1.0  0.616738266292792  0.49319177004346665  0.2948519620179723  1.0000
  C   C19       1.0  0.6042323859701284  0.7928958673981726  0.030810286215384477  1.0000
  C   C20       1.0  0.20710742140397542  0.39575879834126215  0.46917506508213347  1.0000
  C   C21       1.0  0.3957701516430562  0.2070996465709315  0.969187551787023  1.0000
  C   C22       1.0  0.7928885229853082  0.6042403573853861  0.5308226085315936  1.0000
  C   C23       1.0  0.17609952497460316  0.8590275837985003  0.8944383971993731  1.0000
  C   C24       1.0  0.14096549649394066  0.8238999213921044  0.6055730629450409  1.0000
  C   C25       1.0  0.8238981765852034  0.1409724809566058  0.10556532671063919  1.0000
  C   C26       1.0  0.859037657994314  0.17610014503530644  0.3944227749181977  1.0000
  C   C27       1.0  0.5152350921494033  0.7619625951908447  0.9827086476348654  1.0000
  C   C28       1.0  0.23803985531858277  0.48475783365128666  0.5172826662775591  1.0000
  C   C29       1.0  0.4847646024437396  0.23803473902403033  0.01729191646575152  1.0000
  C   C30       1.0  0.7619569390574199  0.5152422323698218  0.482715441047361  1.0000
  C   C31       1.0  0.20877646774350472  0.09316312834747009  0.7672307700714073  1.0000
  C   C32       1.0  0.9068314129560237  0.7912197687407241  0.7327686292949737  1.0000
  C   C33       1.0  0.7912177163310616  0.9068351153848441  0.2327741606243734  1.0000
  C   C34       1.0  0.0931689582639379  0.20878120878173687  0.26722430529545704  1.0000
  C   C35       1.0  0.07590614653060612  0.9418249151583493  0.8906101934664719  1.0000
  C   C36       1.0  0.05816841480756103  0.9240931038815529  0.6093965030637776  1.0000
  C   C37       1.0  0.9240908805640089  0.05817150832820058  0.10939201113111346  1.0000
  C   C38       1.0  0.9418382561833597  0.075908782641811  0.39060228656941837  1.0000
  C   C39       1.0  0.6306516496228342  0.9730789884407045  0.8766696362662428  1.0000
  C   C40       1.0  0.026926196138404607  0.3693346378936654  0.6233193964817758  1.0000
  C   C41       1.0  0.3693489533331871  0.026918345620359194  0.1233315541525855  1.0000
  C   C42       1.0  0.9730705970585166  0.6306654270152521  0.37668370111003197  1.0000
  C   C43       1.0  0.6632280616583657  0.9002720508004315  0.9768353193678863  1.0000
  C   C44       1.0  0.09973639770637993  0.33676061277705566  0.5231563306622675  1.0000
  C   C45       1.0  0.33677447536528865  0.0997234626125731  0.023165013767957966  1.0000
  C   C46       1.0  0.900259311606135  0.6632421832597541  0.47684722621256265  1.0000
  C   C47       1.0  0.09225076502033151  0.061968341355374386  0.8275225347778985  1.0000
  C   C48       1.0  0.9380243469602618  0.9077435457151138  0.6724802687340983  1.0000
  C   C49       1.0  0.9077426288192783  0.9380280829317653  0.17247633283568592  1.0000
  C   C50       1.0  0.06198159059977121  0.09225560943186652  0.32751930411308183  1.0000
  Br  Br1       1.0  0.36441607412211857  0.11160479535084988  0.4639750869550099  1.0000
  Br  Br2       1.0  0.8884014910914716  0.6355714608827865  0.03603077282114243  1.0000
  Br  Br3       1.0  0.6355795186345717  0.8883998217678766  0.5360272529946286  1.0000
  Br  Br4       1.0  0.11159990386811103  0.3644276942917557  0.9639689952795649  1.0000
  Br  Br5       1.0  0.5984157825801121  0.245125266422427  0.6370324184541899  1.0000
  Br  Br6       1.0  0.7548691035455094  0.40158100280519443  0.8629502881457539  1.0000
  Br  Br7       1.0  0.4015853792678287  0.7548775309159481  0.36296491579615514  1.0000
  Br  Br8       1.0  0.2451312659058403  0.5984199730489691  0.13705013184499396  1.0000
  N   N1        1.0  0.396079840576121  0.8156732501288316  0.8298162194363313  1.0000
  N   N2        1.0  0.18432115098956103  0.6039111026751272  0.6701841483093176  1.0000
  N   N3        1.0  0.6039196786920015  0.1843268152454982  0.1701845985543712  1.0000
  N   N4        1.0  0.8156793352141208  0.3960880522824865  0.32981665689547407  1.0000
  N   N5        1.0  0.3011570714068413  0.6988421166416928  0.7499956864458213  1.0000
  N   N6        1.0  0.6988423888955707  0.3011588586248166  0.25000743407130704  1.0000
  N   N7        1.0  0.30561065530902454  0.011606775166235598  0.7667751071931265  1.0000
  N   N8        1.0  0.9883863725349755  0.6943823116264196  0.7332309771707629  1.0000
  N   N9        1.0  0.6943852879011844  0.9883923794482072  0.2332275566874812  1.0000
  N   N10       1.0  0.011614847296108597  0.30561957489294395  0.26676821310888943  1.0000
  N   N11       1.0  0.5466896751207527  0.9419679585777274  0.8284714464731381  1.0000
  N   N12       1.0  0.058034442256747816  0.45330002313399836  0.6715221518938109  1.0000
  N   N13       1.0  0.45330984336132474  0.058032106055136985  0.17153269836215665  1.0000
  N   N14       1.0  0.9419640513066199  0.5467018627345794  0.32848014969808753  1.0000
