data_image0
_chemical_formula_structural       Zn4H40C50S2N16O6
_chemical_formula_sum              "Zn4 H40 C50 S2 N16 O6"
_cell_length_a       14.861622100897296
_cell_length_b       14.913518071961237
_cell_length_c       14.831440503874637
_cell_angle_alpha    112.0143969734121
_cell_angle_beta     103.94552971252953
_cell_angle_gamma    112.46152259314587

_space_group_name_H-M_alt    "P 1"
_space_group_IT_number       1

loop_
  _space_group_symop_operation_xyz
  'x, y, z'

loop_
  _atom_site_type_symbol
  _atom_site_label
  _atom_site_symmetry_multiplicity
  _atom_site_fract_x
  _atom_site_fract_y
  _atom_site_fract_z
  _atom_site_occupancy
  Zn  Zn1       1.0  0.47118108559994454  0.8452830587219325  0.35626826092338604  1.0000
  Zn  Zn2       1.0  0.3268320138087403  0.8450785970260453  0.4916229702487555  1.0000
  Zn  Zn3       1.0  0.472851966349765  0.12229229364163528  0.6290378807964245  1.0000
  Zn  Zn4       1.0  0.6075346446503929  0.12089423590195739  0.48685526656336  1.0000
  H   H1        1.0  0.5130818830324844  0.7954399214713066  0.13225448171495208  1.0000
  H   H2        1.0  0.9815038294894975  0.5485407558716772  0.8095405910908012  1.0000
  H   H3        1.0  0.8183295324522958  0.5532031412284297  0.008284386327701905  1.0000
  H   H4        1.0  0.003819362947922449  0.5674122716576663  0.12079870197567298  1.0000
  H   H5        1.0  0.09611535596555841  0.5616037595271591  0.0671164288049866  1.0000
  H   H6        1.0  0.8660715604020197  0.41662481501374754  0.9451075092453677  1.0000
  H   H7        1.0  0.9566236800814992  0.4376053974722538  0.8871218054224954  1.0000
  H   H8        1.0  0.10830006049057073  0.8094682498441801  0.5393792332718661  1.0000
  H   H9        1.0  0.9869072420917392  0.8314054792701813  0.6284405801371804  1.0000
  H   H10       1.0  0.5591909317324237  0.799367071365367  0.9878023501227701  1.0000
  H   H11       1.0  0.8189586840755467  0.8320731300638398  0.6141549062527288  1.0000
  H   H12       1.0  0.5431407091743239  0.8004822602043759  0.8200584705574483  1.0000
  H   H13       1.0  0.9755841773403305  0.1740884811269012  0.6777821160433035  1.0000
  H   H14       1.0  0.691081278631053  0.1642727477323191  0.9982816266692394  1.0000
  H   H15       1.0  0.1430572932572645  0.17387448270510927  0.6928972689572532  1.0000
  H   H16       1.0  0.7074731117489537  0.16316786169327463  0.1654747869721689  1.0000
  H   H17       1.0  0.21265518868914057  0.40364441429390746  0.4218606271770327  1.0000
  H   H18       1.0  0.4161772563143985  0.4244338456263891  0.25749665332008215  1.0000
  H   H19       1.0  0.3078518068457896  0.17669668180041498  0.7273117585219353  1.0000
  H   H20       1.0  0.7016105640060458  0.1631184124409089  0.31631710573363137  1.0000
  H   H21       1.0  0.22595777464422895  0.24903382531969956  0.4326369307320946  1.0000
  H   H22       1.0  0.4301384300864087  0.27093583728313325  0.26903467384548213  1.0000
  H   H23       1.0  0.4744616939459902  0.154853153290631  0.3101769492359381  1.0000
  H   H24       1.0  0.983319251792402  0.7885873847114909  0.06922817536900551  1.0000
  H   H25       1.0  0.2960583144385396  0.15863659231821708  0.5025123063884394  1.0000
  H   H26       1.0  0.11133802243218575  0.7966832910330622  0.3143070009116613  1.0000
  H   H27       1.0  0.3051403109311649  0.8007258140743899  0.13750730102616165  1.0000
  H   H28       1.0  0.4327520499521214  0.5884317854028964  0.27529165139937833  1.0000
  H   H29       1.0  0.2382155447755351  0.5810484683941438  0.45051115944109904  1.0000
  H   H30       1.0  0.10834440389096762  0.7810179516984662  0.9926401647905791  1.0000
  H   H31       1.0  0.6489541059726776  0.3829244593989858  0.8463158393251858  1.0000
  H   H32       1.0  0.824056696222904  0.3879608388767437  0.6520143274007351  1.0000
  H   H33       1.0  0.8181494492605097  0.17672763449917983  0.6721436633264232  1.0000
  H   H34       1.0  0.6501108417149198  0.1654587747945442  0.8399212033971324  1.0000
  H   H35       1.0  0.4563883121573866  0.7970770148359704  0.6581680698063721  1.0000
  H   H36       1.0  0.6486782041619108  0.8087415364699879  0.4918669512884008  1.0000
  H   H37       1.0  0.9626424584236518  0.7322571238262727  0.15297194949828008  1.0000
  H   H38       1.0  0.14017341029579455  0.6741190910402821  0.9683150171927224  1.0000
  H   H39       1.0  0.6689638221424588  0.626548994252495  0.031245532942314424  1.0000
  H   H40       1.0  0.08742597969261102  0.8112793302828933  0.8341894052162927  1.0000
  C   C1        1.0  0.556896000687388  0.8857646122468451  0.191916218705515  1.0000
  C   C2        1.0  0.6745143437558524  0.8979282382635103  0.5280292603795401  1.0000
  C   C3        1.0  0.7681012253178919  0.36834884659356243  0.6867904146422319  1.0000
  C   C4        1.0  0.496307072432401  0.8874198977814343  0.6879763692813156  1.0000
  C   C5        1.0  0.32654538746659506  0.5351866316702214  0.3538160481890102  1.0000
  C   C6        1.0  0.7778124784368786  0.43314688606935897  0.7894921059096943  1.0000
  C   C7        1.0  0.7781400090803886  0.9953104898470286  0.6048505244055491  1.0000
  C   C8        1.0  0.5754036764292678  0.9810292913956999  0.7926774900012531  1.0000
  C   C9        1.0  0.17168062169821496  0.8986870456985229  0.5826343809056667  1.0000
  C   C10       1.0  0.9678441766741486  0.7139346685028798  0.07616702504203235  1.0000
  C   C11       1.0  0.07799134913296513  0.6944691320942981  0.9770993670585926  1.0000
  C   C12       1.0  0.8590383620272632  0.608078028975747  0.9802450305214235  1.0000
  C   C13       1.0  0.9698104061315076  0.6076437573488177  0.8698816634764909  1.0000
  C   C14       1.0  0.026071901796257114  0.5726643489771276  0.05660718715729732  1.0000
  C   C15       1.0  0.061643385266535004  0.6927246719708362  0.07525264118964965  1.0000
  C   C16       1.0  0.8787329695399607  0.5347427899960807  0.8899286640405107  1.0000
  C   C17       1.0  0.272665891689698  0.08574434944811318  0.6773496396518723  1.0000
  C   C18       1.0  0.6524612334903921  0.0729040241131216  0.28527157419514276  1.0000
  C   C19       1.0  0.9311037360194944  0.4823491332904196  0.9432050269855949  1.0000
  C   C20       1.0  0.9848818260478326  0.9070249458103278  0.6390104765302596  1.0000
  C   C21       1.0  0.5876257340767879  0.8800329836237637  0.9907621368092236  1.0000
  C   C22       1.0  0.8896146607705547  0.9073240250586495  0.6307658101403675  1.0000
  C   C23       1.0  0.5785893929528925  0.8806217329083879  0.8954706162559135  1.0000
  C   C24       1.0  0.8822067129212956  0.001405908036936402  0.6398979745170265  1.0000
  C   C25       1.0  0.7615436647439112  0.0855594263226109  0.6193132766266486  1.0000
  C   C26       1.0  0.6097778392894497  0.9816905639932186  0.8940548281239488  1.0000
  C   C27       1.0  0.9780102600661281  0.0992628245333265  0.6692573727558865  1.0000
  C   C28       1.0  0.6622874829426663  0.0834776027120796  0.9949834021485909  1.0000
  C   C29       1.0  0.07290672789583401  0.0990417798210714  0.677574840413925  1.0000
  C   C30       1.0  0.6713921933571855  0.08284404051853039  0.09003310649409707  1.0000
  C   C31       1.0  0.5948090001746068  0.07516897502888041  0.7808478537834772  1.0000
  C   C32       1.0  0.076916811494641  0.0008959394105829998  0.657143544505743  1.0000
  C   C33       1.0  0.6286113961818954  0.9803603183852373  0.08918972572872959  1.0000
  C   C34       1.0  0.2605920770023219  0.37489183005985205  0.38779153158610313  1.0000
  C   C35       1.0  0.3734743535128899  0.3861619729423608  0.29574586574742767  1.0000
  C   C36       1.0  0.2680644545682398  0.2870068686881595  0.39383988239877243  1.0000
  C   C37       1.0  0.38106388484381176  0.298528446745479  0.3018803149735589  1.0000
  C   C38       1.0  0.3331736057750875  0.2505203158039109  0.35604293828054506  1.0000
  C   C39       1.0  0.43768597079736793  0.1479179383520588  0.36413449639636747  1.0000
  C   C40       1.0  0.34657785287173937  0.1495007346584387  0.4619225676672015  1.0000
  C   C41       1.0  0.3174059449342792  0.4303625971813715  0.34324052469744964  1.0000
  C   C42       1.0  0.17334042913322642  0.8051810154318064  0.2859094630592126  1.0000
  C   C43       1.0  0.2718584875118849  0.806939416585166  0.195762570378065  1.0000
  C   C44       1.0  0.6174841597124398  0.979110298829532  0.18393017689806604  1.0000
  C   C45       1.0  0.16933121637307375  0.9952550289563007  0.6442645274938598  1.0000
  C   C46       1.0  0.3637413488803247  0.17958261066605974  0.3855563250160827  1.0000
  C   C47       1.0  0.1648341851606431  0.7740823158480621  0.1809039485324178  1.0000
  C   C48       1.0  0.38700294544673147  0.6030861183745984  0.32032060232709375  1.0000
  C   C49       1.0  0.2879853394038889  0.5993303274608336  0.4094582388342615  1.0000
  C   C50       1.0  0.6786365205275545  0.36582951237036815  0.7854466727486838  1.0000
  S   S1        1.0  0.7586498870819726  0.6479967023965401  0.9404140272624062  1.0000
  S   S2        1.0  0.9361780523899981  0.6778625285892232  0.8017493009484085  1.0000
  N   N1        1.0  0.5559126775266421  0.9214392725044364  0.28950532624804737  1.0000
  N   N2        1.0  0.40766225041886645  0.10649149511219491  0.4852612775551748  1.0000
  N   N3        1.0  0.4636525356606215  0.10551324844895052  0.42510693642199726  1.0000
  N   N4        1.0  0.2771817555399848  0.8509945137807902  0.35653839506412766  1.0000
  N   N5        1.0  0.3377262655425497  0.8521696820890625  0.3012515724922764  1.0000
  N   N6        1.0  0.38443644780701913  0.6989061991365447  0.35320298835495123  1.0000
  N   N7        1.0  0.32265735890059943  0.696695408416197  0.4087690037456539  1.0000
  N   N8        1.0  0.2680724759159858  0.9295597468484686  0.5791480240203271  1.0000
  N   N9        1.0  0.6146915104884272  0.26891295961841877  0.6875402912180845  1.0000
  N   N10       1.0  0.670344393417409  0.2703283966937136  0.6261389026490747  1.0000
  N   N11       1.0  0.6573678039700896  0.0443347774692455  0.5543346799841302  1.0000
  N   N12       1.0  0.5304945368003972  0.0394812753364562  0.6784079350454988  1.0000
  N   N13       1.0  0.4698641763780245  0.9241497038473269  0.6212220212821505  1.0000
  N   N14       1.0  0.6038375592670491  0.9290310177616021  0.4979889848921105  1.0000
  N   N15       1.0  0.33097694357318375  0.0461677851268121  0.6384813250128971  1.0000
  N   N16       1.0  0.6155144418699408  0.038069862868397294  0.3474601900890022  1.0000
  O   O1        1.0  0.8013724905902676  0.7650360143278546  0.01910932234115142  1.0000
  O   O2        1.0  0.8490146797480805  0.5945465320159968  0.6942338681270712  1.0000
  O   O3        1.0  0.9363805918581106  0.7742318021690976  0.8757323505528659  1.0000
  O   O4        1.0  0.045947337352558175  0.728683122511569  0.7851796769651287  1.0000
  O   O5        1.0  0.709431437463394  0.6023795338282696  0.8256126893824813  1.0000
  O   O6        1.0  0.6631914409032832  0.5720990705393803  0.9641231226801351  1.0000
