data_image0
_chemical_formula_structural       Al2H11C24O10F3
_chemical_formula_sum              "Al2 H11 C24 O10 F3"
_cell_length_a       6.67077893537685
_cell_length_b       11.114616244422312
_cell_length_c       17.947405950510277
_cell_angle_alpha    83.66411178179186
_cell_angle_beta     77.49986326419696
_cell_angle_gamma    73.06677456626748

_space_group_name_H-M_alt    "P 1"
_space_group_IT_number       1

loop_
  _space_group_symop_operation_xyz
  'x, y, z'

loop_
  _atom_site_type_symbol
  _atom_site_label
  _atom_site_symmetry_multiplicity
  _atom_site_fract_x
  _atom_site_fract_y
  _atom_site_fract_z
  _atom_site_occupancy
  Al  Al1       1.0  0.5130158780327462  0.4908756817025051  0.5012700762214877  1.0000
  Al  Al2       1.0  0.014051796691170177  0.49040993553747114  0.49902497717558725  1.0000
  H   H1        1.0  0.2253847350810929  0.6345897529462333  0.4474223116312572  1.0000
  H   H2        1.0  0.7487898279039911  0.42098556374939733  0.5920735281502161  1.0000
  H   H3        1.0  0.1277285701573092  0.10146069632161671  0.5181983855175006  1.0000
  H   H4        1.0  0.7783894232523564  0.12113206956318824  0.4707415158951991  1.0000
  H   H5        1.0  0.25968955025481216  0.8654797739098541  0.5191243613247851  1.0000
  H   H6        1.0  0.5856542198847733  0.44314971962456445  0.2785793143724363  1.0000
  H   H7        1.0  0.6280421017400427  0.45268752995902156  0.13674273888673136  1.0000
  H   H8        1.0  0.22021468540264522  0.5507065660798957  0.11672937026878576  1.0000
  H   H9        1.0  0.7410800980291439  0.4664540449912877  0.8785704372722591  1.0000
  H   H10       1.0  0.40176471019526605  0.5604409536223259  0.7293471285934673  1.0000
  H   H11       1.0  0.3215492973278912  0.5708034553927702  0.871177607464077  1.0000
  C   C1        1.0  0.8395360413586346  0.4819736429004846  0.36321460002064765  1.0000
  C   C2        1.0  0.6604490315882715  0.7197954510097873  0.4976895869633183  1.0000
  C   C3        1.0  0.17977607076048946  0.5015110994404282  0.6387398754627186  1.0000
  C   C4        1.0  0.36907430231082117  0.26517316677588093  0.497371364064705  1.0000
  C   C5        1.0  0.5906890989937993  0.8603391021508101  0.4954160370841764  1.0000
  C   C6        1.0  0.44445431616579606  0.1250407673226519  0.49524692248300545  1.0000
  C   C7        1.0  0.7332019407318668  0.9353964511510497  0.4808243083810171  1.0000
  C   C8        1.0  0.2978066411390614  0.05331968816957298  0.5080171932327249  1.0000
  C   C9        1.0  0.663846830820759  0.065663031448203  0.48141746698957655  1.0000
  C   C10       1.0  0.37119710391285565  0.9228471970814097  0.5085092970252278  1.0000
  C   C11       1.0  0.8781461495914938  0.48677071403861305  0.27797962448516966  1.0000
  C   C12       1.0  0.7255119495413067  0.46440515987946185  0.2419940122386849  1.0000
  C   C13       1.0  0.748254850296476  0.4707395456884171  0.16314871445729312  1.0000
  C   C14       1.0  0.9274885662107478  0.501787423163975  0.11634955005003182  1.0000
  C   C15       1.0  0.08157085157607477  0.5251045627655982  0.15117408632387005  1.0000
  C   C16       1.0  0.05534161580403928  0.5169771046165577  0.23016089322116787  1.0000
  C   C17       1.0  0.9550094568629244  0.5100469448041168  0.03576115612312954  1.0000
  C   C18       1.0  0.9851982802778707  0.5166429561494538  0.9660477605468718  1.0000
  C   C19       1.0  0.026510907672019485  0.5186938766961189  0.8853605920187634  1.0000
  C   C20       1.0  0.88542802167926  0.4890343135923132  0.8469403007804318  1.0000
  C   C21       1.0  0.9330941848088373  0.48561539900136086  0.767977302145134  1.0000
  C   C22       1.0  0.11949132557810314  0.5100891483054397  0.7234977057733973  1.0000
  C   C23       1.0  0.25664229349137446  0.5413588437656499  0.7630668174094171  1.0000
  C   C24       1.0  0.2125922770410256  0.5466057684009441  0.8419019993533541  1.0000
  O   O1        1.0  0.659815953405811  0.46709439323579727  0.39771225624962636  1.0000
  O   O2        1.0  0.8513504017300235  0.6653625972279258  0.5054542250833978  1.0000
  O   O3        1.0  0.042699100211393774  0.4848549993293572  0.6044519142075018  1.0000
  O   O4        1.0  0.5029423186922627  0.32028399094519944  0.5073490616649964  1.0000
  O   O5        1.0  0.3662482265551574  0.5103575282210144  0.607404839451185  1.0000
  O   O6        1.0  0.1772047103742551  0.3180483278694338  0.4902609553208351  1.0000
  O   O7        1.0  0.9838328127337372  0.4947766908711344  0.39526870892599686  1.0000
  O   O8        1.0  0.5208790976429964  0.6652347664923609  0.49191082946617853  1.0000
  O   O9        1.0  0.25600541053533726  0.5476995104263621  0.46714189419270724  1.0000
  O   O10       1.0  0.7677703125985855  0.4385130262310072  0.5371984494458105  1.0000
  F   F1        1.0  0.9481991987721868  0.8822269689243356  0.46389820340223764  1.0000
  F   F2        1.0  0.2089716666646808  0.5419569076904407  0.2596190821156129  1.0000
  F   F3        1.0  0.790013072293007  0.45445386237990687  0.735383512471387  1.0000
