data_image0
_chemical_formula_structural       Ag2H36C40N10O10
_chemical_formula_sum              "Ag2 H36 C40 N10 O10"
_cell_length_a       9.142757530015862
_cell_length_b       9.562062566523872
_cell_length_c       13.38073879457662
_cell_angle_alpha    74.95549762317751
_cell_angle_beta     85.33754019362586
_cell_angle_gamma    66.84016140289691

_space_group_name_H-M_alt    "P 1"
_space_group_IT_number       1

loop_
  _space_group_symop_operation_xyz
  'x, y, z'

loop_
  _atom_site_type_symbol
  _atom_site_label
  _atom_site_symmetry_multiplicity
  _atom_site_fract_x
  _atom_site_fract_y
  _atom_site_fract_z
  _atom_site_occupancy
  Ag  Ag1       1.0  0.06098227519720466  0.2002719927945833  0.5067736874760982  1.0000
  Ag  Ag2       1.0  0.939014452404692  0.7997313876311196  0.4932243987598639  1.0000
  H   H1        1.0  0.35430184807653825  0.09744617834566331  0.1483506943967683  1.0000
  H   H2        1.0  0.6457039757458741  0.9025536473825824  0.8516461356929738  1.0000
  H   H3        1.0  0.5426922937414387  0.30566379775448377  0.17133553028746457  1.0000
  H   H4        1.0  0.45730305838769436  0.6943372392239054  0.8286667773740818  1.0000
  H   H5        1.0  0.31622834064128114  0.5651191925092007  0.14272010141083774  1.0000
  H   H6        1.0  0.6837643221877484  0.4348830265344503  0.8572836068751286  1.0000
  H   H7        1.0  0.42554599031846163  0.16115187968335926  0.8197393849295551  1.0000
  H   H8        1.0  0.5744574297109891  0.8388456110992594  0.18025872085872405  1.0000
  H   H9        1.0  0.11741512651565235  0.24042292188467942  0.8684437494602193  1.0000
  H   H10       1.0  0.8825845404903562  0.7595757576268907  0.13155430801554502  1.0000
  H   H11       1.0  0.17069225843514596  0.32103648727753853  0.035123981638648195  1.0000
  H   H12       1.0  0.8293111438927313  0.6789610025860853  0.9648748725446837  1.0000
  H   H13       1.0  0.28649268270581263  0.40281835284714873  0.9457275739639925  1.0000
  H   H14       1.0  0.7135107019204983  0.5971791360974734  0.05427202861439175  1.0000
  H   H15       1.0  0.8924508660862784  0.2558653014710615  0.12887666403888431  1.0000
  H   H16       1.0  0.10754482465470262  0.7441322212534373  0.8711232735116141  1.0000
  H   H17       1.0  0.7186712481210549  0.10107277584851457  0.047686566675992005  1.0000
  H   H18       1.0  0.2813258997217217  0.8989294284873423  0.9523132082220798  1.0000
  H   H19       1.0  0.8312029219793685  0.1877573478885921  0.9583785468195744  1.0000
  H   H20       1.0  0.16879307363223  0.8122448585159602  0.04162352111680431  1.0000
  H   H21       1.0  0.13963650218044418  0.28216839415026124  0.6888570410895624  1.0000
  H   H22       1.0  0.8603575629837651  0.717830303975802  0.31114574602230505  1.0000
  H   H23       1.0  0.7517176648121903  0.6914928261396581  0.7464791165434974  1.0000
  H   H24       1.0  0.2482810823650609  0.30850233567273466  0.2535233542298485  1.0000
  H   H25       1.0  0.6063697871692849  0.6935471746255429  0.5959842540776848  1.0000
  H   H26       1.0  0.39363709183574963  0.30644677823611494  0.4040188219905971  1.0000
  H   H27       1.0  0.7374325139168789  0.48551987985233314  0.49830542104515274  1.0000
  H   H28       1.0  0.26256709082357327  0.5144846621861418  0.5016908329692242  1.0000
  H   H29       1.0  0.9197255264883354  0.18361029247180477  0.3118375433443106  1.0000
  H   H30       1.0  0.080277643437114  0.8163907171596917  0.6881591905797535  1.0000
  H   H31       1.0  0.2518606565819893  0.7867423719666531  0.20870898882304795  1.0000
  H   H32       1.0  0.7481446407901374  0.2132586243374632  0.7912906429749071  1.0000
  H   H33       1.0  0.4387742334471766  0.7415748277741514  0.354104017248659  1.0000
  H   H34       1.0  0.5612312517633953  0.25842851220798474  0.6458951829521311  1.0000
  H   H35       1.0  0.3486076164517086  0.9180809168092097  0.47349893158432377  1.0000
  H   H36       1.0  0.6513900047366548  0.08192011419377818  0.5265002867906929  1.0000
  C   C1        1.0  0.37333854642664493  0.14928533290304094  0.9819068817343819  1.0000
  C   C2        1.0  0.6266681532806614  0.8507121424834949  0.018091828889474502  1.0000
  C   C3        1.0  0.4172186668397514  0.0554017776497062  0.0825863578495003  1.0000
  C   C4        1.0  0.5827893552356184  0.9445980384271523  0.9174103765339297  1.0000
  C   C5        1.0  0.5251228700367462  0.3912325313761755  0.09652646299280579  1.0000
  C   C6        1.0  0.47486715659687917  0.6087708724897282  0.9034764007324227  1.0000
  C   C7        1.0  0.6286982637054308  0.3530962649641154  0.015814187879001913  1.0000
  C   C8        1.0  0.3712955336532104  0.6469059510918314  0.9841879757637031  1.0000
  C   C9        1.0  0.39800809794916603  0.5367901074245012  0.0801244038218627  1.0000
  C   C10       1.0  0.6019845648798636  0.4632121116191499  0.9198793044641036  1.0000
  C   C11       1.0  0.45768524168127556  0.09162421569548229  0.8993096426112784  1.0000
  C   C12       1.0  0.5423203766011255  0.9083732654357418  0.10068836747068842  1.0000
  C   C13       1.0  0.23969597324825279  0.3093463526763144  0.9641861605352061  1.0000
  C   C14       1.0  0.7603110028053449  0.6906534709832359  0.035808376516229055  1.0000
  C   C15       1.0  0.04678798471181977  0.4790778926894461  0.8220259339858985  1.0000
  C   C16       1.0  0.9532145063280311  0.5209219456778983  0.1779725364534315  1.0000
  C   C17       1.0  0.7639707569860406  0.1954526852785037  0.030103554949711515  1.0000
  C   C18       1.0  0.23602574737427756  0.8045483496311832  0.9698964596735209  1.0000
  C   C19       1.0  0.9620429410406716  0.016103992985108596  0.16380305109020543  1.0000
  C   C20       1.0  0.03795665515905696  0.9838946828504689  0.836197999965762  1.0000
  C   C21       1.0  0.020209044703200636  0.37295034814741956  0.6732735837331063  1.0000
  C   C22       1.0  0.9797903721988065  0.6270518502130286  0.3267231018784357  1.0000
  C   C23       1.0  0.9550806109379334  0.48292437011443934  0.7325930461290467  1.0000
  C   C24       1.0  0.04491655460641648  0.5170778351404124  0.2674059803739723  1.0000
  C   C25       1.0  0.8048521900070399  0.6013892706391814  0.7038492651494366  1.0000
  C   C26       1.0  0.1951456104790451  0.3986082378389355  0.2961543186700056  1.0000
  C   C27       1.0  0.7235452906307954  0.6025874867983417  0.6196569329585557  1.0000
  C   C28       1.0  0.2764503824086119  0.3974100350071551  0.38034375298700246  1.0000
  C   C29       1.0  0.7958814615520994  0.4877066064068317  0.5653654339095907  1.0000
  C   C30       1.0  0.20411769670518956  0.5122932445996041  0.4346346768793197  1.0000
  C   C31       1.0  0.03390600231127648  0.0856681300511539  0.31796323921163616  1.0000
  C   C32       1.0  0.9660942550724839  0.9143317161295812  0.6820368237241184  1.0000
  C   C33       1.0  0.07374686482955892  0.9912841414222199  0.2480795016787809  1.0000
  C   C34       1.0  0.9262522757261564  0.008715708665221198  0.7519213575051821  1.0000
  C   C35       1.0  0.21971681618433786  0.8628484459358673  0.2617845186434736  1.0000
  C   C36       1.0  0.780287114255742  0.13715607312383327  0.7382145375384681  1.0000
  C   C37       1.0  0.32129235934019806  0.8359665227497998  0.3425204390305012  1.0000
  C   C38       1.0  0.6787114540677166  0.16403565630786685  0.6574760551684024  1.0000
  C   C39       1.0  0.2734856181238996  0.9356484862739548  0.408761037925558  1.0000
  C   C40       1.0  0.726512120096629  0.06435488473106689  0.5912407424325039  1.0000
  N   N1        1.0  0.13631502765884565  0.33555899232623426  0.8781133321894714  1.0000
  N   N2        1.0  0.8636834871159776  0.6644396892540384  0.12188701832460681  1.0000
  N   N3        1.0  0.8725684815780427  0.16395531749368789  0.11483211677060011  1.0000
  N   N4        1.0  0.1274294074158887  0.8360421955794165  0.8851677250735861  1.0000
  N   N5        1.0  0.9429027642181539  0.3754259762993613  0.5909033817860561  1.0000
  N   N6        1.0  0.05709512477577046  0.6245715367737432  0.40909646005812317  1.0000
  N   N7        1.0  0.13123931103361033  0.05737424588398449  0.39771385458343644  1.0000
  N   N8        1.0  0.8687635825455472  0.9426244154744977  0.6022870529130557  1.0000
  N   N9        1.0  0.37629177006388653  0.002258162007748899  0.6495274974002783  1.0000
  N   N10       1.0  0.623708184111166  0.9977452002648803  0.3504734388564117  1.0000
  O   O1        1.0  0.03803466595048371  0.6046748268752536  0.8394158712646913  1.0000
  O   O2        1.0  0.961966672858182  0.395325013560793  0.16058489221295247  1.0000
  O   O3        1.0  0.9577982623100639  0.898490164046052  0.140988559683521  1.0000
  O   O4        1.0  0.042200708108772696  0.10150734328235698  0.8590119827025547  1.0000
  O   O5        1.0  0.34783018255123466  0.14773164946584666  0.6113989277755607  1.0000
  O   O6        1.0  0.6521734538409875  0.8522705204018377  0.3886050503738616  1.0000
  O   O7        1.0  0.5064755683066692  0.9109962804878364  0.6957655576062648  1.0000
  O   O8        1.0  0.49352622614600955  0.08900238569634669  0.30423539774338343  1.0000
  O   O9        1.0  0.27122363292143326  0.9498259764147792  0.6394601354625138  1.0000
  O   O10       1.0  0.7287770178407911  0.0501785580410044  0.360538315883865  1.0000
