data_image0
_chemical_formula_structural       Zn4H40C99I12N16O15
_chemical_formula_sum              "Zn4 H40 C99 I12 N16 O15"
_cell_length_a       19.22987700990558
_cell_length_b       19.345612290060945
_cell_length_c       20.536939741314484
_cell_angle_alpha    104.8859542901822
_cell_angle_beta     108.5784290962325
_cell_angle_gamma    114.31957500710179

_space_group_name_H-M_alt    "P 1"
_space_group_IT_number       1

loop_
  _space_group_symop_operation_xyz
  'x, y, z'

loop_
  _atom_site_type_symbol
  _atom_site_label
  _atom_site_symmetry_multiplicity
  _atom_site_fract_x
  _atom_site_fract_y
  _atom_site_fract_z
  _atom_site_occupancy
  Zn  Zn1       1.0  0.8854305293478361  0.8802754033783129  0.5006909602390764  1.0000
  Zn  Zn2       1.0  0.12315525523503369  0.10839340582939627  0.5007957485675905  1.0000
  Zn  Zn3       1.0  0.12849335581048388  0.01687407583470699  0.630418399391573  1.0000
  Zn  Zn4       1.0  0.9073551930799081  0.9979662688329893  0.40627782521476535  1.0000
  H   H1        1.0  0.15703513671459746  0.27842565251386014  0.4771564990596745  1.0000
  H   H2        1.0  0.12575506668754596  0.1542200516556989  0.7531082328069874  1.0000
  H   H3        1.0  0.8445483130039263  0.11358070988598  0.4848892920509656  1.0000
  H   H4        1.0  0.0759093452737076  0.23642029084423652  0.5753985649647222  1.0000
  H   H5        1.0  0.8541776003519882  0.9820943809726824  0.6264489474165273  1.0000
  H   H6        1.0  0.8764258639056874  0.8468461594025667  0.2692607853310704  1.0000
  H   H7        1.0  0.15757394040185346  0.9779534922653  0.39846340565593164  1.0000
  H   H8        1.0  0.7126988016830536  0.883938201951558  0.2542972243405471  1.0000
  H   H9        1.0  0.33685112932735706  0.07403116975042678  0.6948076266090271  1.0000
  H   H10       1.0  0.5494123598444247  0.887300481463875  0.5694562819963667  1.0000
  H   H11       1.0  0.042917272156167  0.7082656946686824  0.5606326354079061  1.0000
  H   H12       1.0  0.07236200985623498  0.6219665866158977  0.6220298191771294  1.0000
  H   H13       1.0  6.61425835347007e-05  0.52764885180153  0.25620362279757103  1.0000
  H   H14       1.0  0.5439346645746425  0.6005448827041062  0.21280428731269305  1.0000
  H   H15       1.0  0.4223520747912345  0.7382060642486222  0.07965612592357732  1.0000
  H   H16       1.0  0.1460716483325298  0.4187448463634381  0.9116940863469839  1.0000
  H   H17       1.0  0.5610816544252087  0.8260928873757508  0.20184809890778152  1.0000
  H   H18       1.0  0.3080455544698495  0.4938588414727576  0.9900429458929099  1.0000
  H   H19       1.0  0.4060055796708894  0.512981372050966  0.0911382314440772  1.0000
  H   H20       1.0  0.2843321899645375  0.5212955982629168  0.7971651700794029  1.0000
  H   H21       1.0  0.8963860518408564  0.729124218905646  0.19538951575539446  1.0000
  H   H22       1.0  0.8726334166441986  0.6638243004105533  0.06337591546935775  1.0000
  H   H23       1.0  0.9850489666588512  0.8665931202609868  0.020629528959304356  1.0000
  H   H24       1.0  0.023175232294178692  0.7484443002322932  0.8797741097745091  1.0000
  H   H25       1.0  0.11120165467896469  0.8867854930222306  0.12221704339829392  1.0000
  H   H26       1.0  0.7904673979752628  0.766681901197927  0.6229223481780722  1.0000
  H   H27       1.0  0.36220341041121157  0.19938433609056005  0.5020485438977718  1.0000
  H   H28       1.0  0.19937244583812225  0.8408540365778662  0.5848782737356049  1.0000
  H   H29       1.0  0.57174886285636  0.32409495314197306  0.651731152629914  1.0000
  H   H30       1.0  0.8863210340556761  0.2944003464918906  0.7712277011824045  1.0000
  H   H31       1.0  0.9111656861285907  0.21484570311531564  0.6250224123830679  1.0000
  H   H32       1.0  0.11102739012673618  0.4527364384258731  0.6306678601431416  1.0000
  H   H33       1.0  0.9621514209986016  0.36326747805490794  0.5537472974045771  1.0000
  H   H34       1.0  0.24292056393478123  0.32735675066218306  0.6732106902115761  1.0000
  H   H35       1.0  0.2588578313865638  0.622261465939644  0.8612634755464869  1.0000
  H   H36       1.0  0.14409714291048908  0.019519753231996586  0.3036490802146191  1.0000
  H   H37       1.0  0.8696141388592975  0.866552723760492  0.9603227055255134  1.0000
  H   H38       1.0  0.9305698016662304  0.9986353168690485  0.8509435586157539  1.0000
  H   H39       1.0  0.15817768065763724  0.9818096023415352  0.8518517475030126  1.0000
  H   H40       1.0  0.7244142347075451  0.7073431912959475  0.41871605841357257  1.0000
  C   C1        1.0  0.9233486821481873  0.8590658637061848  0.6495182586175049  1.0000
  C   C2        1.0  0.08791762320529979  0.22983211860695718  0.44558864611933313  1.0000
  C   C3        1.0  0.11181554167210088  0.16260186196904405  0.7011667418095089  1.0000
  C   C4        1.0  0.853214572793753  0.07561894707294675  0.5137096500919682  1.0000
  C   C5        1.0  0.08946822738244009  0.2059304309197856  0.610995252791419  1.0000
  C   C6        1.0  0.8585767103935564  0.008375142694624816  0.5860418629870736  1.0000
  C   C7        1.0  0.9450011718500161  0.15415499614508826  0.37739027599705116  1.0000
  C   C8        1.0  0.06352181789051768  0.9432103828983996  0.7350335921071862  1.0000
  C   C9        1.0  0.9830956856084823  0.8818958724529723  0.7244288234008567  1.0000
  C   C10       1.0  0.017380303765982298  0.23629590825874652  0.4085086116024216  1.0000
  C   C11       1.0  0.10838599347074758  0.22955818474134299  0.6881999467848632  1.0000
  C   C12       1.0  0.8303206946267279  0.061302170520818225  0.5697337451523055  1.0000
  C   C13       1.0  0.6975874328501701  0.7648683343734104  0.344494890696737  1.0000
  C   C14       1.0  0.3036087121423279  0.14570701904143857  0.5669565469371565  1.0000
  C   C15       1.0  0.08993412181376209  0.8523807787192723  0.5282161855895142  1.0000
  C   C16       1.0  0.9451461166124274  0.8868652972944702  0.3113103240689982  1.0000
  C   C17       1.0  0.08891274389907268  0.9551114296689956  0.3763478167372512  1.0000
  C   C18       1.0  0.9557123987836389  0.7758844382240184  0.43236022890029363  1.0000
  C   C19       1.0  0.7165844981856181  0.8517649448328368  0.2903195207300941  1.0000
  C   C20       1.0  0.3174706982315029  0.09616875203852257  0.6530193734293094  1.0000
  C   C21       1.0  0.6528952070970389  0.7743854156652002  0.2805772561637099  1.0000
  C   C22       1.0  0.36082600163500433  0.13073181342715395  0.615495098352021  1.0000
  C   C23       1.0  0.029349652172712095  0.7718164428647469  0.4642593838175061  1.0000
  C   C24       1.0  0.017026288334406597  0.8904206755377189  0.30436265770620013  1.0000
  C   C25       1.0  0.42457512612649845  0.04746132019920421  0.5880735362106579  1.0000
  C   C26       1.0  0.437607740021896  0.1284931087774836  0.6192360214986152  1.0000
  C   C27       1.0  0.5221957776701344  0.2013181619556832  0.6552079366943887  1.0000
  C   C28       1.0  0.5943137565738253  0.19319493622815995  0.6631995363918294  1.0000
  C   C29       1.0  0.5796965518788821  0.11011054719930503  0.632555531520545  1.0000
  C   C30       1.0  0.49459183856922806  0.03599775294388515  0.601557947127944  1.0000
  C   C31       1.0  0.6843311862668742  0.263177625240651  0.7070307887087  1.0000
  C   C32       1.0  0.7510610431885352  0.2547133918580328  0.7030702648753293  1.0000
  C   C33       1.0  0.7307837343357447  0.172899987336109  0.6532926541466397  1.0000
  C   C34       1.0  0.6480634901727454  0.10058329070760408  0.6277193281545835  1.0000
  C   C35       1.0  0.6305716051720366  0.017203886402981497  0.591884998685302  1.0000
  C   C36       1.0  0.553605383591595  0.9474161212615468  0.5803463297699453  1.0000
  C   C37       1.0  0.48948398220299777  0.9565512056619878  0.5875745159350956  1.0000
  C   C38       1.0  0.7903008511856269  0.16054949005327754  0.6322237676773953  1.0000
  C   C39       1.0  0.771591619481981  0.07747762301907095  0.5932829874936091  1.0000
  C   C40       1.0  0.6912800397578421  0.006941640218933358  0.5732850084564519  1.0000
  C   C41       1.0  0.0340916222875833  0.6486531069956812  0.3859689553235415  1.0000
  C   C42       1.0  0.03539106157544579  0.6965960923493951  0.4512928386615088  1.0000
  C   C43       1.0  0.04103124911772229  0.670838343950976  0.5095137591325952  1.0000
  C   C44       1.0  0.042578617845549595  0.5979211658273086  0.5037958244938922  1.0000
  C   C45       1.0  0.034140666636957896  0.5454922439757083  0.43496447430012364  1.0000
  C   C46       1.0  0.029620181472914498  0.5711183621879384  0.37523836243888553  1.0000
  C   C47       1.0  0.05598365933452948  0.5774509539928374  0.5662681041518027  1.0000
  C   C48       1.0  0.05469115936096359  0.5045458070268367  0.5601086844083483  1.0000
  C   C49       1.0  0.033027575606155296  0.4442110955358487  0.4871030914843005  1.0000
  C   C50       1.0  0.02994792883154669  0.4680737894694217  0.4262811890703731  1.0000
  C   C51       1.0  0.020792001818321592  0.41354640385544167  0.35694103306250474  1.0000
  C   C52       1.0  0.004498523583031001  0.4363963947543753  0.2945692148941746  1.0000
  C   C53       1.0  0.0127424017921243  0.5129343569331724  0.30485152318561154  1.0000
  C   C54       1.0  0.014529531680913995  0.3616299042782103  0.4739933503353982  1.0000
  C   C55       1.0  0.019326326380962693  0.31406389321927713  0.4120379186195536  1.0000
  C   C56       1.0  0.028354735939160488  0.34346784179554385  0.3576413860238787  1.0000
  C   C57       1.0  0.5653079873415547  0.7199887845925018  0.21451378081467712  1.0000
  C   C58       1.0  0.5184441843928765  0.6308793867127845  0.18332841956192422  1.0000
  C   C59       1.0  0.4403322409807727  0.5820706996016796  0.11535649920493547  1.0000
  C   C60       1.0  0.4048726363896335  0.6188338053829057  0.07465134414604083  1.0000
  C   C61       1.0  0.4495739551207833  0.7084070055848527  0.10849984991833138  1.0000
  C   C62       1.0  0.5278096331807943  0.7570852833384903  0.17667631246423107  1.0000
  C   C63       1.0  0.16103301130917907  0.40959891947844085  0.8644144332959912  1.0000
  C   C64       1.0  0.11821396484713628  0.32848676635001783  0.8049261659393638  1.0000
  C   C65       1.0  0.19761186568582184  0.3862336811634677  0.742884122442206  1.0000
  C   C66       1.0  0.23694435137650055  0.46814248427977395  0.8002325537111761  1.0000
  C   C67       1.0  0.22443895450570747  0.48032522514100146  0.864666369614618  1.0000
  C   C68       1.0  0.32950782699408876  0.5593005227954534  0.9997364118190292  1.0000
  C   C69       1.0  0.2851323632967108  0.5633583961054143  0.9348207207744113  1.0000
  C   C70       1.0  0.13879096929183982  0.31314639829417956  0.7448536395620665  1.0000
  C   C71       1.0  0.9678923744815858  0.8525645378744356  0.7807250360681978  1.0000
  C   C72       1.0  0.9983929022099571  0.8022701255226251  0.8020651833792486  1.0000
  C   C73       1.0  0.9950565808941646  0.7836151339093077  0.8625564815818552  1.0000
  C   C74       1.0  0.9596532231653112  0.8136100754214864  0.9041464958891798  1.0000
  C   C75       1.0  0.9222091108046795  0.8580239104985876  0.8793075833614595  1.0000
  C   C76       1.0  0.9277911328527181  0.8786162049636843  0.819250829932642  1.0000
  C   C77       1.0  0.9301298505197478  0.726829560294874  0.10494457755139314  1.0000
  C   C78       1.0  0.943234607629378  0.7638852828944565  0.1789244727879549  1.0000
  C   C79       1.0  0.07675170208058549  0.8894779029562868  0.21168396917121163  1.0000
  C   C80       1.0  0.06322711624094518  0.8510531813351674  0.13723923352845452  1.0000
  C   C81       1.0  0.9877539621643333  0.7724650202188313  0.08171671732809216  1.0000
  C   C82       1.0  0.9694600393908386  0.8089454391258568  0.9760484393330274  1.0000
  C   C83       1.0  0.9653046222022538  0.749193060972175  0.000375368104712876  1.0000
  C   C84       1.0  0.014022333687648797  0.8473639714583855  0.23286282645398165  1.0000
  C   C85       1.0  0.83020917395109  0.8043738770634264  0.601922238272515  1.0000
  C   C86       1.0  0.30408014045551107  0.17707092087732687  0.5104159925505558  1.0000
  C   C87       1.0  0.17143062021994376  0.8804449684882627  0.592224180646703  1.0000
  C   C88       1.0  0.5280748945407722  0.28405391959403653  0.6694411163237534  1.0000
  C   C89       1.0  0.8447185768733403  0.32077093202777707  0.7596167880566257  1.0000
  C   C90       1.0  0.8669131730768667  0.23126016519909598  0.6383886728934913  1.0000
  C   C91       1.0  0.08999692809763357  0.49871850407321716  0.6332198627867883  1.0000
  C   C92       1.0  0.9823457677865759  0.32621122146174736  0.5217401328526706  1.0000
  C   C93       1.0  0.23011185094212994  0.379060058641059  0.686255051951335  1.0000
  C   C94       1.0  0.29667234571309103  0.6382310602633936  0.9226907104000973  1.0000
  C   C95       1.0  0.15139891497002367  0.9790338585541676  0.2602813905642592  1.0000
  C   C96       1.0  0.8725009106889202  0.8806608537722338  0.9117760196096187  1.0000
  C   C97       1.0  0.897958710532343  0.9357018226883721  0.8015017478081604  1.0000
  C   C98       1.0  0.15052732824674558  0.99617883695786  0.8017516043820979  1.0000
  C   C99       1.0  0.6705595183949312  0.6978522081173325  0.36863218621946464  1.0000
  I   I1        1.0  0.8376819247558556  0.6781918369933067  0.33704421346692465  1.0000
  I   I2        1.0  0.29690228387497086  0.9457391499640124  0.5012414762023455  1.0000
  I   I3        1.0  0.7122964107458998  0.3747684445235535  0.7922928909024807  1.0000
  I   I4        1.0  0.6496244275788284  0.8822200494227913  0.5002638348041659  1.0000
  I   I5        1.0  0.4000022392369117  0.8581691373525827  0.599818756888503  1.0000
  I   I6        1.0  0.0422630215063933  0.6966655279757815  0.30594159190693665  1.0000
  I   I7        1.0  0.06864092720732629  0.2877372774740365  0.28729818357789594  1.0000
  I   I8        1.0  0.9433348461858272  0.3500206455665307  0.17736881010277025  1.0000
  I   I9        1.0  0.0180691106921032  0.22803375066209947  0.8067849709308634  1.0000
  I   I10       1.0  0.0535409527256263  0.7542203746796333  0.7443618431763073  1.0000
  I   I11       1.0  0.9221108199428086  0.6241858071053697  0.9284337920970245  1.0000
  I   I12       1.0  0.8143304938005256  0.10908925084514451  0.31406695330542794  1.0000
  N   N1        1.0  0.9666733334423225  0.9028222055403675  0.6185624786551716  1.0000
  N   N2        1.0  0.05927949953118629  0.1503279519194294  0.4374142029332405  1.0000
  N   N3        1.0  0.09843653057365029  0.10600082380756959  0.6372333616723226  1.0000
  N   N4        1.0  0.8906845351628617  0.03310153554413396  0.49765746491026175  1.0000
  N   N5        1.0  0.08452211457824176  0.13235893329488138  0.581434317644785  1.0000
  N   N6        1.0  0.8940232257050268  0.9914945269973784  0.5419823650891047  1.0000
  N   N7        1.0  0.9700863086756895  0.10307000959670634  0.39551786671603406  1.0000
  N   N8        1.0  0.05013020339966799  0.9532579831668996  0.6696801551723512  1.0000
  N   N9        1.0  0.781606332611261  0.8335074166261122  0.3880327955461595  1.0000
  N   N10       1.0  0.23172741451835313  0.1202749269044645  0.5760720415236024  1.0000
  N   N11       1.0  0.05454209648491569  0.9001708554455872  0.5318374467299379  1.0000
  N   N12       1.0  0.9731787419035525  0.9465382710239325  0.38069009103577395  1.0000
  N   N13       1.0  0.061518197358139994  0.9882323099545616  0.4208499563479578  1.0000
  N   N14       1.0  0.9714586448321183  0.8530289097078876  0.47464605112650576  1.0000
  N   N15       1.0  0.7920394890266136  0.8853436012231198  0.3537830895125824  1.0000
  N   N16       1.0  0.2397155616892021  0.0896038469239642  0.6276830894199608  1.0000
  O   O1        1.0  0.7944609457752632  0.8001966532169076  0.5372448354478295  1.0000
  O   O2        1.0  0.24075076464471576  0.17856388697054368  0.47118485301479773  1.0000
  O   O3        1.0  0.2065990742086754  0.943250779190791  0.6542746348391122  1.0000
  O   O4        1.0  0.48075485307137455  0.3022736038353741  0.6875296285110652  1.0000
  O   O5        1.0  0.8743282359623233  0.3959863421900918  0.7972067811815151  1.0000
  O   O6        1.0  0.8807732243979628  0.3030827767143122  0.6529844572693408  1.0000
  O   O7        1.0  0.10214695152721019  0.545153939595366  0.6944239424070846  1.0000
  O   O8        1.0  0.9707419289473261  0.2602608362423807  0.525357445098159  1.0000
  O   O9        1.0  0.24599930538730055  0.42817137733533867  0.6575096346205102  1.0000
  O   O10       1.0  0.3405150903058852  0.7126817541104984  0.9720127303325514  1.0000
  O   O11       1.0  0.21631014756266606  0.0094592290411271  0.2523135072516069  1.0000
  O   O12       1.0  0.8335023660342172  0.9127044052801807  0.8862504079638925  1.0000
  O   O13       1.0  0.8489954772419919  0.9195304782105821  0.7366611655669432  1.0000
  O   O14       1.0  0.21202712818799796  0.054004169267010085  0.8036066224037202  1.0000
  O   O15       1.0  0.5964383117877076  0.6353077962138511  0.33863741922836255  1.0000
