data_image0
_chemical_formula_structural       Ho4H28C24O32
_chemical_formula_sum              "Ho4 H28 C24 O32"
_cell_length_a       8.02571051400234
_cell_length_b       9.516205230501289
_cell_length_c       12.264172526613928
_cell_angle_alpha    91.33450882720143
_cell_angle_beta     90.00006237513168
_cell_angle_gamma    90.00005837152774

_space_group_name_H-M_alt    "P 1"
_space_group_IT_number       1

loop_
  _space_group_symop_operation_xyz
  'x, y, z'

loop_
  _atom_site_type_symbol
  _atom_site_label
  _atom_site_symmetry_multiplicity
  _atom_site_fract_x
  _atom_site_fract_y
  _atom_site_fract_z
  _atom_site_occupancy
  Ho  Ho1       1.0  0.9440517502590637  0.6921249186026088  0.41715911314079795  1.0000
  Ho  Ho2       1.0  0.4440509509992907  0.8078755210263395  0.082840714027796  1.0000
  Ho  Ho3       1.0  0.05595085113170481  0.30787593246098055  0.582841668358455  1.0000
  Ho  Ho4       1.0  0.5559491583996065  0.1921253320864551  0.9171592521259626  1.0000
  H   H1        1.0  0.6923926458903154  0.33025366831002156  0.2061850931772469  1.0000
  H   H2        1.0  0.1923920325038537  0.16974798024136828  0.2938158666690072  1.0000
  H   H3        1.0  0.3076087095048479  0.6697471827530138  0.7938156883215441  1.0000
  H   H4        1.0  0.8076080768950363  0.8302528728714266  0.7061840994847586  1.0000
  H   H5        1.0  0.8290309555977801  0.0681668434244003  0.3210590614745072  1.0000
  H   H6        1.0  0.3290304621155329  0.43183388091672725  0.1789403471222499  1.0000
  H   H7        1.0  0.17096915380111  0.9318340096883873  0.6789409046792514  1.0000
  H   H8        1.0  0.6709696472820426  0.5681659231242407  0.821058783101492  1.0000
  H   H9        1.0  0.39160737413800456  0.8648828727593384  0.49872297002254834  1.0000
  H   H10       1.0  0.8916074173773509  0.6351143663662812  0.0012767569985215024  1.0000
  H   H11       1.0  0.6083889972728757  0.13511377176254064  0.5012785444772376  1.0000
  H   H12       1.0  0.10839269202086402  0.3648864887968344  0.9987223938106666  1.0000
  H   H13       1.0  0.8083178836446122  0.81793825778076  0.21882148853192263  1.0000
  H   H14       1.0  0.30831726390545816  0.6820610087278495  0.281178218688332  1.0000
  H   H15       1.0  0.19168347174856137  0.18206154626076912  0.7811776416922741  1.0000
  H   H16       1.0  0.6916828454927926  0.31793879326279756  0.7188217268799875  1.0000
  H   H17       1.0  0.2090551712975994  0.8738077362298141  0.3217113278690888  1.0000
  H   H18       1.0  0.709055497053228  0.6261924921835488  0.1782883272724334  1.0000
  H   H19       1.0  0.7909436921056923  0.12619311688241913  0.678288638284222  1.0000
  H   H20       1.0  0.2909446123450223  0.3738073098070985  0.8217116182958861  1.0000
  H   H21       1.0  0.982586495954756  0.7507335036161676  0.1816700523420423  1.0000
  H   H22       1.0  0.48258601724243266  0.7492669747487853  0.3183281723465825  1.0000
  H   H23       1.0  0.0174148594383894  0.2492673535978299  0.818328283123016  1.0000
  H   H24       1.0  0.5174140921551427  0.25073282929217566  0.6816709578771594  1.0000
  H   H25       1.0  0.14179397293325022  0.9626995789423919  0.4227114136662138  1.0000
  H   H26       1.0  0.6417940262885296  0.5372995358436795  0.0772889869962796  1.0000
  H   H27       1.0  0.8582061364643607  0.03729917192610801  0.5772885113166666  1.0000
  H   H28       1.0  0.35820608311103536  0.46270131521878716  0.9227117945020566  1.0000
  C   C1        1.0  0.8170882918030956  0.35017732478548425  0.3660066888296285  1.0000
  C   C2        1.0  0.317086144233663  0.1498233847201291  0.1339943417131408  1.0000
  C   C3        1.0  0.18291181759516212  0.6498224772051557  0.633993256738691  1.0000
  C   C4        1.0  0.6829127191709361  0.8501785174639307  0.8660064603701869  1.0000
  C   C5        1.0  0.7516061113886112  0.2693056366995634  0.2697012403783532  1.0000
  C   C6        1.0  0.25160421895785834  0.23069501190013852  0.23030055757334372  1.0000
  C   C7        1.0  0.24839399801025053  0.7306962695856997  0.7302979310162669  1.0000
  C   C8        1.0  0.7483946444447936  0.7693047900899472  0.7696993879945211  1.0000
  C   C9        1.0  0.7704180601898257  0.12959759255970482  0.2574520758278211  1.0000
  C   C10       1.0  0.2704175993362625  0.3704020238770839  0.2425488999655272  1.0000
  C   C11       1.0  0.2295808032134659  0.8704032605525213  0.7425478903254898  1.0000
  C   C12       1.0  0.7295825100613128  0.6295977801638842  0.7574502302582148  1.0000
  C   C13       1.0  0.6995619033173311  0.0516719274578747  0.1621477212492124  1.0000
  C   C14       1.0  0.19956293845542922  0.44832972753801686  0.3378532438458492  1.0000
  C   C15       1.0  0.3004344680954247  0.9483289236029152  0.8378530602477596  1.0000
  C   C16       1.0  0.8004384169390593  0.5516711255753394  0.6621467223083713  1.0000
  C   C17       1.0  0.6584161134909864  0.8566388983397243  0.4601610693197173  1.0000
  C   C18       1.0  0.158412556390374  0.6433623356793987  0.0398385693358776  1.0000
  C   C19       1.0  0.34158399590658933  0.14336090570123622  0.5398380609040246  1.0000
  C   C20       1.0  0.8415863070135929  0.3566385153825138  0.960162212162011  1.0000
  C   C21       1.0  0.5031215217274152  0.9301508656004246  0.49223224898382517  1.0000
  C   C22       1.0  0.0031178245459883994  0.5698460223001832  0.007768008992286499  1.0000
  C   C23       1.0  0.4968810796595591  0.0698426255578184  0.5077692037619101  1.0000
  C   C24       1.0  0.9968822848515871  0.4301537817407848  0.9922311212314625  1.0000
  O   O1        1.0  0.8348487806481445  0.4815229540453885  0.35372921440413313  1.0000
  O   O2        1.0  0.3348452520036247  0.018475663027558705  0.1462742340024121  1.0000
  O   O3        1.0  0.1651538207413452  0.5184757947739057  0.6462715259242415  1.0000
  O   O4        1.0  0.6651523654028182  0.9815220346673501  0.8537264857386901  1.0000
  O   O5        1.0  0.10755267898391449  0.8930399355448062  0.3651981460028964  1.0000
  O   O6        1.0  0.607550417991895  0.6069591505142997  0.1348014142480878  1.0000
  O   O7        1.0  0.8924499224042249  0.106958817375137  0.6348009636363159  1.0000
  O   O8        1.0  0.3924471994145122  0.3930396003530774  0.8651985107338761  1.0000
  O   O9        1.0  0.8860916467951513  0.7375386906560096  0.23242289151934162  1.0000
  O   O10       1.0  0.3860886076745231  0.7624616968770965  0.2675768932191716  1.0000
  O   O11       1.0  0.11391095459561743  0.26246216040757997  0.7675778899799042  1.0000
  O   O12       1.0  0.6139102557287331  0.23754020940759799  0.7324222781750009  1.0000
  O   O13       1.0  0.8547223743880252  0.2835057759421886  0.4516242637594345  1.0000
  O   O14       1.0  0.35472140994452434  0.21649812690706238  0.048374410056105405  1.0000
  O   O15       1.0  0.1452789810051556  0.7164940280993405  0.5483748664647621  1.0000
  O   O16       1.0  0.64527869945497  0.7835048305003414  0.9516247819239609  1.0000
  O   O17       1.0  0.6648066277463726  0.9208336306481967  0.17609314446237082  1.0000
  O   O18       1.0  0.16480720300086202  0.5791655089226424  0.3239056423574027  1.0000
  O   O19       1.0  0.33519223565691914  0.0791672224640365  0.8239068216909401  1.0000
  O   O20       1.0  0.8351953983859346  0.4208332480979422  0.6760918365926543  1.0000
  O   O21       1.0  0.6688979161020967  0.11381385447143802  0.0749044393326983  1.0000
  O   O22       1.0  0.16889777616326998  0.386186725941478  0.42509485203999026  1.0000
  O   O23       1.0  0.33110094729856593  0.8861849004971419  0.9250938549605721  1.0000
  O   O24       1.0  0.8311035792325329  0.6138151762436977  0.574905950044247  1.0000
  O   O25       1.0  0.6456495276958594  0.7433467735241666  0.4023746691098538  1.0000
  O   O26       1.0  0.14564869230907365  0.7566555021939793  0.0976241654419212  1.0000
  O   O27       1.0  0.3543455977193162  0.2566530305145563  0.5976244611120691  1.0000
  O   O28       1.0  0.8543539090823699  0.24334534681928946  0.9023774314019094  1.0000
  O   O29       1.0  0.8027498019764607  0.90285440385329  0.48751974385417185  1.0000
  O   O30       1.0  0.3027486368873582  0.5971448556001352  0.012480774634390504  1.0000
  O   O31       1.0  0.1972478154313322  0.097143289740977  0.5124826065760857  1.0000
  O   O32       1.0  0.6972502265153296  0.40285389321748255  0.9875199656926129  1.0000
