data_image0
_chemical_formula_structural       Zn4H32C36S4N8
_chemical_formula_sum              "Zn4 H32 C36 S4 N8"
_cell_length_a       7.3305159202616395
_cell_length_b       9.726806940293038
_cell_length_c       12.599910433039403
_cell_angle_alpha    89.99991782993308
_cell_angle_beta     89.99972677692158
_cell_angle_gamma    89.99909254539554

_space_group_name_H-M_alt    "P 1"
_space_group_IT_number       1

loop_
  _space_group_symop_operation_xyz
  'x, y, z'

loop_
  _atom_site_type_symbol
  _atom_site_label
  _atom_site_symmetry_multiplicity
  _atom_site_fract_x
  _atom_site_fract_y
  _atom_site_fract_z
  _atom_site_occupancy
  Zn  Zn1       1.0  0.722503723602955  0.7842007397005302  0.8616832684918736  1.0000
  Zn  Zn2       1.0  0.22251361572775608  0.21580417147560374  0.13831643048251155  1.0000
  Zn  Zn3       1.0  0.7225104642089307  0.28419766229772847  0.13831728949848104  1.0000
  Zn  Zn4       1.0  0.22250551098968427  0.7158041646261565  0.8616832031359183  1.0000
  H   H1        1.0  0.1959633723283858  0.981557594556335  0.7817531608233  1.0000
  H   H2        1.0  0.6959731193091301  0.018437360122881295  0.21824026224140886  1.0000
  H   H3        1.0  0.19597491169416506  0.4815646481033296  0.21824704833904465  1.0000
  H   H4        1.0  0.6959643080669196  0.5184457278494817  0.7817558985906603  1.0000
  H   H5        1.0  0.20669132092511683  0.20332483926380715  0.6860806704233016  1.0000
  H   H6        1.0  0.7067006865705918  0.7966638157896353  0.3139095483762447  1.0000
  H   H7        1.0  0.20670409379757607  0.7033340841613195  0.31392140153636217  1.0000
  H   H8        1.0  0.7067015550393518  0.2966710201729794  0.6860918332719453  1.0000
  H   H9        1.0  0.9906731134497588  0.2495110913530779  0.5374332672044277  1.0000
  H   H10       1.0  0.4906843749315328  0.7504823177031879  0.46255696054947054  1.0000
  H   H11       1.0  0.9906805706189629  0.7495138890144372  0.4625697624465916  1.0000
  H   H12       1.0  0.4906823742891432  0.2504805480712875  0.5374458623051341  1.0000
  H   H13       1.0  0.7653718035453777  0.06907509244803828  0.48456425397891695  1.0000
  H   H14       1.0  0.26538574936853365  0.9309220981878922  0.5154329455719664  1.0000
  H   H15       1.0  0.7653801898076863  0.5690767628762712  0.5154380087894028  1.0000
  H   H16       1.0  0.26537736308813453  0.430918371577512  0.484568714639835  1.0000
  H   H17       1.0  0.7552877372727235  0.8473047592164775  0.5805883332918854  1.0000
  H   H18       1.0  0.25530206728635807  0.1526956389146932  0.4194136560595539  1.0000
  H   H19       1.0  0.7552935287288776  0.3473083513105023  0.4194096839336512  1.0000
  H   H20       1.0  0.25529081919665225  0.6526941030339372  0.580585162516279  1.0000
  H   H21       1.0  0.578730245972217  0.07390077777882446  0.7679014439295248  1.0000
  H   H22       1.0  0.0787398014838772  0.9261151433035409  0.23209865231333285  1.0000
  H   H23       1.0  0.5787245941734439  0.573888586406639  0.23209656736185025  1.0000
  H   H24       1.0  0.07874136094085317  0.4261149976643564  0.7679003542676884  1.0000
  H   H25       1.0  0.566583599555585  0.30273224655557124  0.8998514795502432  1.0000
  H   H26       1.0  0.0665852933942119  0.6972827949367257  0.10015023758037245  1.0000
  H   H27       1.0  0.5665735768948179  0.8027264711599355  0.10015345726148443  1.0000
  H   H28       1.0  0.06658303870169388  0.19728034571596706  0.8998466725777379  1.0000
  H   H29       1.0  0.831542399453596  0.9767100446117496  0.05860587504544412  1.0000
  H   H30       1.0  0.3315441750752796  0.023292505916373298  0.9413903480206617  1.0000
  H   H31       1.0  0.8315425311930866  0.47670751747046564  0.9413917895693519  1.0000
  H   H32       1.0  0.33153858672780245  0.5232888645646269  0.05861157641560062  1.0000
  C   C1        1.0  0.9767896002392362  0.8987076367667794  0.6867593887185495  1.0000
  C   C2        1.0  0.4767963093674723  0.10128697007355207  0.3132388139681766  1.0000
  C   C3        1.0  0.9767976295737595  0.3987124560295142  0.3132379600783254  1.0000
  C   C4        1.0  0.47679100822735154  0.6012944878334991  0.6867602425978706  1.0000
  C   C5        1.0  0.101704756666102  0.0005970529469436999  0.7166803505005961  1.0000
  C   C6        1.0  0.6017129437947232  0.9993969975483521  0.2833133330216314  1.0000
  C   C7        1.0  0.10171641718216756  0.5006084114076755  0.2833198529147937  1.0000
  C   C8        1.0  0.6017135604775135  0.4994041445589728  0.7166873227397235  1.0000
  C   C9        1.0  0.10680974577339696  0.12588073493672877  0.6628560826171966  1.0000
  C   C10       1.0  0.6068200599570162  0.874111196984799  0.3371344121714302  1.0000
  C   C11       1.0  0.1068155068114365  0.6258817116346405  0.3371439693105388  1.0000
  C   C12       1.0  0.6068142987871354  0.3741163887909308  0.6628631922598489  1.0000
  C   C13       1.0  0.9861994987196281  0.15159302607463584  0.5794074349737033  1.0000
  C   C14       1.0  0.48621182536616897  0.8483963252998798  0.42058597976815565  1.0000
  C   C15       1.0  0.9862086654570987  0.6515979586113683  0.42059412710662525  1.0000
  C   C16       1.0  0.4862067508979067  0.3484047578469926  0.5794175417202683  1.0000
  C   C17       1.0  0.8597143287812796  0.05102022556750539  0.5500185670720016  1.0000
  C   C18       1.0  0.3597216220949376  0.9489758121015796  0.449980752771289  1.0000
  C   C19       1.0  0.8597232536912784  0.5510230468226637  0.4499818674956587  1.0000
  C   C20       1.0  0.35972633873583243  0.4489750469288437  0.5500253888920101  1.0000
  C   C21       1.0  0.8548473683232415  0.9251950556351074  0.6032430759775382  1.0000
  C   C22       1.0  0.3548621184493327  0.07480104147135337  0.3967546699909051  1.0000
  C   C23       1.0  0.8548547103286666  0.42520177445896207  0.39675854900342256  1.0000
  C   C24       1.0  0.3548520480255631  0.5748025473541032  0.603242371590021  1.0000
  C   C25       1.0  0.6280100697742126  0.08773125039395777  0.8483717815540364  1.0000
  C   C26       1.0  0.1280164787642804  0.9122820122620392  0.15162817852490215  1.0000
  C   C27       1.0  0.6280037159809096  0.5877233222693192  0.15163004668089294  1.0000
  C   C28       1.0  0.12801601184689557  0.4122806876480922  0.8483707070689805  1.0000
  C   C29       1.0  0.6238206618616714  0.20151984117982374  0.9135539343265509  1.0000
  C   C30       1.0  0.12382312065231818  0.7984903884404914  0.08644683099208812  1.0000
  C   C31       1.0  0.623820301163114  0.701508950992597  0.08644539971952273  1.0000
  C   C32       1.0  0.12382348149448319  0.29848791350324416  0.9135537782935759  1.0000
  C   C33       1.0  0.7586733798270158  0.03458131776942249  0.9982782513396489  1.0000
  C   C34       1.0  0.2586758397953303  0.9654252075823492  0.0017173794181531005  1.0000
  C   C35       1.0  0.7586696237845274  0.5345798392602175  0.0017208931589110007  1.0000
  C   C36       1.0  0.2586686826115851  0.4654194895482389  0.9982787059000916  1.0000
  S   S1        1.0  0.9671000246820893  0.7350763438312666  0.7494408897819443  1.0000
  S   S2        1.0  0.46710662134575637  0.2649194095143342  0.2505605143042331  1.0000
  S   S3        1.0  0.9671085698169718  0.2350833368038819  0.2505590462067745  1.0000
  S   S4        1.0  0.46709944026113687  0.7649247535764658  0.7494383895885763  1.0000
  N   N1        1.0  0.7129346647860756  0.9822462240390878  0.9030501338401183  1.0000
  N   N2        1.0  0.21294213905204623  0.017761888362699096  0.09694641695127613  1.0000
  N   N3        1.0  0.7129321967564691  0.48223911192313546  0.09694547147629615  1.0000
  N   N4        1.0  0.21293915050456033  0.5177607758146293  0.9030558412657615  1.0000
  N   N5        1.0  0.7072172326525886  0.1670854472028011  0.008442642107233703  1.0000
  N   N6        1.0  0.20721699320480266  0.8329227351201138  0.9915555118060272  1.0000
  N   N7        1.0  0.7072121516133619  0.6670841687032761  0.9915588802317931  1.0000
  N   N8        1.0  0.20721388932417278  0.3329188732343623  0.008441654664906704  1.0000
