data_image0
_chemical_formula_structural       Zn2H20C22N8O14
_chemical_formula_sum              "Zn2 H20 C22 N8 O14"
_cell_length_a       7.466298492360891
_cell_length_b       10.006116485370947
_cell_length_c       11.108180454456347
_cell_angle_alpha    84.37876473202961
_cell_angle_beta     70.3268537895038
_cell_angle_gamma    71.72181932700633

_space_group_name_H-M_alt    "P 1"
_space_group_IT_number       1

loop_
  _space_group_symop_operation_xyz
  'x, y, z'

loop_
  _atom_site_type_symbol
  _atom_site_label
  _atom_site_symmetry_multiplicity
  _atom_site_fract_x
  _atom_site_fract_y
  _atom_site_fract_z
  _atom_site_occupancy
  Zn  Zn1       1.0  0.7437827416302621  0.9910314784372076  0.8459558882150237  1.0000
  Zn  Zn2       1.0  0.25621647476080506  0.008971302682318999  0.15404381086190713  1.0000
  H   H1        1.0  0.24708935798963694  0.5013219951569353  0.42114684800770874  1.0000
  H   H2        1.0  0.7529136402434984  0.4986787265091691  0.5788512808505076  1.0000
  H   H3        1.0  0.923276833662406  0.14956760081398096  0.6861676785387445  1.0000
  H   H4        1.0  0.07673085450157656  0.8504321004442374  0.31383130251624897  1.0000
  H   H5        1.0  0.0983220463026981  0.006229438361835096  0.687411627027018  1.0000
  H   H6        1.0  0.9016809114296788  0.9937680780472958  0.31258945784119163  1.0000
  H   H7        1.0  0.9512399807980356  0.7811026259574732  0.6410252715331667  1.0000
  H   H8        1.0  0.04876679927716763  0.2188960362552094  0.3589712871063285  1.0000
  H   H9        1.0  0.9095301907960189  0.7452085623219344  0.5008325731180181  1.0000
  H   H10       1.0  0.09047610285344379  0.25478796748274135  0.4991651561029756  1.0000
  H   H11       1.0  0.5149433309178733  0.8359892244874343  0.5173785717263756  1.0000
  H   H12       1.0  0.485061098222694  0.16401469940248595  0.48261809761309143  1.0000
  H   H13       1.0  0.29721860520167803  0.4916011136704696  0.7838271112209584  1.0000
  H   H14       1.0  0.7027768495014184  0.5084005729292899  0.21617259516345647  1.0000
  H   H15       1.0  0.9933431550929869  0.742771670665135  0.12689783559435597  1.0000
  H   H16       1.0  0.006648485290412471  0.2572257059011278  0.8731057378917914  1.0000
  H   H17       1.0  0.40029540680815484  0.3274461645976031  0.13422941855184695  1.0000
  H   H18       1.0  0.5997042919008064  0.6725555744432299  0.8657693546008433  1.0000
  H   H19       1.0  0.2840420462535888  0.0395660249201342  0.8633493323599595  1.0000
  H   H20       1.0  0.7159689130647705  0.9604294639631379  0.13665105662629884  1.0000
  C   C1        1.0  0.503358340349571  0.26281951327059966  0.8814598119207488  1.0000
  C   C2        1.0  0.4966418569161063  0.7371843684350026  0.11853688686619536  1.0000
  C   C3        1.0  0.3609716474118088  0.395122686319027  0.9527353152790711  1.0000
  C   C4        1.0  0.6390275568482834  0.604880084543737  0.04726528758209979  1.0000
  C   C5        1.0  0.2668644995714615  0.5046265535071155  0.8856057923036716  1.0000
  C   C6        1.0  0.7331304728137339  0.49537617517133015  0.1143948400049766  1.0000
  C   C7        1.0  0.13401498585206875  0.6298680250818763  0.9473259887800509  1.0000
  C   C8        1.0  0.8659823415756019  0.370132616406039  0.052674288171374456  1.0000
  C   C9        1.0  0.029461711257532257  0.7427139719583522  0.8733271016695313  1.0000
  C   C10       1.0  0.9705313479023303  0.2572865965749712  0.12667591608210674  1.0000
  C   C11       1.0  0.09690575373963374  0.6461224313903386  0.0776085978036036  1.0000
  C   C12       1.0  0.9030845124758996  0.35387813295254483  0.9223923307497799  1.0000
  C   C13       1.0  0.1940553543820441  0.5384425567362642  0.14494661599142944  1.0000
  C   C14       1.0  0.8059363022401629  0.4615580045734544  0.855055809053205  1.0000
  C   C15       1.0  0.155901345802377  0.5641579205794968  0.2806676981379539  1.0000
  C   C16       1.0  0.8440936346059474  0.4358416438690113  0.7193322750437118  1.0000
  C   C17       1.0  0.32532111271789416  0.41228975911701576  0.08277162307753372  1.0000
  C   C18       1.0  0.6746743097001299  0.5877150711991703  0.9172305500023584  1.0000
  C   C19       1.0  0.6672862795356451  0.8615692176799142  0.642551628960682  1.0000
  C   C20       1.0  0.3327181049963173  0.13842832646633238  0.35744824104604334  1.0000
  C   C21       1.0  0.38936549106063734  0.9798057716193962  0.7784175085955881  1.0000
  C   C22       1.0  0.6106426510514565  0.020189692559917198  0.22158259876091085  1.0000
  N   N1        1.0  0.5895856106432402  0.9287264429396698  0.7574096218341282  1.0000
  N   N2        1.0  0.4104206466133036  0.07127005609473258  0.2425908187396075  1.0000
  N   N3        1.0  0.85965640923699  0.7987117208890524  0.5851695103421051  1.0000
  N   N4        1.0  0.14034989654344093  0.20128481917237906  0.414827315094648  1.0000
  N   N5        1.0  0.512805937635896  0.8735578615387994  0.5994965619449816  1.0000
  N   N6        1.0  0.4871989292139744  0.1264386405287539  0.4005023821375033  1.0000
  N   N7        1.0  0.33556878172542765  0.9498275323402509  0.685389843740623  1.0000
  N   N8        1.0  0.6644369810822466  0.05016999851608258  0.31461242654159355  1.0000
  O   O1        1.0  0.556151704832871  0.2599730733427208  0.7619561995914239  1.0000
  O   O2        1.0  0.4438513137469185  0.7400340075535397  0.23804053616802182  1.0000
  O   O3        1.0  0.5652833647467544  0.15808066400368392  0.9516889141665958  1.0000
  O   O4        1.0  0.4347135531488533  0.8419210811034644  0.04830686600359264  1.0000
  O   O5        1.0  0.0703510778940454  0.7245446998626475  0.7557994168773093  1.0000
  O   O6        1.0  0.9296476763332251  0.2754559693623832  0.24419964521263185  1.0000
  O   O7        1.0  0.8999299889051786  0.8522562662289488  0.9389220354017809  1.0000
  O   O8        1.0  0.10006783297136926  0.14774334343703546  0.06107641184116372  1.0000
  O   O9        1.0  0.02132249326756149  0.6646537464390005  0.3433161468233267  1.0000
  O   O10       1.0  0.9786677688401331  0.3353436434171755  0.6566850263873151  1.0000
  O   O11       1.0  0.28061060464438015  0.46934747252669934  0.333497128598772  1.0000
  O   O12       1.0  0.7193886197698163  0.5306521443628822  0.666501911351169  1.0000
  O   O13       1.0  0.9520715274067514  0.047705527004673294  0.6972977907490331  1.0000
  O   O14       1.0  0.04793189248942293  0.9522941012989532  0.30270393110617283  1.0000
