data_image0
_chemical_formula_structural       Ni2H42C54N14O10
_chemical_formula_sum              "Ni2 H42 C54 N14 O10"
_cell_length_a       9.654017013811448
_cell_length_b       13.662279891467813
_cell_length_c       13.660658234122307
_cell_angle_alpha    84.33995756116565
_cell_angle_beta     78.36690910168525
_cell_angle_gamma    78.30206795362501

_space_group_name_H-M_alt    "P 1"
_space_group_IT_number       1

loop_
  _space_group_symop_operation_xyz
  'x, y, z'

loop_
  _atom_site_type_symbol
  _atom_site_label
  _atom_site_symmetry_multiplicity
  _atom_site_fract_x
  _atom_site_fract_y
  _atom_site_fract_z
  _atom_site_occupancy
  Ni  Ni1       1.0  0.1399508223259502  0.7875098558167437  0.7881638546044129  1.0000
  Ni  Ni2       1.0  0.860357157778239  0.21170061820964753  0.2129458343246853  1.0000
  H   H1        1.0  0.9177403341030796  0.788820784348559  0.6651775186413431  1.0000
  H   H2        1.0  0.0843447445452981  0.3335438327334543  0.21084575725186738  1.0000
  H   H3        1.0  0.0816734553313339  0.20865218310402875  0.3367234937032322  1.0000
  H   H4        1.0  0.9193096575121803  0.6632256993695834  0.7906089921901297  1.0000
  H   H5        1.0  0.7731286512049068  0.9095979067918593  0.5565003464294448  1.0000
  H   H6        1.0  0.22865288331204425  0.44178605310519703  0.08966742685080221  1.0000
  H   H7        1.0  0.22883546422671236  0.08635843756527352  0.44269984925046646  1.0000
  H   H8        1.0  0.7729257386567312  0.5567863826099427  0.9126156840191724  1.0000
  H   H9        1.0  0.7916185213970907  0.09319044290371178  0.5485871442620861  1.0000
  H   H10       1.0  0.20858146107182318  0.4500452375929668  0.90631872375981  1.0000
  H   H11       1.0  0.2117284408785096  0.9027566328600402  0.4478550157592521  1.0000
  H   H12       1.0  0.7893555244656341  0.5519722105545952  0.09636022431750035  1.0000
  H   H13       1.0  0.9425001043970056  0.14470008804156012  0.653674041396698  1.0000
  H   H14       1.0  0.05614217141608441  0.3456370724477154  0.8554482060665904  1.0000
  H   H15       1.0  0.05922173788787421  0.8527844746815137  0.3428509979837102  1.0000
  H   H16       1.0  0.9405752592862057  0.6576260766021279  0.1466743855345598  1.0000
  H   H17       1.0  0.3192314348090975  0.9382105981723755  0.170933222226921  1.0000
  H   H18       1.0  0.6807744635497314  0.8287037645357032  0.061940675512424485  1.0000
  H   H19       1.0  0.6804701251458526  0.0636528314021803  0.8282367731757956  1.0000
  H   H20       1.0  0.31970744306543253  0.1717156471163364  0.935783270848482  1.0000
  H   H21       1.0  0.462501530933011  0.023763822268478008  0.2560415273223882  1.0000
  H   H22       1.0  0.5383678026072333  0.7433031750871281  0.9759400274686809  1.0000
  H   H23       1.0  0.5378078281019114  0.9783959079984684  0.7422581526093736  1.0000
  H   H24       1.0  0.462843381622271  0.25736143994790694  0.020867644919583487  1.0000
  H   H25       1.0  0.536767616819823  0.1826206266737955  0.18022390375040934  1.0000
  H   H26       1.0  0.4642362006365844  0.8190152135497327  0.8169676747854737  1.0000
  H   H27       1.0  0.5189615154868579  0.838022826251951  0.4258945809618168  1.0000
  H   H28       1.0  0.48206918318690134  0.5746796655798222  0.16283521824838937  1.0000
  H   H29       1.0  0.4762177742736712  0.1639441049507653  0.5739914596738059  1.0000
  H   H30       1.0  0.5201751913402078  0.42560792252545104  0.8381155922672645  1.0000
  H   H31       1.0  0.33977642135226926  0.03290545641124961  0.6654111362798716  1.0000
  H   H32       1.0  0.6581681552186538  0.3342268021253147  0.9686725858630678  1.0000
  H   H33       1.0  0.6559479515678318  0.9689695292253973  0.334648981959397  1.0000
  H   H34       1.0  0.343916556004757  0.6659969014373531  0.032288572392978686  1.0000
  H   H35       1.0  0.21500926401173362  0.6253745012062667  0.7153154237776177  1.0000
  H   H36       1.0  0.7849137416683689  0.28529743358189563  0.3747094468117779  1.0000
  H   H37       1.0  0.0998905121377192  0.09990493092366391  0.7616363402557764  1.0000
  H   H38       1.0  0.898454006764979  0.2382147127470731  0.9007353214298774  1.0000
  H   H39       1.0  0.8979012009872563  0.899491399499027  0.237679378888437  1.0000
  H   H40       1.0  0.10138567459296145  0.7629611582688798  0.10029034584027838  1.0000
  H   H41       1.0  0.21494915491260974  0.714252525342573  0.6263985161734169  1.0000
  H   H42       1.0  0.7872775967406654  0.37396006200612675  0.2858271843343089  1.0000
  C   C1        1.0  0.9168877968954159  0.8689420592634394  0.6616868427435774  1.0000
  C   C2        1.0  0.08433815720572109  0.33717567119740016  0.130819809034044  1.0000
  C   C3        1.0  0.08316028591406172  0.12851104462721  0.33898010099489534  1.0000
  C   C4        1.0  0.9176323439560363  0.6610572781662681  0.8707793076975605  1.0000
  C   C5        1.0  0.8394678422733082  0.9359310301816707  0.6002267720291314  1.0000
  C   C6        1.0  0.16161581509501838  0.39841756861986244  0.06361363569184417  1.0000
  C   C7        1.0  0.1619618697532488  0.060666683603010106  0.3989269646226247  1.0000
  C   C8        1.0  0.8391999666109556  0.600881931787974  0.9384677608511537  1.0000
  C   C9        1.0  0.8491744168021854  0.037030950422632714  0.5959978291893079  1.0000
  C   C10       1.0  0.15107546518440532  0.4028093401008944  0.9626171312699157  1.0000
  C   C11       1.0  0.15305962032117296  0.959530985676757  0.40157358382375447  1.0000
  C   C12       1.0  0.8477675408919508  0.5983851202421847  0.03968366711501396  1.0000
  C   C13       1.0  0.9334038573816628  0.06627856304076121  0.6547118644974856  1.0000
  C   C14       1.0  0.06597784012938493  0.3445279830513854  0.9337593882107027  1.0000
  C   C15       1.0  0.06778025569901301  0.9311843628186551  0.3430683077177648  1.0000
  C   C16       1.0  0.9323355459646478  0.6572406124919398  0.06821300066766153  1.0000
  C   C17       1.0  0.005573856464515285  0.9943047818501687  0.716914522308002  1.0000
  C   C18       1.0  0.9939628940261187  0.282549454913692  0.005926747463782121  1.0000
  C   C19       1.0  0.9939407109480882  0.0040489839491329  0.282569872544812  1.0000
  C   C20       1.0  0.005884588063281589  0.7178943297034126  0.9954882924294066  1.0000
  C   C21       1.0  0.13416312621858142  0.9842746809361248  0.86065496872353  1.0000
  C   C22       1.0  0.8649973108913616  0.13909322184721873  0.0162735423717351  1.0000
  C   C23       1.0  0.8646174245001036  0.0156469301520872  0.13911441271335429  1.0000
  C   C24       1.0  0.13474740378102723  0.8614213270028729  0.9841119715467456  1.0000
  C   C25       1.0  0.22899913143425016  0.9978978178495127  0.9967534253353633  1.0000
  C   C26       1.0  0.7705300474426197  0.002959062497524201  0.002464477637303687  1.0000
  C   C27       1.0  0.3098800751001889  0.049841047816706  0.04828038357767639  1.0000
  C   C28       1.0  0.69011332246577  0.9513015000797654  0.9502627242564258  1.0000
  C   C29       1.0  0.3508362272131791  0.0083156103758384  0.13881954617776418  1.0000
  C   C30       1.0  0.6493718989489778  0.8607361279260461  0.9917059748619079  1.0000
  C   C31       1.0  0.6492078061111357  0.9932895235265918  0.8598311277432912  1.0000
  C   C32       1.0  0.3510616630319987  0.1400683050364151  0.0061461873123817914  1.0000
  C   C33       1.0  0.4311801724516329  0.0562345991246502  0.18591575878636485  1.0000
  C   C34       1.0  0.5694960444902717  0.8134712652639423  0.9435530159269161  1.0000
  C   C35       1.0  0.5692149638276547  0.9455385095035781  0.8122527664474146  1.0000
  C   C36       1.0  0.4313928064450749  0.18745527471213555  0.053790551652070896  1.0000
  C   C37       1.0  0.4722137976353552  0.14590278033129783  0.14376649337152964  1.0000
  C   C38       1.0  0.5286218901763391  0.8555343260914868  0.8537540199357634  1.0000
  C   C39       1.0  0.3376141356736399  0.8502598844862915  0.6046390236977074  1.0000
  C   C40       1.0  0.663247824639953  0.3958577394228443  0.15038470494268813  1.0000
  C   C41       1.0  0.6596038514962502  0.15080986278739064  0.3957576296940458  1.0000
  C   C42       1.0  0.33883209173561823  0.6043312967098586  0.8506653539218618  1.0000
  C   C43       1.0  0.4221301267392406  0.9276122203292019  0.5512899632906212  1.0000
  C   C44       1.0  0.5775921932781999  0.4489816508730867  0.0734737528083116  1.0000
  C   C45       1.0  0.5736309208470162  0.07412789558228643  0.4488041946478844  1.0000
  C   C46       1.0  0.42465210524337504  0.5512818783320199  0.9275166974658404  1.0000
  C   C47       1.0  0.5110938349062338  0.909495961579019  0.45780195608094226  1.0000
  C   C48       1.0  0.48896842567895493  0.5426326756025759  0.0915712161798012  1.0000
  C   C49       1.0  0.48427343053947436  0.09240743579485412  0.5421258156721152  1.0000
  C   C50       1.0  0.5133561949155948  0.4576674411685103  0.9093619394042418  1.0000
  C   C51       1.0  0.4092873626808782  0.0197484168877651  0.5927044032304636  1.0000
  C   C52       1.0  0.5891878332223826  0.40715826328541754  0.9817005617026593  1.0000
  C   C53       1.0  0.5862750882150961  0.9820599080675408  0.407297103479344  1.0000
  C   C54       1.0  0.41307704422067104  0.593115808872156  0.019246445980783667  1.0000
  N   N1        1.0  0.9992412766485614  0.8964186319052628  0.7191694605595628  1.0000
  N   N2        1.0  0.0012084923621884988  0.2800852564075313  0.10370360078104568  1.0000
  N   N3        1.0  0.9999622568279636  0.10187902911869881  0.28158099217115046  1.0000
  N   N4        1.0  0.00016227976018971303  0.7187833749846817  0.8975980939368284  1.0000
  N   N5        1.0  0.086701448862307  0.027760001545821904  0.7760592262277938  1.0000
  N   N6        1.0  0.9121246608777369  0.2237267092519843  0.9728114887515671  1.0000
  N   N7        1.0  0.9114368326288017  0.9716083849792341  0.22373799943869693  1.0000
  N   N8        1.0  0.0878986629101489  0.7768960051944805  0.028137062013989585  1.0000
  N   N9        1.0  0.11633805319597455  0.8900079868709981  0.8898236911453308  1.0000
  N   N10       1.0  0.8829711004994751  0.1099236554504657  0.11055085497277867  1.0000
  N   N11       1.0  0.19232347082273551  0.040673364126860206  0.9097508732738148  1.0000
  N   N12       1.0  0.8069326782976276  0.08999917185190749  0.9598082954808334  1.0000
  N   N13       1.0  0.8066215954099222  0.9597065567472853  0.08945010151126105  1.0000
  N   N14       1.0  0.19286942854557038  0.9110105424517558  0.04004970900513169  1.0000
  O   O1        1.0  0.2996914351167915  0.8554507331793462  0.6995686322572536  1.0000
  O   O2        1.0  0.7006174743281762  0.3008514496382304  0.14549603446421597  1.0000
  O   O3        1.0  0.6992423846631867  0.1448345500583059  0.3010001501689671  1.0000
  O   O4        1.0  0.30079960757726804  0.6993049986880565  0.855612698453612  1.0000
  O   O5        1.0  0.3080511391405451  0.7884960340301603  0.5521157506320478  1.0000
  O   O6        1.0  0.6942347627710319  0.4485344843272046  0.2113787209491207  1.0000
  O   O7        1.0  0.6889800197214698  0.21251920241477515  0.4484340118984703  1.0000
  O   O8        1.0  0.3083863252604148  0.5514721615788646  0.7895786201711984  1.0000
  O   O9        1.0  0.15126892718748045  0.6838404985778939  0.6848475029045176  1.0000
  O   O10       1.0  0.8499041974530429  0.31507023478821583  0.3165536233276639  1.0000
