data_image0
_chemical_formula_structural       K2H48C36N6O4
_chemical_formula_sum              "K2 H48 C36 N6 O4"
_cell_length_a       7.519644318859906
_cell_length_b       10.465597976492935
_cell_length_c       13.187102529202859
_cell_angle_alpha    109.04572416456188
_cell_angle_beta     89.72405323380293
_cell_angle_gamma    107.73655287283424

_space_group_name_H-M_alt    "P 1"
_space_group_IT_number       1

loop_
  _space_group_symop_operation_xyz
  'x, y, z'

loop_
  _atom_site_type_symbol
  _atom_site_label
  _atom_site_symmetry_multiplicity
  _atom_site_fract_x
  _atom_site_fract_y
  _atom_site_fract_z
  _atom_site_occupancy
  K   K1        1.0  0.21391895526625856  0.9740522690213851  0.4755713555235986  1.0000
  K   K2        1.0  0.7860781324463558  0.025939531694881182  0.5244226629114338  1.0000
  H   H1        1.0  0.03969276991209372  0.4037462154338414  0.3877904987988431  1.0000
  H   H2        1.0  0.9603114361779674  0.5962530388747139  0.6122070006238048  1.0000
  H   H3        1.0  0.9383554872042197  0.4194171654101169  0.21468270674808562  1.0000
  H   H4        1.0  0.06164827622991709  0.5805842225099694  0.7853160985047155  1.0000
  H   H5        1.0  0.8812610303745315  0.9776201825941867  0.0539600665662689  1.0000
  H   H6        1.0  0.11873117600934076  0.022379091455825097  0.9460388830268728  1.0000
  H   H7        1.0  0.9804067629678315  0.9610139567259637  0.22740128657893877  1.0000
  H   H8        1.0  0.019592550137964796  0.0389831723257643  0.7725956356789043  1.0000
  H   H9        1.0  0.4196925209406784  0.48357537502205605  0.5785664492382097  1.0000
  H   H10       1.0  0.5803152833003224  0.516435609939343  0.42143637120570093  1.0000
  H   H11       1.0  0.6123548275757357  0.682192804995111  0.736429299486794  1.0000
  H   H12       1.0  0.38765235805566073  0.3178138855879097  0.2635769605863629  1.0000
  H   H13       1.0  0.31230130821005264  0.4752932850505969  0.9482179149278239  1.0000
  H   H14       1.0  0.6877027769977389  0.5247027496028736  0.05178178735369702  1.0000
  H   H15       1.0  0.12356435735902946  0.273502753731094  0.7893678387714758  1.0000
  H   H16       1.0  0.8764389960956009  0.7264975745593673  0.2106291740268063  1.0000
  H   H17       1.0  0.8342202277472663  0.3166235340959672  0.02781573608260859  1.0000
  H   H18       1.0  0.1657764285069163  0.6833736010198308  0.972181171854807  1.0000
  H   H19       1.0  0.7136343367895743  0.1298741593258157  0.9777494094303665  1.0000
  H   H20       1.0  0.28636047137451465  0.8701219003253013  0.022249485423415538  1.0000
  H   H21       1.0  0.9510256302245137  0.1950956264760464  0.956598382729034  1.0000
  H   H22       1.0  0.04896965372994802  0.8049015041249489  0.04340003266059967  1.0000
  H   H23       1.0  0.5599674325027024  0.7005569690016102  0.02561742567941387  1.0000
  H   H24       1.0  0.44003614423829857  0.2994411879431453  0.9743858543509276  1.0000
  H   H25       1.0  0.5725853323172743  0.8184614849028974  0.9524730329748581  1.0000
  H   H26       1.0  0.427418277558175  0.18153987660327434  0.04753107342149581  1.0000
  H   H27       1.0  0.7431835090860233  0.7317335121845473  0.9417938195341905  1.0000
  H   H28       1.0  0.2568188050400336  0.26826465911249636  0.0582071814172735  1.0000
  H   H29       1.0  0.7197789762053259  0.32231030219929824  0.43200590424886093  1.0000
  H   H30       1.0  0.2802113055381242  0.677691082080358  0.5679996451577624  1.0000
  H   H31       1.0  0.4750455130882258  0.2934657817298572  0.4488559192906011  1.0000
  H   H32       1.0  0.5249486988612445  0.7065323851188764  0.551149582536887  1.0000
  H   H33       1.0  0.6268990708333034  0.2876599220697926  0.5498992320444884  1.0000
  H   H34       1.0  0.3730951737925849  0.7123350515377781  0.45010317149833423  1.0000
  H   H35       1.0  0.38674381968111493  0.0907276025027031  0.28051705277653843  1.0000
  H   H36       1.0  0.6132581614737945  0.9092727212729629  0.7194814674739691  1.0000
  H   H37       1.0  0.6314490851191222  0.12655622333630834  0.2624884046881988  1.0000
  H   H38       1.0  0.36855544320263084  0.8734440755082035  0.7375139164138532  1.0000
  H   H39       1.0  0.46597875176917103  0.8793724700568647  0.15969502279987327  1.0000
  H   H40       1.0  0.5340280784960924  0.12062997142878369  0.8403055892278743  1.0000
  H   H41       1.0  0.6091589085807099  0.8834323567504753  0.26869204030165156  1.0000
  H   H42       1.0  0.3908425090359983  0.11656688098164379  0.7313099886378893  1.0000
  H   H43       1.0  0.23310576796784938  0.6504065853495787  0.14726303893471032  1.0000
  H   H44       1.0  0.7668922167121437  0.34959054673418416  0.8527338761629153  1.0000
  H   H45       1.0  0.15448969270531876  0.6325945621529883  0.27178743698863167  1.0000
  H   H46       1.0  0.8455083139116295  0.3674025737041902  0.7282087208027761  1.0000
  H   H47       1.0  0.3923929389139074  0.6438374978638989  0.2451044579039419  1.0000
  H   H48       1.0  0.6076059642123821  0.356158571558204  0.754890671899382  1.0000
  C   C1        1.0  0.01989444764394223  0.18129573385439104  0.3194875335573784  1.0000
  C   C2        1.0  0.9801084300203156  0.8187035234861993  0.6805099587050449  1.0000
  C   C3        1.0  0.008148942796381717  0.3110782122577406  0.31411797902343613  1.0000
  C   C4        1.0  0.9918570455729141  0.6889221061952426  0.6858798054014984  1.0000
  C   C5        1.0  0.9527306118218061  0.31946870907138  0.21641443282138792  1.0000
  C   C6        1.0  0.04727001897033735  0.6805316139628984  0.7835848375751198  1.0000
  C   C7        1.0  0.9073892472750488  0.20115266165159798  0.12073404336863551  1.0000
  C   C8        1.0  0.09260561596044431  0.7988466063343509  0.8792649205449338  1.0000
  C   C9        1.0  0.9182444610265107  0.07204027148995351  0.12661079856041374  1.0000
  C   C10       1.0  0.08175659048460199  0.9279579141593712  0.8733879233121655  1.0000
  C   C11       1.0  0.9735811211780501  0.0620367403024105  0.22342008727206064  1.0000
  C   C12       1.0  0.026415092420208446  0.9379625284249183  0.776578126495501  1.0000
  C   C13       1.0  0.25610163576851613  0.36498511238767145  0.6724595170855637  1.0000
  C   C14       1.0  0.7438986513130172  0.6350205601398073  0.32753961358844214  1.0000
  C   C15       1.0  0.3953574457527225  0.4829985858776311  0.6598385196645893  1.0000
  C   C16       1.0  0.6046449785161485  0.5170060020890689  0.3401626194064421  1.0000
  C   C17       1.0  0.5018271299661946  0.5944860144244899  0.7488172784586312  1.0000
  C   C18       1.0  0.4981690621531384  0.4055196483319961  0.2511856172658327  1.0000
  C   C19       1.0  0.47458270593083524  0.5951706027422998  0.8544220693879155  1.0000
  C   C20       1.0  0.5254226862238411  0.4048318229082994  0.14558232201072493  1.0000
  C   C21       1.0  0.3365414325654682  0.47794784248015526  0.8670812640720272  1.0000
  C   C22       1.0  0.6634569620940312  0.5220503492332326  0.1329174434801246  1.0000
  C   C23       1.0  0.23009705012968595  0.36421276531552843  0.7781731478342806  1.0000
  C   C24       1.0  0.7699094252274675  0.6357918248753265  0.22182574079873527  1.0000
  C   C25       1.0  0.8488104920455654  0.21161400637841146  0.01562173276956  1.0000
  C   C26       1.0  0.1511847919088963  0.7883831242225837  0.9843766826200808  1.0000
  C   C27       1.0  0.5929895393510876  0.7172749847888795  0.9488584770122942  1.0000
  C   C28       1.0  0.4070136166709445  0.2827253095408295  0.05114535154198311  1.0000
  C   C29       1.0  0.5978233311689392  0.2626863514529275  0.46297587976169313  1.0000
  C   C30       1.0  0.4021660428676767  0.7373128984738102  0.5370291139607843  1.0000
  C   C31       1.0  0.5152258152097743  0.06752797529338037  0.2976908304935648  1.0000
  C   C32       1.0  0.48477696396719944  0.9324744639681197  0.7023120319721984  1.0000
  C   C33       1.0  0.48519745714783374  0.9097790370670111  0.24838331904372524  1.0000
  C   C34       1.0  0.5148022220635652  0.09021914406751111  0.7516169102810792  1.0000
  C   C35       1.0  0.27452673191421434  0.6816759502069302  0.23436952815487896  1.0000
  C   C36       1.0  0.7254725153807157  0.3183211675245445  0.7656296660216313  1.0000
  N   N1        1.0  0.061885390114476004  0.1575845583437001  0.413496084005665  1.0000
  N   N2        1.0  0.938117022956902  0.842416828835006  0.5865034713931365  1.0000
  N   N3        1.0  0.13836759443268673  0.27398598526763607  0.4965418393074402  1.0000
  N   N4        1.0  0.8616352944290567  0.7260164728609481  0.5034572366272201  1.0000
  N   N5        1.0  0.14998670242081857  0.24628618087484003  0.5861248462152632  1.0000
  N   N6        1.0  0.8500153450029939  0.7537205520236511  0.41387532676725414  1.0000
  O   O1        1.0  0.5590282238964761  0.11180091160692028  0.4124680206250916  1.0000
  O   O2        1.0  0.4409691865058603  0.8881983314478742  0.5875347441400223  1.0000
  O   O3        1.0  0.32216828865045943  0.8327343889253668  0.28564151859509934  1.0000
  O   O4        1.0  0.6778314783087538  0.1672638073028239  0.7143556815048202  1.0000
