data_image0
_chemical_formula_structural       H32Pb4C24Br8N8O8
_chemical_formula_sum              "H32 Pb4 C24 Br8 N8 O8"
_cell_length_a       7.945072213933613
_cell_length_b       8.142642399426398
_cell_length_c       18.469612033857207
_cell_angle_alpha    89.99330067860102
_cell_angle_beta     90.00251188161666
_cell_angle_gamma    113.00279866022586

_space_group_name_H-M_alt    "P 1"
_space_group_IT_number       1

loop_
  _space_group_symop_operation_xyz
  'x, y, z'

loop_
  _atom_site_type_symbol
  _atom_site_label
  _atom_site_symmetry_multiplicity
  _atom_site_fract_x
  _atom_site_fract_y
  _atom_site_fract_z
  _atom_site_occupancy
  H   H1        1.0  0.037394989146932234  0.8202527457582036  0.28681180686252367  1.0000
  H   H2        1.0  0.4626082603080092  0.1798795064276391  0.7867504682346367  1.0000
  H   H3        1.0  0.962915690648927  0.1799699612936436  0.713227199521697  1.0000
  H   H4        1.0  0.5372458305403497  0.8201637083306821  0.21320840679867817  1.0000
  H   H5        1.0  0.869061632855974  0.8500204777677283  0.3425000850253923  1.0000
  H   H6        1.0  0.6308203318218588  0.1499457246037963  0.8423887054011987  1.0000
  H   H7        1.0  0.13115135282895804  0.15015057819446304  0.657597396207514  1.0000
  H   H8        1.0  0.36912664659681127  0.8501745586488524  0.1575788313460649  1.0000
  H   H9        1.0  0.8656178257185444  0.7898689122973082  0.47834049842816045  1.0000
  H   H10       1.0  0.6342144005909487  0.20957270698838928  0.9782378247267831  1.0000
  H   H11       1.0  0.13431627094655596  0.20956692144638106  0.5217288457216824  1.0000
  H   H12       1.0  0.3656977068860242  0.7903900012799879  0.021695605891785905  1.0000
  H   H13       1.0  0.125599116313623  0.744091718612282  0.5693188240990779  1.0000
  H   H14       1.0  0.3742720840254491  0.2551534090456187  0.06927331875284892  1.0000
  H   H15       1.0  0.874206496888007  0.2549864773618253  0.4307196670212223  1.0000
  H   H16       1.0  0.6257549372686382  0.7448568387654007  0.9307077575627294  1.0000
  H   H17       1.0  0.2623072043187022  0.6966784788504228  0.349764107680116  1.0000
  H   H18       1.0  0.23772964424356496  0.30338828797700057  0.8497520877599813  1.0000
  H   H19       1.0  0.7379175414848547  0.30343771512711737  0.6502429563805239  1.0000
  H   H20       1.0  0.7622048159112039  0.6967601293547077  0.15025334818329136  1.0000
  H   H21       1.0  0.5001037105816408  0.820711479807983  0.514375684057008  1.0000
  H   H22       1.0  0.9999665502418222  0.1791748032696674  0.014427997304885302  1.0000
  H   H23       1.0  0.4999811853469253  0.17912467721149028  0.4855859061299341  1.0000
  H   H24       1.0  8.604194366770009e-05  0.8209478509813835  0.9856614984528207  1.0000
  H   H25       1.0  0.4660078247334027  0.6505656566894302  0.44738020683432483  1.0000
  H   H26       1.0  0.03405643919401767  0.3492878934994507  0.9474151374931737  1.0000
  H   H27       1.0  0.5341243517410061  0.3492100958615437  0.5526057498291763  1.0000
  H   H28       1.0  0.9658799408374603  0.6507067629051659  0.05263469992465991  1.0000
  H   H29       1.0  0.36644527607805333  0.5939402453057241  0.5359684201898461  1.0000
  H   H30       1.0  0.13379311235280503  0.40591168106384856  0.03597044173848472  1.0000
  H   H31       1.0  0.6337761666885341  0.4058912016655825  0.46404027591239594  1.0000
  H   H32       1.0  0.8663164680630331  0.5942278242271823  0.9640452833939934  1.0000
  Pb  Pb1       1.0  0.4994311497364948  0.2545405163437948  0.25052746603078196  1.0000
  Pb  Pb2       1.0  0.00031846727892308055  0.7456235358418295  0.750544923346226  1.0000
  Pb  Pb3       1.0  0.5002657465192825  0.7457361182122639  0.7494487267812603  1.0000
  Pb  Pb4       1.0  0.9995879516752024  0.254492936343972  0.2494724246434218  1.0000
  C   C1        1.0  0.8005538149317599  0.5823985847648174  0.3044463512792178  1.0000
  C   C2        1.0  0.6994059234960799  0.4176971092765314  0.8044354255536563  1.0000
  C   C3        1.0  0.1995767062559466  0.41782370686655673  0.695539593158351  1.0000
  C   C4        1.0  0.3003949571543316  0.582401190411808  0.19551478455516508  1.0000
  C   C5        1.0  0.939971857428361  0.760847678996008  0.3311949382741305  1.0000
  C   C6        1.0  0.559957737769295  0.2391237953380667  0.8311238060899414  1.0000
  C   C7        1.0  0.0602332270938319  0.2393194153255678  0.6688310742413891  1.0000
  C   C8        1.0  0.4398979315476125  0.7608953478314007  0.1688274895990887  1.0000
  C   C9        1.0  0.9859957171953582  0.7636719170238493  0.4660665967404898  1.0000
  C   C10       1.0  0.5138702816610135  0.23586218756099703  0.9660082316888894  1.0000
  C   C11       1.0  0.013951741216700954  0.23581866646785696  0.5339713431144163  1.0000
  C   C12       1.0  0.4861046243554198  0.7642151731101803  0.0339544336464286  1.0000
  C   C13       1.0  0.1125837838278159  0.7417346430167768  0.5108941398391453  1.0000
  C   C14       1.0  0.3874035670735194  0.2578949227473117  0.010861213389908603  1.0000
  C   C15       1.0  0.8873939957675958  0.2577531145111251  0.48912918179377146  1.0000
  C   C16       1.0  0.612585231669037  0.7421141816213322  0.9891247354379544  1.0000
  C   C17       1.0  0.19233700656113228  0.7170468220792755  0.3971996789137294  1.0000
  C   C18       1.0  0.3076677218781043  0.2828611106715115  0.8971761201617103  1.0000
  C   C19       1.0  0.8078162382800043  0.28289593512907624  0.6028111791723988  1.0000
  C   C20       1.0  0.6922740425658064  0.7172525105827532  0.10282227821851822  1.0000
  C   C21       1.0  0.4039036600360645  0.6933398593976249  0.4925688526872634  1.0000
  C   C22       1.0  0.09620728979367499  0.3064847049151496  0.992577605829766  1.0000
  C   C23       1.0  0.5962342564347266  0.30643452620255823  0.5074241426604474  1.0000
  C   C24       1.0  0.9038384821974289  0.6935842645204459  0.007463567788413204  1.0000
  Br  Br1       1.0  0.6236667561127971  0.999855468020151  0.3326191691469163  1.0000
  Br  Br2       1.0  0.8761774913759766  0.00022960837237209972  0.8326690429359689  1.0000
  Br  Br3       1.0  0.3763326450298975  0.0003460080824027  0.6673264374605525  1.0000
  Br  Br4       1.0  0.12362327035990703  0.9997362298162427  0.16737240118843033  1.0000
  Br  Br5       1.0  0.2619183373978089  0.27445473878611176  0.37271224247162854  1.0000
  Br  Br6       1.0  0.2380543834947346  0.7256627155975437  0.8728076244102144  1.0000
  Br  Br7       1.0  0.7380004286262575  0.7258755830633915  0.627261785405132  1.0000
  Br  Br8       1.0  0.7619746563396317  0.27461356779751606  0.12718048324057213  1.0000
  N   N1        1.0  0.03865458607099008  0.7485149970048042  0.39579712081199153  1.0000
  N   N2        1.0  0.4612485761080619  0.251266801657799  0.8957383394773121  1.0000
  N   N3        1.0  0.9614421688319724  0.25133178662589717  0.6042321479410546  1.0000
  N   N4        1.0  0.5386649576975486  0.7488081962036759  0.10422919816863901  1.0000
  N   N5        1.0  0.23972801861721374  0.7137011196434383  0.46677615805892725  1.0000
  N   N6        1.0  0.2602711279094549  0.2860088457157061  0.9667698682032014  1.0000
  N   N7        1.0  0.7603662008393925  0.28601198810879686  0.5332287499782425  1.0000
  N   N8        1.0  0.7397026262653981  0.7140190486317265  0.03324206859291931  1.0000
  O   O1        1.0  0.6853067358289877  0.5918466311513698  0.258714671709413  1.0000
  O   O2        1.0  0.8145581346762325  0.408333255047836  0.7586400032139553  1.0000
  O   O3        1.0  0.3147243749611164  0.4084938052165796  0.7413416543745088  1.0000
  O   O4        1.0  0.185178994512178  0.5917319487453981  0.24128367708801335  1.0000
  O   O5        1.0  0.8048400097378448  0.4367795283939628  0.32741891505685333  1.0000
  O   O6        1.0  0.695183957650606  0.5632859862664645  0.8274670781616253  1.0000
  O   O7        1.0  0.1952523934992172  0.5633921610575002  0.6725101802388735  1.0000
  O   O8        1.0  0.30468603537384087  0.43683067797061864  0.17249396074443277  1.0000
