data_image0
_chemical_formula_structural       Cu4H16C12Br4N4
_chemical_formula_sum              "Cu4 H16 C12 Br4 N4"
_cell_length_a       3.8550820501305183
_cell_length_b       8.31812012032221
_cell_length_c       14.505971879582711
_cell_angle_alpha    92.85434121340299
_cell_angle_beta     91.24338551126455
_cell_angle_gamma    90.22205912272449

_space_group_name_H-M_alt    "P 1"
_space_group_IT_number       1

loop_
  _space_group_symop_operation_xyz
  'x, y, z'

loop_
  _atom_site_type_symbol
  _atom_site_label
  _atom_site_symmetry_multiplicity
  _atom_site_fract_x
  _atom_site_fract_y
  _atom_site_fract_z
  _atom_site_occupancy
  Cu  Cu1       1.0  0.6512596327360145  0.39031191985639424  0.7502164590685397  1.0000
  Cu  Cu2       1.0  0.3486783363695666  0.6096904278188049  0.2497881402002663  1.0000
  Cu  Cu3       1.0  0.004910790182634605  0.17247426907036364  0.842062442828265  1.0000
  Cu  Cu4       1.0  0.9950737143391281  0.8275241104599902  0.15794295107178163  1.0000
  H   H1        1.0  0.7091655783155701  0.9858331257196441  0.6854214447641312  1.0000
  H   H2        1.0  0.29084728951357874  0.014164972788847804  0.3145744186356653  1.0000
  H   H3        1.0  0.13141126362861408  0.866429045242022  0.9393487308103872  1.0000
  H   H4        1.0  0.8685937024759623  0.13356552010444744  0.06064976062917542  1.0000
  H   H5        1.0  0.9528727176625723  0.579701568515951  0.9066798997370358  1.0000
  H   H6        1.0  0.04712179671604841  0.42029068301983596  0.09332055117518225  1.0000
  H   H7        1.0  0.2715999899105698  0.6067895719320051  0.6393175501532086  1.0000
  H   H8        1.0  0.728420972495755  0.39321567887743214  0.3606771608709708  1.0000
  H   H9        1.0  0.6777627733705528  0.5877195009223328  0.5903372432740994  1.0000
  H   H10       1.0  0.32224528001363956  0.4122858717902106  0.40966085949778375  1.0000
  H   H11       1.0  0.2795791797151282  0.7566943687747668  0.49582302043897647  1.0000
  H   H12       1.0  0.7204314311126297  0.24331097100046148  0.5041730248798331  1.0000
  H   H13       1.0  0.6499185382954593  0.8683509973179754  0.534192558105282  1.0000
  H   H14       1.0  0.35011035493457143  0.13165661307449741  0.4658043195546427  1.0000
  H   H15       1.0  0.24905356438790702  0.9014868181695734  0.5896400534150459  1.0000
  H   H16       1.0  0.7509625443282459  0.09852332545916913  0.41036096991809506  1.0000
  C   C1        1.0  0.6714765779474661  0.733310803273561  0.7138086575139868  1.0000
  C   C2        1.0  0.32851797567636254  0.26668382964697207  0.2861877204613635  1.0000
  C   C3        1.0  0.7643805598694158  0.8932319739370342  0.7340383745842873  1.0000
  C   C4        1.0  0.23563766171727005  0.10676732639943515  0.2659637493727587  1.0000
  C   C5        1.0  0.9956384655478632  0.8297141685869108  0.8750461912901601  1.0000
  C   C6        1.0  0.004369155443747302  0.1702803980490161  0.1249557591104846  1.0000
  C   C7        1.0  0.8991041013343521  0.6704230417234245  0.8567036082081714  1.0000
  C   C8        1.0  0.1008856378445202  0.3295788654011603  0.1432950091392726  1.0000
  C   C9        1.0  0.5037634091818219  0.6772496284898539  0.6236033598969613  1.0000
  C   C10       1.0  0.4962441339889169  0.32274609461168074  0.3763910376210973  1.0000
  C   C11       1.0  0.41578508874936665  0.8085287045040135  0.5575723392429381  1.0000
  C   C12       1.0  0.5842407584806111  0.1914669292217469  0.442430411311932  1.0000
  Br  Br1       1.0  0.5102389539651142  0.2982912699610695  0.9194482246023696  1.0000
  Br  Br2       1.0  0.48974564326186254  0.7017083259317333  0.08055927013985811  1.0000
  Br  Br3       1.0  0.1415301155398652  0.2624775116618849  0.671434311448415  1.0000
  Br  Br4       1.0  0.8584183174721077  0.737527154102338  0.32856901789950405  1.0000
  N   N1        1.0  0.737288790036267  0.620314697918012  0.7768051505817155  1.0000
  N   N2        1.0  0.2627031303574938  0.3796775737200521  0.22319528912827022  1.0000
  N   N3        1.0  0.9273047135516992  0.9433146549460504  0.8139073881113675  1.0000
  N   N4        1.0  0.07269567494400062  0.0566920029924489  0.186094160999545  1.0000
