data_image0
_chemical_formula_structural       Zn4H40C48N12O16
_chemical_formula_sum              "Zn4 H40 C48 N12 O16"
_cell_length_a       6.928334861288568
_cell_length_b       13.276565672325583
_cell_length_c       15.30140766852315
_cell_angle_alpha    112.93144092394942
_cell_angle_beta     90.02698985769167
_cell_angle_gamma    105.128013598421

_space_group_name_H-M_alt    "P 1"
_space_group_IT_number       1

loop_
  _space_group_symop_operation_xyz
  'x, y, z'

loop_
  _atom_site_type_symbol
  _atom_site_label
  _atom_site_symmetry_multiplicity
  _atom_site_fract_x
  _atom_site_fract_y
  _atom_site_fract_z
  _atom_site_occupancy
  Zn  Zn1       1.0  0.9925436698819257  0.652072858769337  0.7698492114106512  1.0000
  Zn  Zn2       1.0  0.3400167240068939  0.3478183547387274  0.730065081139081  1.0000
  Zn  Zn3       1.0  0.007473964005562529  0.3479327737575985  0.23014781096230041  1.0000
  Zn  Zn4       1.0  0.6599750447168022  0.6521788449540509  0.26993569621575375  1.0000
  H   H1        1.0  0.6903894218893712  0.7916563899821085  0.8711357326709431  1.0000
  H   H2        1.0  0.8979379988312106  0.20818547633675874  0.6289196259359568  1.0000
  H   H3        1.0  0.30961230986276433  0.2083347637605186  0.12885782541484758  1.0000
  H   H4        1.0  0.10204629508903203  0.7918083214199427  0.3710806834991515  1.0000
  H   H5        1.0  0.6893264211855765  0.5441102676746823  0.034899515136764585  1.0000
  H   H6        1.0  0.14549764198532963  0.4562815294614921  0.46509740416844636  1.0000
  H   H7        1.0  0.3106595312607539  0.4559012833866021  0.9650961857185578  1.0000
  H   H8        1.0  0.8545105560200172  0.5437225419328797  0.5349089065655832  1.0000
  H   H9        1.0  0.013043963114313264  0.6320209432955509  0.14410588851055908  1.0000
  H   H10       1.0  0.3811719189579748  0.36833014405238623  0.35592673365633937  1.0000
  H   H11       1.0  0.9869555071093643  0.36798300167378517  0.8558918831477839  1.0000
  H   H12       1.0  0.6188194490809735  0.6316662512188813  0.6440770465387827  1.0000
  H   H13       1.0  0.32795551782992755  0.7153767202198081  0.086450064165568  1.0000
  H   H14       1.0  0.6122747785558076  0.28469452818015367  0.4136067355225847  1.0000
  H   H15       1.0  0.6720477463052462  0.2846203836117168  0.9135441470678102  1.0000
  H   H16       1.0  0.3877196036437525  0.7152992413245657  0.5863916049505846  1.0000
  H   H17       1.0  0.1108982140485608  0.7471260044069794  0.6202278434427055  1.0000
  H   H18       1.0  0.3635225015547263  0.2530855877550948  0.8800142440938286  1.0000
  H   H19       1.0  0.8891076770044822  0.25287634194395286  0.3797765916109909  1.0000
  H   H20       1.0  0.636475771796306  0.7469159536238976  0.11999319284960552  1.0000
  H   H21       1.0  0.2950704081086428  0.8679916385548408  0.7027088103479143  1.0000
  H   H22       1.0  0.4265823222787903  0.1321148371017458  0.7976184611672321  1.0000
  H   H23       1.0  0.7049465724895116  0.1320097978391246  0.2972914046603776  1.0000
  H   H24       1.0  0.5734146402041205  0.8678840878546408  0.2023841922481606  1.0000
  H   H25       1.0  0.1417796359098277  0.8819645977269986  0.6172614702085255  1.0000
  H   H26       1.0  0.2593671343458581  0.11829123220463343  0.8830697313932063  1.0000
  H   H27       1.0  0.8582278518084367  0.11803517111827228  0.38274080875427785  1.0000
  H   H28       1.0  0.7406288268712586  0.8817085744567308  0.11693517310565232  1.0000
  H   H29       1.0  0.6282708329391228  0.9916494366935139  0.9543541686400231  1.0000
  H   H30       1.0  0.6364004649009162  0.0078179780586396  0.5455341876764236  1.0000
  H   H31       1.0  0.37172209031214737  0.0083443036785411  0.045642201350339896  1.0000
  H   H32       1.0  0.3635995480138944  0.9921783888505541  0.4544676233666534  1.0000
  H   H33       1.0  0.4829331499486359  0.9658785307070586  0.8487934807463373  1.0000
  H   H34       1.0  0.516582126996127  0.033926845554006504  0.6509491969210686  1.0000
  H   H35       1.0  0.5170697031385602  0.0341177493545644  0.1512024197988637  1.0000
  H   H36       1.0  0.4834131187522887  0.9660686488840684  0.349051019042335  1.0000
  H   H37       1.0  0.6974126517149984  0.0870485161730059  0.8964254413634335  1.0000
  H   H38       1.0  0.609880840235853  0.9127824739248355  0.6037911463612247  1.0000
  H   H39       1.0  0.30259097075985864  0.912943529168963  0.10357102495027688  1.0000
  H   H40       1.0  0.3901115238872779  0.08721302996725913  0.3962097259861962  1.0000
  C   C1        1.0  0.8283186249796446  0.5877208488594619  0.9230561645250218  1.0000
  C   C2        1.0  0.24033666486847238  0.4122561743495651  0.5768138249705501  1.0000
  C   C3        1.0  0.17170153737505695  0.41228984237719846  0.07693860314781624  1.0000
  C   C4        1.0  0.7596617410178865  0.5877427507169131  0.42318882863494867  1.0000
  C   C5        1.0  0.8269707838352645  0.5850143213903108  0.01320782677193928  1.0000
  C   C6        1.0  0.24195325727219344  0.41517924319771277  0.4867258649726906  1.0000
  C   C7        1.0  0.1730392850585219  0.41499638842414305  0.9867882530985952  1.0000
  C   C8        1.0  0.7580375888020683  0.5848247688304653  0.5132765028946266  1.0000
  C   C9        1.0  0.007790952980300857  0.6345149246263802  0.07377790646734883  1.0000
  C   C10       1.0  0.37324492344040994  0.3657105191255709  0.42620277007697627  1.0000
  C   C11       1.0  0.9922200653631423  0.3654948067411539  0.9262093546773826  1.0000
  C   C12       1.0  0.6267611735827006  0.6342951318690737  0.573795564303566  1.0000
  C   C13       1.0  0.18405690288782475  0.6819012719606616  0.04242024029240802  1.0000
  C   C14       1.0  0.5018100926076698  0.3181227079518577  0.4575546620158234  1.0000
  C   C15       1.0  0.815947050807978  0.31810009572318165  0.9575753756552599  1.0000
  C   C16       1.0  0.4981841726014125  0.6818737068879698  0.5424504320879818  1.0000
  C   C17       1.0  0.1733873833373423  0.6832112355605346  0.951771280453549  1.0000
  C   C18       1.0  0.48962984968952844  0.3166600368719656  0.5481513522820265  1.0000
  C   C19       1.0  0.8266235822978061  0.3167926135475483  0.04821992508333748  1.0000
  C   C20       1.0  0.5103600697643601  0.6833363486150219  0.45185177095874696  1.0000
  C   C21       1.0  0.3496253322088521  0.7277905092856899  0.9042357037920608  1.0000
  C   C22       1.0  0.6210459916600258  0.2719077137303855  0.5956947376148917  1.0000
  C   C23       1.0  0.6503872435335296  0.27221943502419776  0.09576600635590889  1.0000
  C   C24       1.0  0.37894777231081633  0.7280963565631354  0.4043115712180452  1.0000
  C   C25       1.0  0.656443021025254  0.5285815276022562  0.8432846961090447  1.0000
  C   C26       1.0  0.1276501211638391  0.4712824893074768  0.6565138144215297  1.0000
  C   C27       1.0  0.3435635760254172  0.47143089714109004  0.15671260191715666  1.0000
  C   C28       1.0  0.8723526883676203  0.5287223570454812  0.3434875224190747  1.0000
  C   C29       1.0  0.1426351444930986  0.8384452004109517  0.664994493787951  1.0000
  C   C30       1.0  0.3036950185540874  0.1617545966537364  0.8352799286822118  1.0000
  C   C31       1.0  0.8573746346326419  0.16155626445517157  0.3350076905624917  1.0000
  C   C32       1.0  0.6962993252713546  0.8382477488165134  0.1647245048506034  1.0000
  C   C33       1.0  0.9903811289563152  0.8601481494547231  0.7329262392837349  1.0000
  C   C34       1.0  0.1297385711483088  0.14004283164514664  0.7673249399756514  1.0000
  C   C35       1.0  0.009622013006762088  0.13985159003771488  0.2670740688160435  1.0000
  C   C36       1.0  0.8702491562409165  0.859957827148186  0.2326802443634292  1.0000
  C   C37       1.0  0.9031859397094524  0.9514815586962299  0.7637022754413109  1.0000
  C   C38       1.0  0.9514336038658656  0.0485567210193096  0.7364755811242034  1.0000
  C   C39       1.0  0.096830671293624  0.04851913132139169  0.23630488299266258  1.0000
  C   C40       1.0  0.048559787431123824  0.9514379495387786  0.26352632396091014  1.0000
  C   C41       1.0  0.7691271806087915  0.930372007188531  0.8275181862758244  1.0000
  C   C42       1.0  0.8382877569232718  0.069557753210276  0.6725890761596531  1.0000
  C   C43       1.0  0.23086244996920874  0.06962091886764911  0.17248052941037875  1.0000
  C   C44       1.0  0.16170964251568157  0.9304420438869766  0.32741517176508933  1.0000
  C   C45       1.0  0.637324354956405  0.9973004456090351  0.8847710071638202  1.0000
  C   C46       1.0  0.6396235442300409  0.0024400326139187006  0.6152151487065183  1.0000
  C   C47       1.0  0.3626776604900004  0.002694157890203999  0.11522630171231187  1.0000
  C   C48       1.0  0.3603731449218301  0.9975554619342331  0.38478506744699087  1.0000
  N   N1        1.0  0.996884485317061  0.6390623606361033  0.8967318968417642  1.0000
  N   N2        1.0  0.3573360487038073  0.36077369062881803  0.6031305855216899  1.0000
  N   N3        1.0  0.003122007209185604  0.3609440851058495  0.10326277793425483  1.0000
  N   N4        1.0  0.6426632310946376  0.6392269787193926  0.39687525710250066  1.0000
  N   N5        1.0  0.9126183240981264  0.7882494389986546  0.7746240171728472  1.0000
  N   N6        1.0  0.12378390096241536  0.21183118961845793  0.7255289459926004  1.0000
  N   N7        1.0  0.08739185053075003  0.2117528206147909  0.22537450757307914  1.0000
  N   N8        1.0  0.8762048328742227  0.7881685971440927  0.27447464402724353  1.0000
  N   N9        1.0  0.7799315495061097  0.8325184744034219  0.8320883155746587  1.0000
  N   N10       1.0  0.9467714386419745  0.1674278845492765  0.66802536476807  1.0000
  N   N11       1.0  0.2200683381578231  0.1674718748076032  0.16790824516130698  1.0000
  N   N12       1.0  0.05321951834900306  0.8325676869520887  0.33198010473886785  1.0000
  O   O1        1.0  0.3041228697402191  0.7322270083661309  0.8251821761426255  1.0000
  O   O2        1.0  0.5710265049969934  0.26745162315296506  0.6747067941880116  1.0000
  O   O3        1.0  0.6959034660208802  0.26777870221486216  0.17482010148484758  1.0000
  O   O4        1.0  0.42895635588302394  0.7325421938420436  0.3252948285854558  1.0000
  O   O5        1.0  0.5253815814693183  0.7554420293633227  0.9448896026761273  1.0000
  O   O6        1.0  0.7690298060114886  0.24414635168854196  0.5550528841954332  1.0000
  O   O7        1.0  0.4746354146736708  0.24455943605322963  0.055112582624857985  1.0000
  O   O8        1.0  0.23093918117282905  0.7558312714831672  0.44494405594509345  1.0000
  O   O9        1.0  0.6769885133833569  0.5488362962052095  0.7694256916268358  1.0000
  O   O10       1.0  0.12780621948590462  0.4508943023061889  0.730313426775254  1.0000
  O   O11       1.0  0.32301379183109463  0.45116755224236027  0.23056551276939533  1.0000
  O   O12       1.0  0.8721688134325946  0.5491011809164945  0.2696861297623769  1.0000
  O   O13       1.0  0.505303058992304  0.45583732582134207  0.8540505645347806  1.0000
  O   O14       1.0  0.049221344220612216  0.5440154322348008  0.6457387223059001  1.0000
  O   O15       1.0  0.4947040971865063  0.5441733354019717  0.14594223113437  1.0000
  O   O16       1.0  0.9507811816165773  0.45598596436153843  0.35425886374436283  1.0000
