data_image0
_chemical_formula_structural       Al2H24C30N4O10
_chemical_formula_sum              "Al2 H24 C30 N4 O10"
_cell_length_a       6.654767016456145
_cell_length_b       15.324439206829364
_cell_length_c       16.879484072430287
_cell_angle_alpha    84.85118022191618
_cell_angle_beta     83.780062374705
_cell_angle_gamma    77.09969199911396

_space_group_name_H-M_alt    "P 1"
_space_group_IT_number       1

loop_
  _space_group_symop_operation_xyz
  'x, y, z'

loop_
  _atom_site_type_symbol
  _atom_site_label
  _atom_site_symmetry_multiplicity
  _atom_site_fract_x
  _atom_site_fract_y
  _atom_site_fract_z
  _atom_site_occupancy
  Al  Al1       1.0  0.5022346044205505  0.501721941172093  0.49896198496028893  1.0000
  Al  Al2       1.0  0.0003516170137273346  0.5052305236894626  0.49984365895440436  1.0000
  H   H1        1.0  0.21204798087559598  0.6117593917591932  0.4548646884164996  1.0000
  H   H2        1.0  0.8021354975284041  0.39365229335204793  0.5383968887083199  1.0000
  H   H3        1.0  0.8662007742028237  0.5442189459046602  0.7322660169873672  1.0000
  H   H4        1.0  0.7979360821054016  0.5464390265248225  0.8818094157837991  1.0000
  H   H5        1.0  0.4518742015306998  0.45802080834049974  0.901966148889514  1.0000
  H   H6        1.0  0.6124213721815224  0.46155544800667764  0.10029591508639871  1.0000
  H   H7        1.0  0.17618592669376185  0.5503947543689593  0.11308329541348171  1.0000
  H   H8        1.0  0.09745409488984792  0.554251903217967  0.2622637937053797  1.0000
  H   H9        1.0  0.18805859749998183  0.068183609719064  0.4359658246478945  1.0000
  H   H10       1.0  0.7384663816559826  0.9410623562548468  0.5874178385860206  1.0000
  H   H11       1.0  0.3728231634763262  0.7729668609285979  0.4366078170116978  1.0000
  H   H12       1.0  0.29140000816007483  0.9378481861063009  0.421180809909508  1.0000
  H   H13       1.0  0.6623547133661276  0.23013468341913065  0.5353851337357797  1.0000
  H   H14       1.0  0.7480836867464191  0.0653017666235556  0.5442133265208398  1.0000
  H   H15       1.0  0.5952880683443239  0.45756060391769887  0.6873924429652976  1.0000
  H   H16       1.0  0.6819226519821838  0.43646489850521425  0.7829681329529735  1.0000
  H   H17       1.0  0.4555433355922531  0.46799188846558337  0.3136210181524676  1.0000
  H   H18       1.0  0.39300481595469  0.44579769827004156  0.22024662767232434  1.0000
  H   H19       1.0  0.005192906821051189  0.19328587047290574  0.3765463515015384  1.0000
  H   H20       1.0  0.09315313193138759  0.29584887451770925  0.3641608003426384  1.0000
  H   H21       1.0  0.9290056762878081  0.2744839705853154  0.4487709888734912  1.0000
  H   H22       1.0  0.026774205416771214  0.7380158949968064  0.5789307461064652  1.0000
  H   H23       1.0  0.8353892330952559  0.7106094732362537  0.6511361771254442  1.0000
  H   H24       1.0  0.9094688033299363  0.8153534988159806  0.6517184971864154  1.0000
  C   C1        1.0  0.6647611732256777  0.6642631886082668  0.5132332418077397  1.0000
  C   C2        1.0  0.7872022709570101  0.5103148036644144  0.3535783668109573  1.0000
  C   C3        1.0  0.33330672336239786  0.3421607402173663  0.48474809968830374  1.0000
  C   C4        1.0  0.21674456347513174  0.496392089574769  0.6450373480612228  1.0000
  C   C5        1.0  0.1936575799145928  0.4978898981754726  0.7327340963896135  1.0000
  C   C6        1.0  0.992169969538253  0.5238679612424733  0.7707682623827736  1.0000
  C   C7        1.0  0.9531603034085092  0.5250330726304998  0.8527010311750018  1.0000
  C   C8        1.0  0.12346250713656555  0.4994348322755116  0.8994496568933317  1.0000
  C   C9        1.0  0.32469472790005943  0.47584823144515553  0.8636818683018177  1.0000
  C   C10       1.0  0.36625133529227577  0.47376800697129084  0.7797641938547317  1.0000
  C   C11       1.0  0.718916657424529  0.48042184319407977  0.1371411769822259  1.0000
  C   C12       1.0  0.8992609082270632  0.502570103611049  0.0996441157659902  1.0000
  C   C13       1.0  0.0403893344955577  0.5297911025299059  0.1440301254728737  1.0000
  C   C14       1.0  0.9955816552968811  0.5320112774047276  0.22572777226668714  1.0000
  C   C15       1.0  0.8171099511831129  0.5074378227502194  0.2659439354328157  1.0000
  C   C16       1.0  0.6729233155672817  0.4812879093377731  0.22091556619725594  1.0000
  C   C17       1.0  0.3786348546382357  0.24293631325301124  0.4814239972517457  1.0000
  C   C18       1.0  0.6106418171300663  0.7636395359779867  0.515426939365824  1.0000
  C   C19       1.0  0.24520020595103637  0.1967341925392958  0.45069405228507975  1.0000
  C   C20       1.0  0.2941345652435174  0.10293586425484592  0.4584415284748431  1.0000
  C   C21       1.0  0.7165131659915648  0.8111937308907072  0.5587591048174474  1.0000
  C   C22       1.0  0.6614491221504294  0.9048752730568951  0.5516892624876418  1.0000
  C   C23       1.0  0.4540897488499808  0.8109170084378265  0.46882852704663247  1.0000
  C   C24       1.0  0.4077233632853422  0.9039841571379483  0.4607899620424476  1.0000
  C   C25       1.0  0.5587967881749946  0.1936018371480301  0.513739845947832  1.0000
  C   C26       1.0  0.6050774080478262  0.10058720938540941  0.5195537855710626  1.0000
  C   C27       1.0  0.46980312586810413  0.05269294938879909  0.4935207718679777  1.0000
  C   C28       1.0  0.5128259649674973  0.9534142888611398  0.5018544870560718  1.0000
  C   C29       1.0  0.058733916152625916  0.2424126167278615  0.4078794134366248  1.0000
  C   C30       1.0  0.8801346189233213  0.7664213868723238  0.6131349684202193  1.0000
  N   N1        1.0  0.1046469187966466  0.49841622838914645  0.9838963323498717  1.0000
  N   N2        1.0  0.9231030310130778  0.49869511238562586  0.01565445438322398  1.0000
  N   N3        1.0  0.5646139074182057  0.4469003583555278  0.7474060794486945  1.0000
  N   N4        1.0  0.4988277322473563  0.4557088707408284  0.2553301083061754  1.0000
  O   O1        1.0  0.518852099480455  0.6244688582069601  0.5065080045420273  1.0000
  O   O2        1.0  0.939979324634386  0.5186880593204394  0.38983519445606163  1.0000
  O   O3        1.0  0.14449155089530308  0.38387937729523003  0.4855360039316068  1.0000
  O   O4        1.0  0.3979629120641376  0.4941679434253601  0.6088921326683663  1.0000
  O   O5        1.0  0.48493767109582103  0.37932446211274856  0.48945546029347753  1.0000
  O   O6        1.0  0.05613320699773542  0.4964222977167977  0.6099743441350043  1.0000
  O   O7        1.0  0.8548854483968565  0.6256833261339736  0.5151672076210334  1.0000
  O   O8        1.0  0.608627983232246  0.5047564632765643  0.3887212534305959  1.0000
  O   O9        1.0  0.23890890760205252  0.5472689383113902  0.4661854259926557  1.0000
  O   O10       1.0  0.7659159359851913  0.45867256456136835  0.5325284725188909  1.0000
