data_image0
_chemical_formula_structural       Zn4P4H24C12N4O24
_chemical_formula_sum              "Zn4 P4 H24 C12 N4 O24"
_cell_length_a       5.081270686029736
_cell_length_b       7.7296324910223255
_cell_length_c       17.86915284417303
_cell_angle_alpha    90.00027469277343
_cell_angle_beta     89.99959404470127
_cell_angle_gamma    89.99996311995564

_space_group_name_H-M_alt    "P 1"
_space_group_IT_number       1

loop_
  _space_group_symop_operation_xyz
  'x, y, z'

loop_
  _atom_site_type_symbol
  _atom_site_label
  _atom_site_symmetry_multiplicity
  _atom_site_fract_x
  _atom_site_fract_y
  _atom_site_fract_z
  _atom_site_occupancy
  Zn  Zn1       1.0  0.6708771674586133  0.022714316160794102  0.32674905379021624  1.0000
  Zn  Zn2       1.0  0.829141565532119  0.9772980520880098  0.8267517580472515  1.0000
  Zn  Zn3       1.0  0.1708459159294407  0.47729681245451877  0.673252721451597  1.0000
  Zn  Zn4       1.0  0.32913558921060837  0.5227049407916624  0.17324569869772696  1.0000
  P   P1        1.0  0.1701955249782188  0.8286023457016468  0.2730136270249375  1.0000
  P   P2        1.0  0.3298148911374241  0.17141087545740427  0.7730135581887012  1.0000
  P   P3        1.0  0.6701788648940551  0.6714019922392254  0.7269858170633157  1.0000
  P   P4        1.0  0.8298227652424686  0.32859761435027934  0.22698231233171384  1.0000
  H   H1        1.0  0.3266833977217232  0.3379739255111431  0.3380608236100713  1.0000
  H   H2        1.0  0.1733056580114294  0.6620257937010338  0.8380542298095648  1.0000
  H   H3        1.0  0.8266644932573256  0.16201127835918075  0.6619445665911743  1.0000
  H   H4        1.0  0.6733112648769719  0.8379837181190412  0.1619446486030469  1.0000
  H   H5        1.0  0.022664543122324705  0.3163055997712688  0.3709798365891929  1.0000
  H   H6        1.0  0.47733153419488866  0.6836880198073346  0.8709788530698361  1.0000
  H   H7        1.0  0.5226622070134042  0.18367452733092193  0.6290171896109271  1.0000
  H   H8        1.0  0.9773281777877115  0.8163032817241032  0.1290199949447128  1.0000
  H   H9        1.0  0.279570207916386  0.22189900316219996  0.4177086224012073  1.0000
  H   H10       1.0  0.22043253433628962  0.7780912589616519  0.9177055329087127  1.0000
  H   H11       1.0  0.7795729005235117  0.2780952719734628  0.5822962995955763  1.0000
  H   H12       1.0  0.7204245953077404  0.7219104753067994  0.0822932540516916  1.0000
  H   H13       1.0  0.4735625451108945  0.5035011088467131  0.4414350855021923  1.0000
  H   H14       1.0  0.026390383958649004  0.4964881254698525  0.9414295565905704  1.0000
  H   H15       1.0  0.9735970743225125  0.9964927813753378  0.5585699256524067  1.0000
  H   H16       1.0  0.5264010344274936  0.003516581152744901  0.0585669027679288  1.0000
  H   H17       1.0  0.9258574686414462  0.6297952427851  0.3907742882942884  1.0000
  H   H18       1.0  0.5741340262597987  0.3701997309285118  0.8907762425270249  1.0000
  H   H19       1.0  0.4258693291548211  0.8702038376544652  0.6092162652529751  1.0000
  H   H20       1.0  0.07412957412618938  0.1298010791363424  0.10922460117678413  1.0000
  H   H21       1.0  0.17593420813045668  0.7622908952019143  0.4314967241436563  1.0000
  H   H22       1.0  0.32404849777461925  0.23770469636716743  0.9314968024295495  1.0000
  H   H23       1.0  0.6759550180509066  0.7376992099189436  0.5685004702623148  1.0000
  H   H24       1.0  0.8240664502153692  0.26229085810980735  0.06850523511827332  1.0000
  C   C1        1.0  0.1306986219890902  0.4597814910548197  0.5105533674214798  1.0000
  C   C2        1.0  0.3692910219818443  0.5401886831635424  0.0105625317163955  1.0000
  C   C3        1.0  0.630721713264009  0.040225769368035506  0.4894501646075114  1.0000
  C   C4        1.0  0.8693026568528878  0.9598091219048257  0.9894432414439153  1.0000
  C   C5        1.0  0.2605214519447329  0.48828821758826285  0.43394527409567024  1.0000
  C   C6        1.0  0.23944938259162998  0.5117074014452926  0.9339488765289802  1.0000
  C   C7        1.0  0.7605485028105221  0.0117047699502422  0.5660557674780264  1.0000
  C   C8        1.0  0.7394474445875261  0.9882865643489184  0.06605043313596332  1.0000
  C   C9        1.0  0.1399791506445496  0.6466344974745866  0.3969936057866406  1.0000
  C   C10       1.0  0.3600083825970515  0.3533620011139575  0.8969938514540063  1.0000
  C   C11       1.0  0.6399989291582597  0.8533595004311679  0.6030047776482022  1.0000
  C   C12       1.0  0.8600078717035727  0.14663354175055335  0.1030075567020887  1.0000
  N   N1        1.0  0.21819022315874287  0.3316310951041146  0.3869250183807438  1.0000
  N   N2        1.0  0.2818113462801932  0.6683717592404433  0.8869238232652779  1.0000
  N   N3        1.0  0.7181922534910187  0.1683619061050693  0.613075545744266  1.0000
  N   N4        1.0  0.7818142872512438  0.8316312489312594  0.1130754041939142  1.0000
  O   O1        1.0  0.2677974329438442  0.5099497565889806  0.5665693716895603  1.0000
  O   O2        1.0  0.23217895610608957  0.49005985702405047  0.0665607912708097  1.0000
  O   O3        1.0  0.7678292985345933  0.9900597247351473  0.4334332406862061  1.0000
  O   O4        1.0  0.7321945504323394  0.009953839251835501  0.9334442227037982  1.0000
  O   O5        1.0  0.9043673365480629  0.39482485310538357  0.5111614206057808  1.0000
  O   O6        1.0  0.5956162527820013  0.6051684534258186  0.011161176002140403  1.0000
  O   O7        1.0  0.40440230794963844  0.10517196916080711  0.48884158030228525  1.0000
  O   O8        1.0  0.0956222128076973  0.8948423772296368  0.9888423301693763  1.0000
  O   O9        1.0  0.2575982946076252  0.6648833222276026  0.3243996940110634  1.0000
  O   O10       1.0  0.2424107940595945  0.33510201296472536  0.8244006901082416  1.0000
  O   O11       1.0  0.7575906357469221  0.8351119314293811  0.6755995804398368  1.0000
  O   O12       1.0  0.7424201938724266  0.16490003646416798  0.1755970288968314  1.0000
  O   O13       1.0  0.870486854054917  0.8446612235566351  0.2752760818942975  1.0000
  O   O14       1.0  0.6295489526936322  0.15533633686136034  0.7752819650216054  1.0000
  O   O15       1.0  0.37046647088269674  0.6553417559708379  0.7247207350037571  1.0000
  O   O16       1.0  0.1295510968208404  0.3446644553170159  0.2247204500049591  1.0000
  O   O17       1.0  0.26855189115262584  0.7738412010688122  0.1945195472593753  1.0000
  O   O18       1.0  0.23146645670863816  0.22615044079793734  0.6945220200560556  1.0000
  O   O19       1.0  0.7685410091045168  0.7261579302035345  0.8054769078232911  1.0000
  O   O20       1.0  0.7314546573004179  0.273859374510252  0.3054768394640562  1.0000
  O   O21       1.0  0.30059548139382736  0.9914705252409136  0.30383493834904846  1.0000
  O   O22       1.0  0.1994121704789933  0.008505523423984604  0.8038387059320018  1.0000
  O   O23       1.0  0.8005896548080713  0.5085298894306263  0.6961659315331802  1.0000
  O   O24       1.0  0.6994127715772009  0.4915017147568009  0.19615461954380464  1.0000
