data_image0
_chemical_formula_structural       Cu2H20C24N24O8
_chemical_formula_sum              "Cu2 H20 C24 N24 O8"
_cell_length_a       8.20729701299827
_cell_length_b       8.20726986954328
_cell_length_c       13.287784209042325
_cell_angle_alpha    99.43498753898471
_cell_angle_beta     99.43538488984224
_cell_angle_gamma    104.49773283210868

_space_group_name_H-M_alt    "P 1"
_space_group_IT_number       1

loop_
  _space_group_symop_operation_xyz
  'x, y, z'

loop_
  _atom_site_type_symbol
  _atom_site_label
  _atom_site_symmetry_multiplicity
  _atom_site_fract_x
  _atom_site_fract_y
  _atom_site_fract_z
  _atom_site_occupancy
  Cu  Cu1       1.0  3.4514798770001356e-06  4.035891052500244e-06  0.49999907749430167  1.0000
  Cu  Cu2       1.0  2.1633656640058224e-07  5.1476757150016966e-06  0.9999997846836738  1.0000
  H   H1        1.0  0.6019199329579052  0.9850785678289141  0.41802449863386226  1.0000
  H   H2        1.0  0.014925865745823268  0.3980801452475972  0.0819754730001634  1.0000
  H   H3        1.0  0.39809081849083583  0.014923698693550598  0.5819687536991298  1.0000
  H   H4        1.0  0.9850689574425431  0.6019092741045069  0.918032206369013  1.0000
  H   H5        1.0  0.05691061318499639  0.3532857533108995  0.4077846025332336  1.0000
  H   H6        1.0  0.6467186433981169  0.9430895360006345  0.09221632312146974  1.0000
  H   H7        1.0  0.9430982804179778  0.6467229768310078  0.5922166368511627  1.0000
  H   H8        1.0  0.35327402502597494  0.0569011188064437  0.9077799755505186  1.0000
  H   H9        1.0  0.4996463516401731  0.40228730266306195  0.3643854047117472  1.0000
  H   H10       1.0  0.5977179240990153  0.5003542568615913  0.13562031141351133  1.0000
  H   H11       1.0  0.5003578865416713  0.5977136897175441  0.6356145933654603  1.0000
  H   H12       1.0  0.40227940904411946  0.4996441449939439  0.8643794881500856  1.0000
  H   H13       1.0  0.24806180915240356  0.3140368306236566  0.19428992502029985  1.0000
  H   H14       1.0  0.6859632829544893  0.7519398270162441  0.305708988586126  1.0000
  H   H15       1.0  0.7519362486475532  0.6859641451796038  0.8057094523576609  1.0000
  H   H16       1.0  0.3140307089368903  0.2480598565103307  0.6942913572573063  1.0000
  H   H17       1.0  0.22569926390215048  0.7872854475611392  0.12341403436484202  1.0000
  H   H18       1.0  0.21271791481343166  0.7743030114338865  0.3765848903148524  1.0000
  H   H19       1.0  0.7742906651799472  0.21271294678447106  0.8765880331388731  1.0000
  H   H20       1.0  0.7872789038108507  0.22569795795818945  0.6234136097284522  1.0000
  C   C1        1.0  0.6934891499767134  0.10167915973748622  0.4106297838376919  1.0000
  C   C2        1.0  0.8983223436513086  0.3065152644170936  0.08937029565336023  1.0000
  C   C3        1.0  0.30652233542676294  0.898325690019874  0.5893653058940773  1.0000
  C   C4        1.0  0.1016710928198847  0.6934780076778041  0.9106361255602523  1.0000
  C   C5        1.0  0.9219996970565277  0.2917607421922527  0.40325068002660214  1.0000
  C   C6        1.0  0.7082444643083222  0.07800183092716399  0.09675408440956804  1.0000
  C   C7        1.0  0.07800561106436987  0.7082440940834829  0.5967445422007175  1.0000
  C   C8        1.0  0.29174859588758284  0.9219901402631263  0.9032491585202396  1.0000
  C   C9        1.0  0.48439105522143683  0.2671290026372973  0.3694649086945604  1.0000
  C   C10       1.0  0.732871900962216  0.5156108526476757  0.13053852044003383  1.0000
  C   C11       1.0  0.5156140520594193  0.7328707014413283  0.6305342948231073  1.0000
  C   C12       1.0  0.2671247137227227  0.4843849814515623  0.8694632076988075  1.0000
  C   C13       1.0  0.3968869987994951  0.23251067424904187  0.4652665228375953  1.0000
  C   C14       1.0  0.7674845935552741  0.603120030375699  0.034735981499878235  1.0000
  C   C15       1.0  0.6031248064814109  0.7674864819661096  0.5347353540944155  1.0000
  C   C16       1.0  0.23250975601555982  0.396880935481164  0.9652630234585262  1.0000
  C   C17       1.0  0.26623246007208934  0.18843540164120037  0.19799873306460822  1.0000
  C   C18       1.0  0.8115686629601131  0.7337707156319127  0.3020033162767748  1.0000
  C   C19       1.0  0.7337656008271766  0.8115655772577878  0.8020013975081499  1.0000
  C   C20       1.0  0.18842779488540634  0.26622896833416126  0.6979957714567463  1.0000
  C   C21       1.0  0.2586066721095364  0.9218975974731904  0.16243212978632476  1.0000
  C   C22       1.0  0.07810653109845579  0.7413929769728893  0.33756712908877523  1.0000
  C   C23       1.0  0.7413894342551401  0.0781008103540373  0.8375698052218327  1.0000
  C   C24       1.0  0.9218923958005122  0.25860671052839734  0.6624314537296458  1.0000
  N   N1        1.0  0.6530485395166042  0.2407248910761979  0.3850717354049352  1.0000
  N   N2        1.0  0.7592799537543016  0.34695482889659257  0.1149311747371016  1.0000
  N   N3        1.0  0.34695690684786484  0.7592760767583898  0.6149216080588789  1.0000
  N   N4        1.0  0.24071507027411343  0.653039722652622  0.8850725233417265  1.0000
  N   N5        1.0  0.8633768574610415  0.13041646165353882  0.422529782175353  1.0000
  N   N6        1.0  0.8695859031893962  0.13662697202416743  0.0774721522533355  1.0000
  N   N7        1.0  0.13663180120953186  0.869587102238327  0.5774671533565511  1.0000
  N   N8        1.0  0.1304062910068069  0.8633662905638178  0.9225326384308163  1.0000
  N   N9        1.0  0.7967445410846069  0.3631468180215407  0.3797968665871495  1.0000
  N   N10       1.0  0.6368605145932804  0.2032592043050769  0.1202071316131494  1.0000
  N   N11       1.0  0.2032634803200537  0.6368631973266189  0.6202044141619824  1.0000
  N   N12       1.0  0.36313289088485584  0.7967340368326175  0.87979175765242  1.0000
  N   N13       1.0  0.37889362975164437  0.15584247536963147  0.271708549234596  1.0000
  N   N14       1.0  0.8441593769081736  0.6211099355842294  0.22829364899411794  1.0000
  N   N15       1.0  0.6211040734681675  0.8441572211990761  0.7282929222231902  1.0000
  N   N16       1.0  0.1558362087390321  0.3788910335880971  0.7717054801041385  1.0000
  N   N17       1.0  0.3751070140825306  0.9868934225266557  0.25082014676195297  1.0000
  N   N18       1.0  0.013105286194622949  0.6248918330816409  0.24918011160649917  1.0000
  N   N19       1.0  0.6248869809081584  0.0131062640956401  0.7491809522762837  1.0000
  N   N20       1.0  0.9868897849337159  0.3751117036272261  0.7508177179714652  1.0000
  N   N21       1.0  0.18718759247560973  0.04150633203305179  0.12767746321106443  1.0000
  N   N22       1.0  0.9585003478674851  0.8128144707517392  0.3723218812648598  1.0000
  N   N23       1.0  0.812808153110318  0.9584907903681665  0.8723250594873166  1.0000
  N   N24       1.0  0.0415014057643859  0.18718650261504166  0.6276748557534264  1.0000
  O   O1        1.0  0.2357636155458849  0.1732479288771813  0.440359672304119  1.0000
  O   O2        1.0  0.826753461334718  0.7642428586226516  0.05964466239095148  1.0000
  O   O3        1.0  0.7642448695249656  0.8267724127796185  0.5596487097604098  1.0000
  O   O4        1.0  0.17322890374762787  0.2357593749841342  0.9403562794527647  1.0000
  O   O5        1.0  0.49813631111602774  0.27012938998688446  0.5530732530417951  1.0000
  O   O6        1.0  0.7298699989055067  0.5018744430495374  0.9469283426196712  1.0000
  O   O7        1.0  0.5018787511250481  0.7298574622489156  0.44692490777359245  1.0000
  O   O8        1.0  0.2701460886205496  0.4981291531180219  0.05307235053054171  1.0000
