data_image0
_chemical_formula_structural       Cd2H16C24O10
_chemical_formula_sum              "Cd2 H16 C24 O10"
_cell_length_a       6.311436168998786
_cell_length_b       7.278237024260827
_cell_length_c       12.38861844305749
_cell_angle_alpha    92.0198313068535
_cell_angle_beta     107.14083318073088
_cell_angle_gamma    86.48234151187722

_space_group_name_H-M_alt    "P 1"
_space_group_IT_number       1

loop_
  _space_group_symop_operation_xyz
  'x, y, z'

loop_
  _atom_site_type_symbol
  _atom_site_label
  _atom_site_symmetry_multiplicity
  _atom_site_fract_x
  _atom_site_fract_y
  _atom_site_fract_z
  _atom_site_occupancy
  Cd  Cd1       1.0  0.6794754113783766  0.2541662744330964  0.005979123909270376  1.0000
  Cd  Cd2       1.0  0.3204924208986952  0.7457955731300101  0.9940135687564007  1.0000
  H   H1        1.0  0.14269324056808588  0.3249559280414829  0.05938595135655329  1.0000
  H   H2        1.0  0.8911989532511625  0.8496583690713565  0.02080541099018524  1.0000
  H   H3        1.0  0.8572920234461845  0.6750386650922523  0.9406227595319476  1.0000
  H   H4        1.0  0.10880309194581628  0.15035515473793032  0.9791874699043388  1.0000
  H   H5        1.0  0.2040249875008371  0.6337276717477704  0.6168291649967584  1.0000
  H   H6        1.0  0.40319651276998764  0.13682272449943164  0.6276080839376164  1.0000
  H   H7        1.0  0.7960001465263745  0.36626348816049153  0.38318349010688724  1.0000
  H   H8        1.0  0.5967909225562663  0.8632007183521961  0.3724014981758827  1.0000
  H   H9        1.0  0.8697753927092007  0.42115852813523696  0.7798968408853637  1.0000
  H   H10       1.0  0.9260363495873276  0.9307226031038665  0.7734478189695223  1.0000
  H   H11       1.0  0.1302557848197026  0.5788366303172057  0.22010544266083085  1.0000
  H   H12       1.0  0.0739207864537832  0.06929443607572237  0.2265387935760472  1.0000
  H   H13       1.0  0.06531953003461412  0.6406642644728179  0.405929315971754  1.0000
  H   H14       1.0  0.32407744817358963  0.13874853732003337  0.4179139045536927  1.0000
  H   H15       1.0  0.9346969020205832  0.35932564088839297  0.5940699766479083  1.0000
  H   H16       1.0  0.675934014154052  0.86121801400796  0.5820600095932704  1.0000
  C   C1        1.0  0.39463528619874216  0.5396329245269413  0.5030279074034708  1.0000
  C   C2        1.0  0.1047986613389895  0.03936850090254751  0.5061850974191486  1.0000
  C   C3        1.0  0.6053931049630918  0.4603581763410176  0.4969835914978588  1.0000
  C   C4        1.0  0.8952069478745984  0.9606449766976651  0.4938147441476558  1.0000
  C   C5        1.0  0.3625635807145642  0.5735714804267716  0.6104033089734742  1.0000
  C   C6        1.0  0.24386079253843457  0.07662160156625221  0.6161288764202908  1.0000
  C   C7        1.0  0.6374527930153917  0.426425316342943  0.3896017616613534  1.0000
  C   C8        1.0  0.7561415018608457  0.9233864175848366  0.3838647391993391  1.0000
  C   C9        1.0  0.5309094189704952  0.5310123121778503  0.7084299860416081  1.0000
  C   C10       1.0  0.17986470960792636  0.03808409051283951  0.7104872206380222  1.0000
  C   C11       1.0  0.46910412131343543  0.4690079028145391  0.29156868459728  1.0000
  C   C12       1.0  0.8201247680190704  0.9619172798065138  0.28950930021299104  1.0000
  C   C13       1.0  0.49090305234092557  0.5666220621686124  0.8201057648953235  1.0000
  C   C14       1.0  0.3290245381405583  0.0817584717477899  0.8250946850801597  1.0000
  C   C15       1.0  0.5091116688813954  0.4333761418897026  0.1799007147687064  1.0000
  C   C16       1.0  0.6709522963987665  0.918240393310178  0.17491372728606078  1.0000
  C   C17       1.0  0.7393360892059564  0.45363851910225617  0.7021641749207531  1.0000
  C   C18       1.0  0.9728333842937856  0.9601374929388768  0.6981769030086724  1.0000
  C   C19       1.0  0.26069766597493776  0.5463744759023114  0.297838014238259  1.0000
  C   C20       1.0  0.027149125488854495  0.039865355265810386  0.3018113975506011  1.0000
  C   C21       1.0  0.2249497589752352  0.580655012308796  0.40109177798623813  1.0000
  C   C22       1.0  0.16556878863546123  0.07772193530571768  0.4078431205395388  1.0000
  C   C23       1.0  0.7750876596802954  0.41934691048971473  0.5989082893582774  1.0000
  C   C24       1.0  0.8344371894820666  0.9222791487940397  0.5921533011121198  1.0000
  O   O1        1.0  0.6517066043630066  0.5386587398001125  0.9115483812390792  1.0000
  O   O2        1.0  0.2730745669934578  0.04328541646626859  0.9128401069049232  1.0000
  O   O3        1.0  0.34829141135042346  0.4613480145222865  0.0884615598176808  1.0000
  O   O4        1.0  0.7269038893653174  0.9567120400199798  0.08716608474463064  1.0000
  O   O5        1.0  0.2986677738920989  0.6271782247530594  0.8223302365050457  1.0000
  O   O6        1.0  0.5083686178681859  0.15942294962362524  0.8317595261120303  1.0000
  O   O7        1.0  0.7013168215735419  0.37278059003538994  0.17766637691737938  1.0000
  O   O8        1.0  0.4916160931129525  0.8405840293118417  0.16824773456686157  1.0000
  O   O9        1.0  0.045773250157893096  0.21872508975968688  0.03462306238308339  1.0000
  O   O10       1.0  0.9542200032519473  0.7812693493577072  0.9653786995623362  1.0000
