data_image0
_chemical_formula_structural       Zn4H72C112N16O16
_chemical_formula_sum              "Zn4 H72 C112 N16 O16"
_cell_length_a       7.3281784690581535
_cell_length_b       17.583646977134073
_cell_length_c       22.0046660998031
_cell_angle_alpha    109.74755179686812
_cell_angle_beta     90.00044387233442
_cell_angle_gamma    89.99978150202267

_space_group_name_H-M_alt    "P 1"
_space_group_IT_number       1

loop_
  _space_group_symop_operation_xyz
  'x, y, z'

loop_
  _atom_site_type_symbol
  _atom_site_label
  _atom_site_symmetry_multiplicity
  _atom_site_fract_x
  _atom_site_fract_y
  _atom_site_fract_z
  _atom_site_occupancy
  Zn  Zn1       1.0  0.0088980617554455  0.4935901717418858  0.747686492859728  1.0000
  Zn  Zn2       1.0  0.008904393484769506  0.006403652888828002  0.7523133132968028  1.0000
  Zn  Zn3       1.0  0.9911145834964331  0.5064083493077263  0.25230891126729194  1.0000
  Zn  Zn4       1.0  0.9911082518620947  0.993600610863652  0.24769262373733625  1.0000
  H   H1        1.0  0.7314872616894237  0.1389545625484701  0.7591362234914031  1.0000
  H   H2        1.0  0.7314805978896999  0.3610340103583881  0.7408641481154562  1.0000
  H   H3        1.0  0.2685035501228441  0.8610399751369046  0.24086545458951047  1.0000
  H   H4        1.0  0.2685279536240373  0.6389634403964594  0.2591350787945217  1.0000
  H   H5        1.0  0.9456556472537586  0.9866511255680591  0.9021271472759835  1.0000
  H   H6        1.0  0.9456447302417673  0.5133388471379092  0.5978781471959707  1.0000
  H   H7        1.0  0.054322883236139305  0.013339275631125202  0.09787622039815601  1.0000
  H   H8        1.0  0.054331070974321  0.4866640554028551  0.40212290227324843  1.0000
  H   H9        1.0  0.792416613692339  0.0105362174549555  0.0084905045162742  1.0000
  H   H10       1.0  0.7924049920586429  0.48945777761786496  0.4915127451059432  1.0000
  H   H11       1.0  0.20756601054834795  0.9894571121295787  0.9915108704073886  1.0000
  H   H12       1.0  0.20757080914285814  0.5105444749355288  0.5084867774779624  1.0000
  H   H13       1.0  0.5341982559718162  0.10494152475200023  0.04293393213193749  1.0000
  H   H14       1.0  0.5341798684792138  0.3950544170084598  0.45706867837478876  1.0000
  H   H15       1.0  0.46579664961295464  0.8950553985147921  0.9570674353738725  1.0000
  H   H16       1.0  0.4658054849322255  0.6049418868975709  0.5429320791084465  1.0000
  H   H17       1.0  0.41842673332375574  0.1810820434407816  0.972955780594944  1.0000
  H   H18       1.0  0.4184087224790575  0.3189121629131648  0.527045643258198  1.0000
  H   H19       1.0  0.581562713885795  0.8189136870362931  0.027045742194218313  1.0000
  H   H20       1.0  0.5815848185234103  0.6810829788230279  0.47295618639965653  1.0000
  H   H21       1.0  0.22777110831122377  0.14598227389218724  0.8586742304241711  1.0000
  H   H22       1.0  0.22777587166324056  0.35399848676680534  0.6413333237428418  1.0000
  H   H23       1.0  0.7721896824243687  0.8540056651699501  0.1413271556220721  1.0000
  H   H24       1.0  0.7722285861645448  0.6460010823824405  0.3586755266276925  1.0000
  H   H25       1.0  0.0018330368559560004  0.2456178807730539  0.8439596236668053  1.0000
  H   H26       1.0  0.0018554064043386003  0.2543564429834007  0.6560479994391315  1.0000
  H   H27       1.0  0.9981263892736792  0.754370027665644  0.15604084550327713  1.0000
  H   H28       1.0  0.9981572390164148  0.7456407558927793  0.3439616199588542  1.0000
  H   H29       1.0  0.4396625779259723  0.3938742827524352  0.8188219244015897  1.0000
  H   H30       1.0  0.439704593196936  0.10610734867258742  0.6811800362324618  1.0000
  H   H31       1.0  0.5602982128446216  0.6061113319747734  0.1811816059737553  1.0000
  H   H32       1.0  0.5603135104978919  0.8938858890301377  0.3188185881114052  1.0000
  H   H33       1.0  0.6678017554052503  0.29818663134251017  0.8362451021032271  1.0000
  H   H34       1.0  0.6678302315121915  0.2018030488064682  0.6637512900497242  1.0000
  H   H35       1.0  0.3321481185607881  0.7018043279808454  0.16375704179751693  1.0000
  H   H36       1.0  0.3321796845533741  0.7981924519858836  0.33624335620600476  1.0000
  H   H37       1.0  0.6489187767176576  0.899783307084988  0.7402179800267064  1.0000
  H   H38       1.0  0.6489107922646228  0.6002149882991505  0.7597795375621318  1.0000
  H   H39       1.0  0.35109659777045726  0.10021959544428682  0.25978306949119195  1.0000
  H   H40       1.0  0.35109366542377535  0.39978052780670487  0.2402155671241175  1.0000
  H   H41       1.0  0.1691648270620618  0.9319846146528975  0.6032435645560027  1.0000
  H   H42       1.0  0.16917937593169094  0.5680156794067346  0.8967504766407615  1.0000
  H   H43       1.0  0.8308423597874113  0.06803933781359463  0.3967600394039223  1.0000
  H   H44       1.0  0.8308373631004644  0.43198039481141143  0.10324340432246262  1.0000
  H   H45       1.0  0.24336405053873023  0.8183981425124431  0.5010885762612958  1.0000
  H   H46       1.0  0.24337582876484026  0.6816045400089266  0.9989067122436025  1.0000
  H   H47       1.0  0.7566513238431014  0.18162872302628594  0.4989125765159486  1.0000
  H   H48       1.0  0.7566340873085055  0.31839583913205877  0.0010905219125448417  1.0000
  H   H49       1.0  0.0692432264796992  0.6907265361336031  0.4693056061903818  1.0000
  H   H50       1.0  0.0692349379145085  0.8092732941697208  0.03069123521139972  1.0000
  H   H51       1.0  0.9307803354335037  0.30929413576745896  0.5306894464886511  1.0000
  H   H52       1.0  0.9307504154784638  0.19072477595538123  0.969308601680865  1.0000
  H   H53       1.0  0.8125788761535875  0.670846704746566  0.5365646826008685  1.0000
  H   H54       1.0  0.8125584965654867  0.8291478713603979  0.9634323282450268  1.0000
  H   H55       1.0  0.1874474149699097  0.32916856131305394  0.4634299227937291  1.0000
  H   H56       1.0  0.18742412763143793  0.17084350826203126  0.03656446602270341  1.0000
  H   H57       1.0  0.7601429528615143  0.6513398263972263  0.6503113679624379  1.0000
  H   H58       1.0  0.7601416240980612  0.848656485103902  0.8496827595393555  1.0000
  H   H59       1.0  0.2398819737341285  0.34866896352618687  0.3496866129306754  1.0000
  H   H60       1.0  0.2398696565539993  0.1513317058210576  0.1503082340860402  1.0000
  H   H61       1.0  0.5152422691532266  0.5588180353172589  0.6627145167978483  1.0000
  H   H62       1.0  0.5152439199647462  0.941180895751721  0.8372814481306677  1.0000
  H   H63       1.0  0.4847881158007753  0.4411894699417616  0.3372808687685946  1.0000
  H   H64       1.0  0.4847810066626509  0.058814635660112906  0.1627141150180123  1.0000
  H   H65       1.0  0.11219195444030564  0.7413008828954092  0.6788940366968959  1.0000
  H   H66       1.0  0.11218258978037451  0.758701455442001  0.8211062786838  1.0000
  H   H67       1.0  0.8878329721634302  0.2586963994235845  0.3211001474235786  1.0000
  H   H68       1.0  0.8878218679051247  0.24130558358019985  0.17889308121233682  1.0000
  H   H69       1.0  0.352817319063135  0.8335908396365426  0.662813677329666  1.0000
  H   H70       1.0  0.3528146091988447  0.6664088203634932  0.8371829563670303  1.0000
  H   H71       1.0  0.6471898677794956  0.1664082089066667  0.3371795861780171  1.0000
  H   H72       1.0  0.6471802962886813  0.3335902434951947  0.16281076556278856  1.0000
  C   C1        1.0  0.7172332675409906  0.12435654903828211  0.8032692750274394  1.0000
  C   C2        1.0  0.7172213672496072  0.3756362911267174  0.6967330393881639  1.0000
  C   C3        1.0  0.2827520858798565  0.8756403895432002  0.19673255090386021  1.0000
  C   C4        1.0  0.2827776320901592  0.62436417988895  0.3032669453780059  1.0000
  C   C5        1.0  0.766769185379964  0.07039066494327531  0.877946492296026  1.0000
  C   C6        1.0  0.7667537244317587  0.42959909559543524  0.6220542692644244  1.0000
  C   C7        1.0  0.23322435564455193  0.9296069695589537  0.12205823584238827  1.0000
  C   C8        1.0  0.23323572274181  0.5703995632681754  0.3779452607692235  1.0000
  C   C9        1.0  0.8329322442459173  0.028905956853435603  0.9177082777098704  1.0000
  C   C10       1.0  0.8329182288542469  0.47108563869328896  0.5822949351276705  1.0000
  C   C11       1.0  0.16706129678572523  0.9710904848574988  0.08229660571861079  1.0000
  C   C12       1.0  0.16706303073997472  0.5289166444823579  0.41770550433742665  1.0000
  C   C13       1.0  0.745358572326623  0.04228805627295171  0.9765503447236908  1.0000
  C   C14       1.0  0.7453487863626124  0.45770359009108585  0.5234526526289685  1.0000
  C   C15       1.0  0.25462541652423454  0.9577059232985479  0.023452557086962103  1.0000
  C   C16       1.0  0.2546338378372397  0.542295688138033  0.47654748740711744  1.0000
  C   C17       1.0  0.5969751622602433  0.09595892443643092  0.9962297273917642  1.0000
  C   C18       1.0  0.5969558543721832  0.4040370823335168  0.5037753411531156  1.0000
  C   C19       1.0  0.40302110794280577  0.904036851974425  0.003773170717522616  1.0000
  C   C20       1.0  0.40302949904899077  0.5959628918179334  0.49622770108336317  1.0000
  C   C21       1.0  0.5306278930861978  0.13823573200883743  0.9576586282374252  1.0000
  C   C22       1.0  0.5306057548536813  0.3617584398604024  0.5423439885753751  1.0000
  C   C23       1.0  0.4693574603508497  0.8617576128868195  0.04234320512684067  1.0000
  C   C24       1.0  0.4693836923558693  0.6382372906166721  0.45765753421378713  1.0000
  C   C25       1.0  0.617264086957363  0.12411119980507122  0.8984493338454413  1.0000
  C   C26       1.0  0.6172445440334258  0.375880490270518  0.6015524314222205  1.0000
  C   C27       1.0  0.38272263106522797  0.875885150036318  0.10155279895118954  1.0000
  C   C28       1.0  0.38275172613136743  0.6241163870601198  0.3984475607735476  1.0000
  C   C29       1.0  0.459391664039444  0.21641376734994822  0.8477719358057243  1.0000
  C   C30       1.0  0.45940003818017067  0.2835738931522585  0.6522315890696149  1.0000
  C   C31       1.0  0.5405704912794248  0.7835753491911747  0.15222883651488667  1.0000
  C   C32       1.0  0.5406057841621604  0.7164242229026669  0.3477696231595644  1.0000
  C   C33       1.0  0.27309991801974587  0.2016858144292257  0.8519841697034991  1.0000
  C   C34       1.0  0.27311215734994937  0.2982955086632231  0.6480231891483895  1.0000
  C   C35       1.0  0.7268663311293153  0.7983022165028403  0.1480199669729103  1.0000
  C   C36       1.0  0.7268977588507897  0.7017034258089938  0.3519845927807879  1.0000
  C   C37       1.0  0.14789110447511433  0.25671015380383017  0.8433750834598328  1.0000
  C   C38       1.0  0.14791495149538753  0.24327069913933747  0.6566336494838936  1.0000
  C   C39       1.0  0.8520696863146144  0.7432797658442497  0.15663180011682704  1.0000
  C   C40       1.0  0.8520963292811602  0.7567275700331922  0.3433721471244128  1.0000
  C   C41       1.0  0.20744568883070263  0.3250427598330461  0.8299056719767534  1.0000
  C   C42       1.0  0.20748683266402426  0.17494159098403372  0.6701013663506287  1.0000
  C   C43       1.0  0.7925123727367309  0.6749470679443093  0.17009846097310088  1.0000
  C   C44       1.0  0.7925326356821645  0.8250590943925644  0.3299050365621028  1.0000
  C   C45       1.0  0.3947895691870968  0.3400890282943507  0.8285345241257858  1.0000
  C   C46       1.0  0.39483224399158007  0.15989575661154024  0.6714712930199411  1.0000
  C   C47       1.0  0.6051643986110876  0.659899637316727  0.17147068098358187  1.0000
  C   C48       1.0  0.6051844951339262  0.8401005932211449  0.3285308398136309  1.0000
  C   C49       1.0  0.5219238301674949  0.28638103557629796  0.8379257888629609  1.0000
  C   C50       1.0  0.5219507973197892  0.21360649676190496  0.6620751392829618  1.0000
  C   C51       1.0  0.47803832516790123  0.7136075228489674  0.16207620719578839  1.0000
  C   C52       1.0  0.4780645771770722  0.7863909693028861  0.33792454607266365  1.0000
  C   C53       1.0  0.07209646511933702  0.37806960578727467  0.8117598138820411  1.0000
  C   C54       1.0  0.07213031299715313  0.1219172397808066  0.6882474976806705  1.0000
  C   C55       1.0  0.9278629610096589  0.621921942272998  0.18824202316680785  1.0000
  C   C56       1.0  0.92788915537205  0.878085334310214  0.31176165213903323  1.0000
  C   C57       1.0  0.7338016908889672  0.8775707071945292  0.6975280008187354  1.0000
  C   C58       1.0  0.7337903920978874  0.6224250921031783  0.8024682024662084  1.0000
  C   C59       1.0  0.2662123189834773  0.12243820522740383  0.3024736475588767  1.0000
  C   C60       1.0  0.26620724261029954  0.37756859653791247  0.19752598905365204  1.0000
  C   C61       1.0  0.9467610778674216  0.86472331676206  0.6257693015037447  1.0000
  C   C62       1.0  0.9467608610934876  0.6352759220151896  0.8742265015105916  1.0000
  C   C63       1.0  0.0532502027632944  0.1352975848213518  0.37423262771880417  1.0000
  C   C64       1.0  0.05324223199220062  0.3647207868823585  0.1257684478839138  1.0000
  C   C65       1.0  0.0922658541714938  0.8755865926622519  0.5883515291000023  1.0000
  C   C66       1.0  0.092270686398841  0.6244143041401247  0.9116410991235212  1.0000
  C   C67       1.0  0.9077508848123941  0.1244330089448482  0.41164734635863454  1.0000
  C   C68       1.0  0.9077392296566703  0.3755842015983574  0.08835384656290297  1.0000
  C   C69       1.0  0.13182238762295384  0.8120791293124017  0.5317995175187988  1.0000
  C   C70       1.0  0.13182794673392811  0.6879194048884687  0.9681948939331378  1.0000
  C   C71       1.0  0.868184799170443  0.18794405067136927  0.46819889205789167  1.0000
  C   C72       1.0  0.8681751463569398  0.3120773193210057  0.03180051389861663  1.0000
  C   C73       1.0  0.0316693722128818  0.7394497757885221  0.5132509619143732  1.0000
  C   C74       1.0  0.03166378837271111  0.7605495124569759  0.9867461052771632  1.0000
  C   C75       1.0  0.9683500959394991  0.260570972673321  0.48674638294583156  1.0000
  C   C76       1.0  0.9683311171747848  0.23944790767799873  0.013252204741547823  1.0000
  C   C77       1.0  0.8867131601694213  0.7277845166359215  0.5500788160468844  1.0000
  C   C78       1.0  0.8867052628249682  0.7722124326541292  0.9499189835288746  1.0000
  C   C79       1.0  0.11329948499658832  0.2722349931008453  0.4499173087832702  1.0000
  C   C80       1.0  0.11328554892927664  0.22778254065175224  0.05007780331597191  1.0000
  C   C81       1.0  0.8448968466260071  0.7919840689852722  0.6060466793878377  1.0000
  C   C82       1.0  0.8448937003817178  0.7080140361128145  0.893949028258504  1.0000
  C   C83       1.0  0.15511443394539276  0.20803483670028564  0.3939492938670525  1.0000
  C   C84       1.0  0.1551012051489167  0.29198090656804254  0.10604684171689632  1.0000
  C   C85       1.0  0.5696300287217113  0.7475099517209431  0.6556908709851826  1.0000
  C   C86       1.0  0.5696253454624911  0.7524853387911892  0.8443047767616961  1.0000
  C   C87       1.0  0.43038807488172653  0.2524915130255395  0.3443029988302797  1.0000
  C   C88       1.0  0.43037638302728004  0.24750833453678925  0.15568895632595312  1.0000
  C   C89       1.0  0.6174908212069568  0.669934265857549  0.6542560636624586  1.0000
  C   C90       1.0  0.6174882042199387  0.8300609968806258  0.8457397018566796  1.0000
  C   C91       1.0  0.38253956376227904  0.33007024976726024  0.3457394809105381  1.0000
  C   C92       1.0  0.38252853483879096  0.16993151427553949  0.1542551034139876  1.0000
  C   C93       1.0  0.48120762138906054  0.6191879790867958  0.6628468104990546  1.0000
  C   C94       1.0  0.4812098106819108  0.8808098401885263  0.8371510597210517  1.0000
  C   C95       1.0  0.5188213990270542  0.3808160549821481  0.3371522499966062  1.0000
  C   C96       1.0  0.5188069283917259  0.11918635652497041  0.1628464887401009  1.0000
  C   C97       1.0  0.2998924417811751  0.6455290480421284  0.6732085189437242  1.0000
  C   C98       1.0  0.2998919006482055  0.8544720651393976  0.8267947057934322  1.0000
  C   C99       1.0  0.7001379432337629  0.35447620944155755  0.32679130313803034  1.0000
  C   C100      1.0  0.7001221092423793  0.14553204549349633  0.1732066468699642  1.0000
  C   C101      1.0  0.2539079346552597  0.721950785926488  0.6712629788761788  1.0000
  C   C102      1.0  0.2539013006081703  0.7780509579929812  0.828740284274275  1.0000
  C   C103      1.0  0.7461142628065789  0.2780514972372785  0.3287374606392888  1.0000
  C   C104      1.0  0.7461031570996896  0.22195189860370593  0.1712593899184682  1.0000
  C   C105      1.0  0.38806782131631223  0.7733387162020122  0.6627118588483398  1.0000
  C   C106      1.0  0.3880591149866888  0.7266597458647085  0.8372854753082138  1.0000
  C   C107      1.0  0.6119530114646851  0.22666149450470396  0.3372803325115825  1.0000
  C   C108      1.0  0.6119439780993191  0.27333999860281477  0.16271069039147082  1.0000
  C   C109      1.0  0.1556196414672044  0.5972649957982554  0.692075898488568  1.0000
  C   C110      1.0  0.15562369324811703  0.9027367592185416  0.8079257475080581  1.0000
  C   C111      1.0  0.8444052851631201  0.40273843422026084  0.3079230104284676  1.0000
  C   C112      1.0  0.8443903166677559  0.0972710675955284  0.1920792652203076  1.0000
  N   N1        1.0  0.8248211146416368  0.0718686698842816  0.8177885648866193  1.0000
  N   N2        1.0  0.8248056815185125  0.42812291505777733  0.6822141695531059  1.0000
  N   N3        1.0  0.175171061785349  0.9281301727215662  0.18221646639728561  1.0000
  N   N4        1.0  0.1751892240231498  0.5718781293868531  0.3177850499071297  1.0000
  N   N5        1.0  0.590655132670939  0.157339968793444  0.8499520431605845  1.0000
  N   N6        1.0  0.5906533747657223  0.3426493205115833  0.650049050358696  1.0000
  N   N7        1.0  0.4093206685898707  0.8426545688962864  0.15004963490185474  1.0000
  N   N8        1.0  0.4093524475639683  0.6573469374527506  0.3499503318379951  1.0000
  N   N9        1.0  0.8744447680927011  0.9162078284089858  0.6837184906136214  1.0000
  N   N10       1.0  0.8744409554176613  0.5837914982698466  0.8162785097612969  1.0000
  N   N11       1.0  0.12555832500143543  0.08380954073865612  0.3162852797807787  1.0000
  N   N12       1.0  0.12556213766899302  0.41620460657610187  0.1837162880596211  1.0000
  N   N13       1.0  0.7089276633326876  0.802837186760712  0.6526560070204539  1.0000
  N   N14       1.0  0.7089262750934467  0.6971598197596905  0.8473399797797967  1.0000
  N   N15       1.0  0.2910836172711058  0.1971745315532019  0.34733998110035463  1.0000
  N   N16       1.0  0.291069995034718  0.3028339148175477  0.15265558705010562  1.0000
  O   O1        1.0  0.14639685802444555  0.43257457598212323  0.7918889942839512  1.0000
  O   O2        1.0  0.14644256709178194  0.06741341925769012  0.7081183448321796  1.0000
  O   O3        1.0  0.853563932687493  0.5674151139871668  0.2081110127340864  1.0000
  O   O4        1.0  0.8535823596568549  0.9325909669865808  0.291891259714994  1.0000
  O   O5        1.0  0.9045244194523152  0.3658472989920512  0.8142627664821944  1.0000
  O   O6        1.0  0.9045662879019363  0.13413415454762403  0.6857430886476408  1.0000
  O   O7        1.0  0.09543091292719202  0.6341437522012258  0.18574212804871593  1.0000
  O   O8        1.0  0.0954572742361961  0.8658665461396995  0.3142637727073705  1.0000
  O   O9        1.0  0.21211708877713423  0.5369290227419585  0.7086708003892923  1.0000
  O   O10       1.0  0.21212431273235674  0.9630733494761119  0.7913325115182418  1.0000
  O   O11       1.0  0.7878996503117506  0.4630738950988374  0.291330707567532  1.0000
  O   O12       1.0  0.7878951555817509  0.0369375588420979  0.20867509283374372  1.0000
  O   O13       1.0  0.9916636109590018  0.6180162686911147  0.6932468090306544  1.0000
  O   O14       1.0  0.9916691865793936  0.8819841980667249  0.8067507829401136  1.0000
  O   O15       1.0  0.00835449265481  0.38198522667920554  0.306747977659299  1.0000
  O   O16       1.0  0.008347552480650201  0.11802045536930451  0.19324888755126324  1.0000
