data_image0
_chemical_formula_structural       Zn2H42C56N4O14
_chemical_formula_sum              "Zn2 H42 C56 N4 O14"
_cell_length_a       9.564704481803746
_cell_length_b       10.84592829017672
_cell_length_c       28.12808115051063
_cell_angle_alpha    89.92588580064506
_cell_angle_beta     90.23076920410868
_cell_angle_gamma    90.14811139269104

_space_group_name_H-M_alt    "P 1"
_space_group_IT_number       1

loop_
  _space_group_symop_operation_xyz
  'x, y, z'

loop_
  _atom_site_type_symbol
  _atom_site_label
  _atom_site_symmetry_multiplicity
  _atom_site_fract_x
  _atom_site_fract_y
  _atom_site_fract_z
  _atom_site_occupancy
  Zn  Zn1       1.0  0.3530132344494632  0.4996716347118026  0.500035380345814  1.0000
  Zn  Zn2       1.0  0.6468596161584443  0.5006232986277723  0.4994951623219919  1.0000
  H   H1        1.0  0.7215253256743281  0.4996679289908387  0.3464518657932771  1.0000
  H   H2        1.0  0.7189665412618779  0.49612813615823376  0.257132016746219  1.0000
  H   H3        1.0  0.7281085186355937  0.5025803567709487  0.6515052366454411  1.0000
  H   H4        1.0  0.7332162129908684  0.49683615921716756  0.7408871312555902  1.0000
  H   H5        1.0  0.4928911845279984  0.1746708694428563  0.9662432663627953  1.0000
  H   H6        1.0  0.41488614278481606  0.18671265012493882  0.032677205108989  1.0000
  H   H7        1.0  0.2734306211759118  0.4953378081883245  0.3477068644855734  1.0000
  H   H8        1.0  0.2696062652613236  0.49138328715553575  0.2583738854344304  1.0000
  H   H9        1.0  0.5898973182457254  0.7865167098102575  0.12235550700373919  1.0000
  H   H10       1.0  0.542842594387544  0.7987288611398995  0.9654371246859768  1.0000
  H   H11       1.0  0.280308160871826  0.48854037863694794  0.6533451394652374  1.0000
  H   H12       1.0  0.540767907883577  0.795038495809152  0.8777552808951653  1.0000
  H   H13       1.0  0.28409474789128103  0.48227811380203883  0.7427113881285052  1.0000
  H   H14       1.0  0.5928203624316097  0.7913786490948671  0.0340753791256247  1.0000
  H   H15       1.0  0.3210087947529773  0.10759683728053202  0.5455354052289749  1.0000
  H   H16       1.0  0.7066656804972596  0.10880363560163181  0.46801861057353733  1.0000
  H   H17       1.0  0.4815951785789068  0.10727113662931492  0.5766938248510699  1.0000
  H   H18       1.0  0.7094638183068226  0.10821189569155372  0.5305605286808586  1.0000
  H   H19       1.0  0.4819635324546638  0.8923390126076856  0.5766716627920232  1.0000
  H   H20       1.0  0.7100085945919474  0.8926925420638625  0.5302844370465323  1.0000
  H   H21       1.0  0.3213198403982176  0.8911793046566175  0.5455474370916917  1.0000
  H   H22       1.0  0.7064859406654308  0.89331929260441  0.46774917770140695  1.0000
  H   H23       1.0  0.3172472148006378  0.10817936792606991  0.4558027688043254  1.0000
  H   H24       1.0  0.4752692422179479  0.10776388781120969  0.4235966594312401  1.0000
  H   H25       1.0  0.31708022095840255  0.8917539026139422  0.4559409711159361  1.0000
  H   H26       1.0  0.474812698236363  0.8928325186699125  0.42356395304606315  1.0000
  H   H27       1.0  0.8738006059980991  0.37814457853429684  0.44136929637359396  1.0000
  H   H28       1.0  0.1225839994486506  0.377917773139295  0.44119266896361614  1.0000
  H   H29       1.0  0.8745988328539696  0.30730472296655625  0.4979841435168808  1.0000
  H   H30       1.0  0.12313730972639551  0.30678436690170235  0.4977525515086967  1.0000
  H   H31       1.0  0.8749520620563447  0.59805836946029  0.4346058043571404  1.0000
  H   H32       1.0  0.12391695260527061  0.5976207143941394  0.4345205982319413  1.0000
  H   H33       1.0  0.8772080876205877  0.5952675671053244  0.5637310912582905  1.0000
  H   H34       1.0  0.12534838488155492  0.5949901405548489  0.5635751660261619  1.0000
  H   H35       1.0  0.8766863269912052  0.43303153110196035  0.5686520258107066  1.0000
  H   H36       1.0  0.1244824086575136  0.43273989206274177  0.5686196415274267  1.0000
  H   H37       1.0  0.8763179888331579  0.6910229149108177  0.4862491029885092  1.0000
  H   H38       1.0  0.12514048369163794  0.6904430929814114  0.486180108998937  1.0000
  H   H39       1.0  0.3551626487780837  0.08291503650187342  0.0966706768656067  1.0000
  H   H40       1.0  0.461507858748007  0.11302573459162352  0.1479451470611934  1.0000
  H   H41       1.0  0.2896550895670984  0.16557514010916213  0.1469016317164034  1.0000
  H   H42       1.0  0.6252334599723781  0.03763259455926969  0.835405841484615  1.0000
  C   C1        1.0  0.4985586741594759  0.26056619109725426  0.500222870692248  1.0000
  C   C2        1.0  0.5003942615727226  0.4991352031992946  0.4056003461893027  1.0000
  C   C3        1.0  0.4991338644500872  0.7396894379220172  0.5000867498351695  1.0000
  C   C4        1.0  0.5024029259093226  0.4986621799086707  0.5939543936288416  1.0000
  C   C5        1.0  0.4588269181369142  0.37931910420089576  0.17935773853671583  1.0000
  C   C6        1.0  0.5291323081413921  0.6022472051512368  0.1788195976140159  1.0000
  C   C7        1.0  0.36813396890950406  0.4932865849583123  0.277972023608541  1.0000
  C   C8        1.0  0.37027289641379474  0.495372430557211  0.3274617466312932  1.0000
  C   C9        1.0  0.6233061628171014  0.4976893673980102  0.3267394260096951  1.0000
  C   C10       1.0  0.6218673817196745  0.49537580647395874  0.2772904018334046  1.0000
  C   C11       1.0  0.49414463776656703  0.49307485001561  0.2532455283919788  1.0000
  C   C12       1.0  0.49944252776724346  0.486824398700776  0.1015048720128178  1.0000
  C   C13       1.0  0.4620878529713367  0.37751609039787587  0.1267037326967682  1.0000
  C   C14       1.0  0.4286545976281105  0.2693406926898875  0.1014354118761247  1.0000
  C   C15       1.0  0.5308132300912618  0.5972272172874185  0.1264099267370185  1.0000
  C   C16       1.0  0.4977024944245939  0.4974991302313399  0.3521941842650591  1.0000
  C   C17       1.0  0.5040307607223369  0.4955844933469822  0.647384023005209  1.0000
  C   C18       1.0  0.4978134254727564  0.3729472344575768  0.9740002103244975  1.0000
  C   C19       1.0  0.5290749579190788  0.6008197260537429  0.9738672726470482  1.0000
  C   C20       1.0  0.5149139081913959  0.4865717307931592  0.9490378071085388  1.0000
  C   C21       1.0  0.49859002414655873  0.26325266616322557  0.9480767399417047  1.0000
  C   C22       1.0  0.5073526793735185  0.2615119679363715  0.8982886588271555  1.0000
  C   C23       1.0  0.5085126457508694  0.3724912802570017  0.8729332851559235  1.0000
  C   C24       1.0  0.516485089841467  0.48554384711332693  0.8981931096683269  1.0000
  C   C25       1.0  0.5273183055354452  0.5986058956836261  0.8730672151711901  1.0000
  C   C26       1.0  0.5315758752671372  0.6015129845409318  0.8206018813750902  1.0000
  C   C27       1.0  0.49243091678831524  0.3732077512024219  0.8205381298670887  1.0000
  C   C28       1.0  0.6345623183725166  0.4944560622159386  0.7213669301745115  1.0000
  C   C29       1.0  0.6317306422320925  0.49786818047653714  0.6719237496901158  1.0000
  C   C30       1.0  0.378771638707711  0.4900803215693941  0.6729433881514737  1.0000
  C   C31       1.0  0.3808286004790347  0.48675111514054953  0.7224336492452821  1.0000
  C   C32       1.0  0.5089311038236987  0.4888892378805778  0.7462349763171332  1.0000
  C   C33       1.0  0.48097964006145594  0.3753246448426638  0.025692330020312702  1.0000
  C   C34       1.0  0.5053006662300631  0.4877715615665608  0.0506800025699405  1.0000
  C   C35       1.0  0.534524961326028  0.5998446447308085  0.0258560037814846  1.0000
  C   C36       1.0  0.440669771491919  0.27158819317074995  0.051536013173148404  1.0000
  C   C37       1.0  0.564953283180735  0.7042072235607009  0.101739563612  1.0000
  C   C38       1.0  0.5368548544965253  0.7100156798866452  0.947460379770142  1.0000
  C   C39       1.0  0.5357526975244867  0.7091112873418978  0.8978343732240289  1.0000
  C   C40       1.0  0.5659890282775706  0.7057895640375805  0.0521844484326692  1.0000
  C   C41       1.0  0.4280169671455951  0.07110015279701541  0.5449222619205045  1.0000
  C   C42       1.0  0.653088375105199  0.07180250785905433  0.4994647982665228  1.0000
  C   C43       1.0  0.4282350317420693  0.9283692538486861  0.5449150220477108  1.0000
  C   C44       1.0  0.6532140071333642  0.9294024216078685  0.49933989937003526  1.0000
  C   C45       1.0  0.4242155549103899  0.07152711310666862  0.4557239949402856  1.0000
  C   C46       1.0  0.5023608179775606  0.12030254551984143  0.5000670818794646  1.0000
  C   C47       1.0  0.5025744943765602  0.8799919761796037  0.5000256925126436  1.0000
  C   C48       1.0  0.42411983391721736  0.9287248203769851  0.4557394105769603  1.0000
  C   C49       1.0  0.9180141745551539  0.3841191513929162  0.4773679437003863  1.0000
  C   C50       1.0  0.07973980755934211  0.3838398444212885  0.4772649216185272  1.0000
  C   C51       1.0  0.9190875491505326  0.6067296652412324  0.47052667636106094  1.0000
  C   C52       1.0  0.08094475697982523  0.6063933952145676  0.4704743782741545  1.0000
  C   C53       1.0  0.919943025434229  0.5105208355439004  0.5483473262202949  1.0000
  C   C54       1.0  0.08134867853473791  0.510272484372635  0.5482935539841094  1.0000
  C   C55       1.0  0.38113190301362476  0.15111843067504793  0.12415970713376372  1.0000
  C   C56       1.0  0.5141736283042277  0.13583785857732522  0.8758442741565347  1.0000
  N   N1        1.0  0.49333471280078817  0.49183796352235026  0.2019240062378387  1.0000
  N   N2        1.0  0.5128730206087511  0.4872969227366255  0.7975776611103811  1.0000
  N   N3        1.0  0.8657074985683907  0.5005654737456737  0.4988412080914912  1.0000
  N   N4        1.0  0.1340154652927907  0.5000001614016868  0.498748885979488  1.0000
  O   O1        1.0  0.3790157616825169  0.3117918576478687  0.5004638842460949  1.0000
  O   O2        1.0  0.615432091396947  0.31682923070932395  0.5001119602105746  1.0000
  O   O3        1.0  0.38276725369674847  0.4997966578390845  0.42676258730377004  1.0000
  O   O4        1.0  0.6200912585402208  0.4995267622722111  0.42557901207320736  1.0000
  O   O5        1.0  0.37971552776054546  0.6876351391357362  0.5008304143773188  1.0000
  O   O6        1.0  0.6161778143628426  0.6842328124562799  0.499353649456765  1.0000
  O   O7        1.0  0.3834535192977384  0.49845665582130044  0.5734964948627522  1.0000
  O   O8        1.0  0.6204884937075406  0.5009990829439348  0.5733460895245343  1.0000
  O   O9        1.0  0.42937992047084345  0.2888352721716032  0.20389292301528877  1.0000
  O   O10       1.0  0.46048558142417323  0.2805853434293795  0.7977456634210398  1.0000
  O   O11       1.0  0.5570814018626321  0.6961966020151567  0.20150046870301  1.0000
  O   O12       1.0  0.5483963060425979  0.6969544128162327  0.7976159965668472  1.0000
  O   O13       1.0  0.4293686437604337  0.054136292432282594  0.8840268018839055  1.0000
  O   O14       1.0  0.6320400862472867  0.11936730246117833  0.8501829615593551  1.0000
