data_image0
_chemical_formula_structural       ZnH14C14N12O6
_chemical_formula_sum              "Zn1 H14 C14 N12 O6"
_cell_length_a       7.285299493729464
_cell_length_b       7.892642080323094
_cell_length_c       9.083964353800406
_cell_angle_alpha    93.56792471471522
_cell_angle_beta     96.51321444871667
_cell_angle_gamma    115.05323788763373

_space_group_name_H-M_alt    "P 1"
_space_group_IT_number       1

loop_
  _space_group_symop_operation_xyz
  'x, y, z'

loop_
  _atom_site_type_symbol
  _atom_site_label
  _atom_site_symmetry_multiplicity
  _atom_site_fract_x
  _atom_site_fract_y
  _atom_site_fract_z
  _atom_site_occupancy
  Zn  Zn1       1.0  5.018704740999999e-07  3.4907102702000007e-06  2.5424248520000004e-06  1.0000
  H   H1        1.0  0.3678545393157576  0.0986513984077106  0.0879011534453653  1.0000
  H   H2        1.0  0.6321450271239044  0.901346858841542  0.9121000483465594  1.0000
  H   H3        1.0  0.36654981569905243  0.29838355098254976  0.05958284124565694  1.0000
  H   H4        1.0  0.6334510799760339  0.7016147089979727  0.9404217980704034  1.0000
  H   H5        1.0  0.09767552606123794  0.58079241694292  0.291665214375179  1.0000
  H   H6        1.0  0.9023235052168347  0.4192016316086012  0.7083335167548485  1.0000
  H   H7        1.0  0.12018665366363021  0.4850679585359429  0.112610806830979  1.0000
  H   H8        1.0  0.8798165778777617  0.5149261334342939  0.8873861498999035  1.0000
  H   H9        1.0  0.7007280866397565  0.8526149297521928  0.669049876910812  1.0000
  H   H10       1.0  0.2992700513781443  0.14738612751901306  0.330949121167258  1.0000
  H   H11       1.0  0.29526022126210444  0.9364008013858792  0.824102964440023  1.0000
  H   H12       1.0  0.704739405717156  0.06359464670562431  0.17589920117280403  1.0000
  H   H13       1.0  0.3123408593174234  0.7845624995181454  0.5762297379347459  1.0000
  H   H14       1.0  0.6876626265804405  0.2154470313762999  0.42376803180560785  1.0000
  C   C1        1.0  0.21306928894165386  0.7871561656294193  0.14499427645822044  1.0000
  C   C2        1.0  0.7869275803804143  0.21284207975276104  0.8550022479166233  1.0000
  C   C3        1.0  0.19372646114042874  0.6026777082179463  0.2028536418671223  1.0000
  C   C4        1.0  0.8062753033324698  0.39731917736971684  0.7971433087811024  1.0000
  C   C5        1.0  0.6692707342943577  0.6692349781235477  0.3920243137594427  1.0000
  C   C6        1.0  0.33073083180588714  0.33076751297055296  0.6079751045093504  1.0000
  C   C7        1.0  0.8444858088516085  0.7451469381996535  0.5127686361796365  1.0000
  C   C8        1.0  0.1555150043910274  0.25485694650090107  0.4872318778634225  1.0000
  C   C9        1.0  0.835610618253625  0.832943904356796  0.6491935387859584  1.0000
  C   C10       1.0  0.1643874836870438  0.16705432774534054  0.35081191719099547  1.0000
  C   C11       1.0  0.16430446619985875  0.8792729617733032  0.7353840160906415  1.0000
  C   C12       1.0  0.8356971604399774  0.12072672016304863  0.26461636599906063  1.0000
  C   C13       1.0  0.17321518344625292  0.7953287144476848  0.5980472224505746  1.0000
  C   C14       1.0  0.8267849761250902  0.20467376110609348  0.40195315355646954  1.0000
  N   N1        1.0  0.5025907913546492  0.702536961201368  0.3911028682082646  1.0000
  N   N2        1.0  0.4974135878033862  0.29746556097339294  0.6088946345840399  1.0000
  N   N3        1.0  0.38899176848375566  0.6068569051731957  0.26286867385531565  1.0000
  N   N4        1.0  0.6110113033317077  0.3931427987080127  0.7371285528649452  1.0000
  N   N5        1.0  0.4772323258425075  0.5177586506834403  0.18758466803495824  1.0000
  N   N6        1.0  0.5227693806602929  0.4822382252974293  0.8124155790600514  1.0000
  N   N7        1.0  0.6542824130324689  0.5549946024251754  0.2681728249495663  1.0000
  N   N8        1.0  0.34572337522395463  0.4450051165253656  0.731827980372181  1.0000
  N   N9        1.0  0.9948775007962855  0.896863968586864  0.7606855235610156  1.0000
  N   N10       1.0  0.0051192525855797005  0.10313425758173621  0.23931759370739775  1.0000
  N   N11       1.0  0.013846452339947716  0.7258847086664064  0.48761740118906266  1.0000
  N   N12       1.0  0.9861577477687932  0.27412342221706615  0.512381470408215  1.0000
  O   O1        1.0  0.0539514273668545  0.7691027340765332  0.05822389930514762  1.0000
  O   O2        1.0  0.9460462141361887  0.23089412090146766  0.9417704304798351  1.0000
  O   O3        1.0  0.3736469436507903  0.9365549474859023  0.18913724513274843  1.0000
  O   O4        1.0  0.6263477083146753  0.0634446663556076  0.8108646292013973  1.0000
  O   O5        1.0  0.3176510750854717  0.1663154569559637  0.014450175563723603  1.0000
  O   O6        1.0  0.6823470848252953  0.8336827847529593  0.9855519839664453  1.0000
