data_image0
_chemical_formula_structural       Mn6H12C36O18
_chemical_formula_sum              "Mn6 H12 C36 O18"
_cell_length_a       7.014228558110455
_cell_length_b       17.28253899363878
_cell_length_c       17.280877856571443
_cell_angle_alpha    118.20519177075623
_cell_angle_beta     97.81531173052826
_cell_angle_gamma    97.75498752774921

_space_group_name_H-M_alt    "P 1"
_space_group_IT_number       1

loop_
  _space_group_symop_operation_xyz
  'x, y, z'

loop_
  _atom_site_type_symbol
  _atom_site_label
  _atom_site_symmetry_multiplicity
  _atom_site_fract_x
  _atom_site_fract_y
  _atom_site_fract_z
  _atom_site_occupancy
  Mn  Mn1       1.0  0.7342055534947531  0.592593097369445  0.31708899152433645  1.0000
  Mn  Mn2       1.0  0.14181187029078038  0.724460934242657  0.4076182122392781  1.0000
  Mn  Mn3       1.0  0.41724862475692953  0.6830474101226544  0.2757465559414812  1.0000
  Mn  Mn4       1.0  0.2657920765279512  0.40741033513651814  0.6829113889502808  1.0000
  Mn  Mn5       1.0  0.8581901694575366  0.2755398007294192  0.5923805621831876  1.0000
  Mn  Mn6       1.0  0.5827468870183806  0.316954673843675  0.7242542267409036  1.0000
  H   H1        1.0  0.009848954756499474  0.6003665809463854  0.034233428062300834  1.0000
  H   H2        1.0  0.40935777422080827  0.433527241620098  0.3997072873408598  1.0000
  H   H3        1.0  0.9761468363930488  0.9662296610744648  0.5664878926717236  1.0000
  H   H4        1.0  0.9901518215704286  0.39962875929591496  0.9657638857178696  1.0000
  H   H5        1.0  0.5906398438441156  0.5664761914105869  0.6002959860891082  1.0000
  H   H6        1.0  0.0238566280496997  0.0337710745389685  0.4335144337117782  1.0000
  H   H7        1.0  0.7519677906649491  0.5095118992930309  0.8917183689494692  1.0000
  H   H8        1.0  0.24203698135391244  0.3819749534657149  0.49046015144562466  1.0000
  H   H9        1.0  0.860144871169602  0.1085256701284791  0.6180341687943169  1.0000
  H   H10       1.0  0.248033747893686  0.49048209232806533  0.10827892927662934  1.0000
  H   H11       1.0  0.7579492265213827  0.6180257814827713  0.5095383170071913  1.0000
  H   H12       1.0  0.1398704428335619  0.89147573994736  0.3819691381859514  1.0000
  C   C1        1.0  0.9855245767899418  0.643638641768419  0.19938048254882548  1.0000
  C   C2        1.0  0.34242360006559375  0.55569009962241  0.3566852075252455  1.0000
  C   C3        1.0  0.7868946570686857  0.800965937181445  0.4444829531740524  1.0000
  C   C4        1.0  0.01447678375475191  0.35636074467571893  0.800618774496023  1.0000
  C   C5        1.0  0.6575742127541631  0.444307937850617  0.6433120569484743  1.0000
  C   C6        1.0  0.21310593167807915  0.19903479830367837  0.5555186337891556  1.0000
  C   C7        1.0  0.8186961280470868  0.5958296101870105  0.12006017182704205  1.0000
  C   C8        1.0  0.22313580475056938  0.5240968360064927  0.40429245277828585  1.0000
  C   C9        1.0  0.6992627393916206  0.8802212681861973  0.4759547292200565  1.0000
  C   C10       1.0  0.1813024446128181  0.40416707876975977  0.8799376556836692  1.0000
  C   C11       1.0  0.7768587025686386  0.47590322453823564  0.5957055822912453  1.0000
  C   C12       1.0  0.3007409624924122  0.11978283967993518  0.5240515175125182  1.0000
  C   C13       1.0  0.6239538840577266  0.5669684090555052  0.12463626898757953  1.0000
  C   C14       1.0  0.057118072348622206  0.557554822603585  0.4330237886171773  1.0000
  C   C15       1.0  0.49964043885810133  0.8754785962548725  0.442556767742957  1.0000
  C   C16       1.0  0.37604579043568975  0.43302760554403363  0.8753613016578613  1.0000
  C   C17       1.0  0.9428743310725308  0.44244388877184093  0.5669711771137003  1.0000
  C   C18       1.0  0.5003621635839792  0.12452618586354454  0.557449157263811  1.0000
  C   C19       1.0  0.8595812481436622  0.5751498848348574  0.03481445323733104  1.0000
  C   C20       1.0  0.28445456778835165  0.4594632751626548  0.4249428869147138  1.0000
  C   C21       1.0  0.8252421941730004  0.965520606207207  0.5405378350349893  1.0000
  C   C22       1.0  0.1404209648354779  0.42484545552407843  0.965183519548525  1.0000
  C   C23       1.0  0.7155399299646344  0.5405367858018622  0.5750574625191051  1.0000
  C   C24       1.0  0.17476625703845627  0.03448147838901859  0.4594665643342424  1.0000
  C   C25       1.0  0.7176734724624224  0.5244238464033658  0.9561421282841992  1.0000
  C   C26       1.0  0.19308180640413747  0.4315670676518479  0.47560222743189945  1.0000
  C   C27       1.0  0.7616475228424661  0.044065120833984416  0.5684133989329253  1.0000
  C   C28       1.0  0.28233127900244875  0.47557081971496734  0.04385624664207208  1.0000
  C   C29       1.0  0.8069001817172533  0.5684309694827547  0.5243929952989603  1.0000
  C   C30       1.0  0.23836525267497405  0.9559369634824577  0.4315895059069348  1.0000
  C   C31       1.0  0.5242598141264307  0.4893443259250887  0.9578584806902342  1.0000
  C   C32       1.0  0.03488587841342649  0.46851573560800125  0.5106797085829414  1.0000
  C   C33       1.0  0.5664162526014067  0.0421720929627583  0.5314382509534566  1.0000
  C   C34       1.0  0.4757463739906596  0.5106503403098728  0.042140553241715444  1.0000
  C   C35       1.0  0.9651000920205773  0.5314816270877856  0.4893148395208017  1.0000
  C   C36       1.0  0.4335939772556329  0.9578306659091212  0.4685659875191988  1.0000
  O   O1        1.0  0.15931068948565744  0.6642056504233977  0.18980092625653106  1.0000
  O   O2        1.0  0.4957629328009431  0.5255863091017474  0.336273954338779  1.0000
  O   O3        1.0  0.9702937700130931  0.8105893867219295  0.47471742740349043  1.0000
  O   O4        1.0  0.8406910178355174  0.3357944099698714  0.8101963537039154  1.0000
  O   O5        1.0  0.5042400994456954  0.4744164498166512  0.663730460651891  1.0000
  O   O6        1.0  0.029708692365112203  0.18940932536497002  0.5252815727760877  1.0000
  O   O7        1.0  0.9537632021528496  0.6616434891323237  0.27786280631116983  1.0000
  O   O8        1.0  0.29262688789614083  0.6161980272164699  0.3386990142641935  1.0000
  O   O9        1.0  0.6766046573741488  0.7224744443420335  0.3839425856371718  1.0000
  O   O10       1.0  0.04623917002260917  0.3383579204185665  0.7221374625733219  1.0000
  O   O11       1.0  0.7073699228590654  0.3837979867300235  0.6612949240056026  1.0000
  O   O12       1.0  0.32338907575557824  0.2775269653486347  0.6160583579417888  1.0000
  O   O13       1.0  0.5688207654440587  0.5880783491825666  0.20232117607309874  1.0000
  O   O14       1.0  0.9809614081478129  0.6141357392412914  0.4118728367333446  1.0000
  O   O15       1.0  0.3668486274434883  0.7977181700522352  0.38612544667331156  1.0000
  O   O16       1.0  0.4311780613980145  0.41192171129227256  0.7976765216491942  1.0000
  O   O17       1.0  0.019040543789316237  0.38586769308982843  0.5881266278029643  1.0000
  O   O18       1.0  0.6331571950794981  0.20228728624858408  0.6138798192604185  1.0000
