data_image0
_chemical_formula_structural       CuSiH12C16N4F6
_chemical_formula_sum              "Cu1 Si1 H12 C16 N4 F6"
_cell_length_a       8.192709872845956
_cell_length_b       8.999472090237418
_cell_length_c       8.999417140568385
_cell_angle_alpha    88.53763415773804
_cell_angle_beta     79.81105144440744
_cell_angle_gamma    79.8111263246963

_space_group_name_H-M_alt    "P 1"
_space_group_IT_number       1

loop_
  _space_group_symop_operation_xyz
  'x, y, z'

loop_
  _atom_site_type_symbol
  _atom_site_label
  _atom_site_symmetry_multiplicity
  _atom_site_fract_x
  _atom_site_fract_y
  _atom_site_fract_z
  _atom_site_occupancy
  Cu  Cu1       1.0  0.5000023301760664  0.4999962975351551  0.49999571831309453  1.0000
  Si  Si1       1.0  7.416118066307002e-06  0.49999291136023055  0.5000054008800703  1.0000
  H   H1        1.0  0.2822680774289523  0.49964292388979464  0.2747634917434141  1.0000
  H   H2        1.0  0.7946691917162385  0.500377669238304  0.2488225947910508  1.0000
  H   H3        1.0  0.8446175955476178  0.4998536868390601  0.9643389550244594  1.0000
  H   H4        1.0  0.7177335545512025  0.5003587212036392  0.7252337255547658  1.0000
  H   H5        1.0  0.2053305043319256  0.49962061588727374  0.7511816659991268  1.0000
  H   H6        1.0  0.1553866228478356  0.5001468328600538  0.03566568170009531  1.0000
  H   H7        1.0  0.2822868019208401  0.274759342387135  0.49957724922229835  1.0000
  H   H8        1.0  0.79467550277343  0.2488167315238883  0.500348941686525  1.0000
  H   H9        1.0  0.8446120395573544  0.9643324152928653  0.49985507379446403  1.0000
  H   H10       1.0  0.7177207898254212  0.7252320755783968  0.5003971084619963  1.0000
  H   H11       1.0  0.20532657800316664  0.7511837493328315  0.4996315688312052  1.0000
  H   H12       1.0  0.15539262674315074  0.03566127585038  0.500120776308549  1.0000
  C   C1        1.0  0.4042209732338408  0.5000074752681131  0.20325108600479072  1.0000
  C   C2        1.0  0.6931777008424265  0.5001577102153476  0.1853803168100754  1.0000
  C   C3        1.0  0.7193288425378699  0.5000153457082843  0.030095357618193878  1.0000
  C   C4        1.0  0.5809832678923642  0.49993647937883157  0.9557478756882674  1.0000
  C   C5        1.0  0.5957847627674867  0.49999189961547325  0.7967489070427194  1.0000
  C   C6        1.0  0.30682818601908934  0.4998405450905494  0.8146241271386714  1.0000
  C   C7        1.0  0.2806742286438819  0.49998516632200557  0.9699027838139215  1.0000
  C   C8        1.0  0.41902348014333785  0.5000640204007921  0.044253048188252826  1.0000
  C   C9        1.0  0.4042143622713257  0.2032671020618224  0.49996186863870673  1.0000
  C   C10       1.0  0.6931752913636656  0.18539259804630598  0.5001322679247766  1.0000
  C   C11       1.0  0.7193352059301646  0.030074990587294802  0.5000142604918523  1.0000
  C   C12       1.0  0.5809701034767658  0.9557603040395645  0.49994190106928477  1.0000
  C   C13       1.0  0.5957796613231069  0.7967367996369034  0.5000175412815935  1.0000
  C   C14       1.0  0.3068242754535362  0.8146079003794212  0.49985084187878936  1.0000
  C   C15       1.0  0.2806779926536791  0.9699186790224844  0.49997142266803263  1.0000
  C   C16       1.0  0.4190278595991261  0.04422892624283039  0.5000428470632698  1.0000
  N   N1        1.0  0.5363654484813339  0.4999490788392933  0.26987459893967986  1.0000
  N   N2        1.0  0.46363702215239044  0.5000480526862604  0.7301237185305354  1.0000
  N   N3        1.0  0.5363813707494813  0.2698741499061866  0.49990701931056253  1.0000
  N   N4        1.0  0.46362855362566796  0.7301240390881176  0.5000745951521424  1.0000
  F   F1        1.0  0.2065144928646063  0.5136802076997711  0.5137073673403165  1.0000
  F   F2        1.0  0.7935004318517401  0.48631575636110114  0.4863013351592542  1.0000
  F   F3        1.0  2.972176407917059e-05  0.6360828737454439  0.36390824242027975  1.0000
  F   F4        1.0  0.9999829105261784  0.36389955184314715  0.6360933692963827  1.0000
  F   F5        1.0  0.07296906316338446  0.3636719598054299  0.3636840692621917  1.0000
  F   F6        1.0  0.9270469294709968  0.6363183593574957  0.6363246164996995  1.0000
