data_image0
_chemical_formula_structural       Mg2H16C16O16
_chemical_formula_sum              "Mg2 H16 C16 O16"
_cell_length_a       6.927736228893825
_cell_length_b       8.17602695597615
_cell_length_c       9.328142570965667
_cell_angle_alpha    63.99339699247096
_cell_angle_beta     82.6745799817038
_cell_angle_gamma    73.08980774635928

_space_group_name_H-M_alt    "P 1"
_space_group_IT_number       1

loop_
  _space_group_symop_operation_xyz
  'x, y, z'

loop_
  _atom_site_type_symbol
  _atom_site_label
  _atom_site_symmetry_multiplicity
  _atom_site_fract_x
  _atom_site_fract_y
  _atom_site_fract_z
  _atom_site_occupancy
  Mg  Mg1       1.0  0.2500586826896195  0.3101944098987063  0.3795671476987224  1.0000
  Mg  Mg2       1.0  0.7499416160655556  0.689803307460217  0.620433115649206  1.0000
  H   H1        1.0  0.7980726181869996  0.3322581386369309  0.9239998843853455  1.0000
  H   H2        1.0  0.7020148449003399  0.7437668035281176  0.9239969921272503  1.0000
  H   H3        1.0  0.2019264005872116  0.6677357903441392  0.076008315171535  1.0000
  H   H4        1.0  0.2979830276585815  0.2562410872184913  0.0759917935540741  1.0000
  H   H5        1.0  0.1353202293293093  0.9960234360406875  0.6623642176798584  1.0000
  H   H6        1.0  0.3645248068045531  0.3417809584102328  0.6623083683458617  1.0000
  H   H7        1.0  0.8646885413069256  0.003972607239369085  0.33764341968633  1.0000
  H   H8        1.0  0.6354736993383553  0.658230752758087  0.3376794616118843  1.0000
  H   H9        1.0  0.9072757091528557  0.49412174916459867  0.21298324702867438  1.0000
  H   H10       1.0  0.5928187546197634  0.2930137523442653  0.21285515266676214  1.0000
  H   H11       1.0  0.09272399230414397  0.5058786285552941  0.7870115744460193  1.0000
  H   H12       1.0  0.4071873042772935  0.7069758649985476  0.7871531788131847  1.0000
  H   H13       1.0  0.9684567719087057  0.28892634040403925  0.22521492643088695  1.0000
  H   H14       1.0  0.531704394265745  0.4858063040953696  0.2253366004193112  1.0000
  H   H15       1.0  0.031551383286440964  0.7110691228456506  0.7747904678604769  1.0000
  H   H16       1.0  0.4682985988034286  0.5141885860829734  0.7746622753837472  1.0000
  C   C1        1.0  0.9488585550229517  0.2630470548385304  0.6656091005533966  1.0000
  C   C2        1.0  0.5511434609412335  0.07145477595246766  0.6656295175557716  1.0000
  C   C3        1.0  0.051145230172799795  0.7369455723470325  0.33439903933457066  1.0000
  C   C4        1.0  0.44884860309473135  0.9285525737666591  0.33435973012261405  1.0000
  C   C5        1.0  0.9713985506902888  0.1270785873837922  0.8377861248399797  1.0000
  C   C6        1.0  0.5285473319824163  0.03513108255653209  0.8377985045760425  1.0000
  C   C7        1.0  0.02860212562641334  0.872917764450634  0.16222391546357082  1.0000
  C   C8        1.0  0.4714478160243374  0.9648742347184086  0.16219699998082868  1.0000
  C   C9        1.0  0.8864979704850168  0.18703452102699464  0.9564723011651708  1.0000
  C   C10       1.0  0.6136384521684162  0.856478394863622  0.9565101344258692  1.0000
  C   C11       1.0  0.11350395557448668  0.8129602185330357  0.04353513426010385  1.0000
  C   C12       1.0  0.38635525126714043  0.14352813731751013  0.043484152797596196  1.0000
  C   C13       1.0  0.08527611917589423  0.9374266811417871  0.8833041428339997  1.0000
  C   C14       1.0  0.4146825008420689  0.17925893778937765  0.8832855127562879  1.0000
  C   C15       1.0  0.9147253862709236  0.0625678757560735  0.11670487172813183  1.0000
  C   C16       1.0  0.5853097822128319  0.8207531298197354  0.11670329206923216  1.0000
  O   O1        1.0  0.051030907386895245  0.19965993509011076  0.5656156658919542  1.0000
  O   O2        1.0  0.44894636996797027  0.2348191769941649  0.56560172217781  1.0000
  O   O3        1.0  0.9489753765767334  0.800335480273148  0.4343911564689905  1.0000
  O   O4        1.0  0.5510564880314278  0.7651921298469305  0.43438656098173567  1.0000
  O   O5        1.0  0.8384428707010229  0.42832547366653984  0.6235150466101658  1.0000
  O   O6        1.0  0.6614279799217472  0.9481821713761676  0.6236719985889038  1.0000
  O   O7        1.0  0.1615588658599947  0.571675961382212  0.3764913925668266  1.0000
  O   O8        1.0  0.3385542899187541  0.0518155031308325  0.376325275143131  1.0000
  O   O9        1.0  0.16650229274396353  0.8733543917131074  0.7692033751438387  1.0000
  O   O10       1.0  0.3333720054032411  0.3574745689157198  0.7691292131675311  1.0000
  O   O11       1.0  0.8335023329594475  0.12664461352326847  0.2308054986999508  1.0000
  O   O12       1.0  0.6666208991403832  0.6425391588542129  0.23086076846668394  1.0000
  O   O13       1.0  0.026059871128133155  0.39128665178526495  0.21387842848657365  1.0000
  O   O14       1.0  0.47404839283257144  0.3949325530693813  0.2138156608025099  1.0000
  O   O15       1.0  0.9739443588708522  0.6087104785842643  0.786123867200004  1.0000
  O   O16       1.0  0.525958514055226  0.6050524970017577  0.786184553908079  1.0000
