data_image0
_chemical_formula_structural       Co2H22C34N6O8
_chemical_formula_sum              "Co2 H22 C34 N6 O8"
_cell_length_a       7.6525298543019575
_cell_length_b       9.075451690767263
_cell_length_c       10.229975324914449
_cell_angle_alpha    89.74287466681812
_cell_angle_beta     96.9924860549277
_cell_angle_gamma    90.571657353785

_space_group_name_H-M_alt    "P 1"
_space_group_IT_number       1

loop_
  _space_group_symop_operation_xyz
  'x, y, z'

loop_
  _atom_site_type_symbol
  _atom_site_label
  _atom_site_symmetry_multiplicity
  _atom_site_fract_x
  _atom_site_fract_y
  _atom_site_fract_z
  _atom_site_occupancy
  Co  Co1       1.0  0.6956313071238613  0.7484344821004499  0.20266914773537792  1.0000
  Co  Co2       1.0  0.2021968666020015  0.25130105044547685  0.6999386257868992  1.0000
  H   H1        1.0  0.950012843811088  0.09387338835635009  0.49603160115084677  1.0000
  H   H2        1.0  0.4491749495671655  0.9103537548100815  0.9984842116227384  1.0000
  H   H3        1.0  0.47580834923294907  0.22766630304791138  0.535942065234984  1.0000
  H   H4        1.0  0.9690861578399038  0.7694430227107815  0.037424630040931085  1.0000
  H   H5        1.0  0.5363499367336716  0.07447426581708069  0.3466513949513796  1.0000
  H   H6        1.0  0.0348901569156084  0.9213277186926799  0.8469331518248281  1.0000
  H   H7        1.0  0.6698938768618348  0.580600078433214  0.9467534089845059  1.0000
  H   H8        1.0  0.16951280027397786  0.42134252824374824  0.4428901633737823  1.0000
  H   H9        1.0  0.7345108982605882  0.3202367688013723  0.8953306443659345  1.0000
  H   H10       1.0  0.22349567130637382  0.6847368621892969  0.3907484223484872  1.0000
  H   H11       1.0  0.7915190422046906  0.1380805536999929  0.08247958655577035  1.0000
  H   H12       1.0  0.27994202854803524  0.8664263627882816  0.5777227791832189  1.0000
  H   H13       1.0  0.7759118792519147  0.22395092325646704  0.31028339197275295  1.0000
  H   H14       1.0  0.27270397286810794  0.7768969836819082  0.8060506514820959  1.0000
  H   H15       1.0  0.7540420792362144  0.32019819883414863  0.5038973185466844  1.0000
  H   H16       1.0  0.25086342167325887  0.67923526977426  0.9991046907003137  1.0000
  H   H17       1.0  0.7443618154432059  0.45927863668656227  0.7091249493946421  1.0000
  H   H18       1.0  0.24062406676390682  0.5385133644152659  0.2048421143019468  1.0000
  H   H19       1.0  0.7013465773865663  0.7368688371328316  0.695427836433332  1.0000
  H   H20       1.0  0.2035610999465405  0.2597178038913199  0.19211726227185008  1.0000
  H   H21       1.0  0.6776848559198713  0.859030604532272  0.47716106912059786  1.0000
  H   H22       1.0  0.18679360740952694  0.13816027372347858  0.9748413337669889  1.0000
  C   C1        1.0  0.9550607370967298  0.9031649099719273  0.2911108013993484  1.0000
  C   C2        1.0  0.460538988883009  0.09909814165809647  0.7905151216332698  1.0000
  C   C3        1.0  0.10077670799386601  0.001783292034403399  0.3505431624484459  1.0000
  C   C4        1.0  0.6027527986387043  0.9998353946380406  0.8517231653405802  1.0000
  C   C5        1.0  0.0778543041256796  0.09000313229233828  0.45875630017627606  1.0000
  C   C6        1.0  0.5768743809394153  0.9127112017089867  0.9609576157558593  1.0000
  C   C7        1.0  0.37107317114936217  0.16452416237877532  0.48034270301126725  1.0000
  C   C8        1.0  0.8667740979097618  0.8341081205869898  0.9819401548340138  1.0000
  C   C9        1.0  0.40354392792625055  0.07878217023085908  0.37433547233501224  1.0000
  C   C10       1.0  0.9022136216447125  0.9188846368932102  0.8750747173275356  1.0000
  C   C11       1.0  0.2687032073827922  0.9926687170225319  0.3083158584258143  1.0000
  C   C12       1.0  0.7706373463086892  0.006395927441431599  0.8087787524901772  1.0000
  C   C13       1.0  0.3097132438320784  0.897986411600044  0.19497479423402808  1.0000
  C   C14       1.0  0.8139028067135571  0.1000253691997983  0.6943118403682504  1.0000
  C   C15       1.0  0.6966871362289312  0.4993669478044679  0.02486966085464099  1.0000
  C   C16       1.0  0.19529744766566637  0.5024835708248999  0.5209312918606912  1.0000
  C   C17       1.0  0.7326208985992011  0.3540808777252665  0.9970048213525471  1.0000
  C   C18       1.0  0.22554088690701246  0.6495874934950763  0.4926457502638186  1.0000
  C   C19       1.0  0.7625762851822985  0.2528080507482571  0.10027401797265159  1.0000
  C   C20       1.0  0.2547857770724562  0.7504639383959811  0.595810869187062  1.0000
  C   C21       1.0  0.7548111881276544  0.30109488154091213  0.2281378435987094  1.0000
  C   C22       1.0  0.25161209157997894  0.7002093331334719  0.723974883384038  1.0000
  C   C23       1.0  0.7224575829757356  0.44930101001322226  0.2505285335311243  1.0000
  C   C24       1.0  0.22387809881229973  0.5506691550864957  0.7466304931182748  1.0000
  C   C25       1.0  0.7192932128234234  0.5149318312713403  0.3797121930623604  1.0000
  C   C26       1.0  0.22277512456410162  0.48398971754181724  0.8760415827593205  1.0000
  C   C27       1.0  0.735577388957232  0.4391755209578605  0.499560629848709  1.0000
  C   C28       1.0  0.23541563893355294  0.5596577578944417  0.9954111468197481  1.0000
  C   C29       1.0  0.7301533517932838  0.5179996431210226  0.6154793462354249  1.0000
  C   C30       1.0  0.22957921408758616  0.4799295866681419  0.1114991075408156  1.0000
  C   C31       1.0  0.7070849413467429  0.6701250879912308  0.6079413984877604  1.0000
  C   C32       1.0  0.2101233595132754  0.32712042230897953  0.10460562400874808  1.0000
  C   C33       1.0  0.6923785342577702  0.7400618573201284  0.4855618608724939  1.0000
  C   C34       1.0  0.1993648139070245  0.2574577246693153  0.9827275106029276  1.0000
  N   N1        1.0  0.21187106890396737  0.16730420812518076  0.5258141224405365  1.0000
  N   N2        1.0  0.707876324520413  0.8337181639335822  0.0281421812272526  1.0000
  N   N3        1.0  0.6945887552366229  0.549147236260751  0.1490884629731966  1.0000
  N   N4        1.0  0.1973253929687999  0.4510000822185488  0.6453941428269658  1.0000
  N   N5        1.0  0.7002625853818857  0.6641230929979397  0.3739349224729978  1.0000
  N   N6        1.0  0.2073294414582918  0.3342746340079685  0.8709327037208325  1.0000
  O   O1        1.0  0.7934352764427645  0.944952713823419  0.2796499747572341  1.0000
  O   O2        1.0  0.2978396801007435  0.05704328733001058  0.7776699600414291  1.0000
  O   O3        1.0  0.9936283297493491  0.7756499578530621  0.2546098449354517  1.0000
  O   O4        1.0  0.5028192072325126  0.22649598072386107  0.7537164260510565  1.0000
  O   O5        1.0  0.42584320174687923  0.8000327559254855  0.22572015847529772  1.0000
  O   O6        1.0  0.9319964568950214  0.19826513845055158  0.7239466133176578  1.0000
  O   O7        1.0  0.23289557026590305  0.9274168650973845  0.082251487874224  1.0000
  O   O8        1.0  0.7360265186378429  0.06994620251769128  0.5820049131930887  1.0000
