data_image0
_chemical_formula_structural       Li4H16C8N4O8
_chemical_formula_sum              "Li4 H16 C8 N4 O8"
_cell_length_a       5.009173461863259
_cell_length_b       7.790262141171604
_cell_length_c       9.151442383029147
_cell_angle_alpha    90.00022488803216
_cell_angle_beta     90.00010373072756
_cell_angle_gamma    89.99794949724385

_space_group_name_H-M_alt    "P 1"
_space_group_IT_number       1

loop_
  _space_group_symop_operation_xyz
  'x, y, z'

loop_
  _atom_site_type_symbol
  _atom_site_label
  _atom_site_symmetry_multiplicity
  _atom_site_fract_x
  _atom_site_fract_y
  _atom_site_fract_z
  _atom_site_occupancy
  Li  Li1       1.0  0.2425389044026787  0.1708182264933669  0.9257451864777339  1.0000
  Li  Li2       1.0  0.7425548145326459  0.3291779961497738  0.07424723529913992  1.0000
  Li  Li3       1.0  0.757442563402691  0.6708186297087976  0.5742453443478794  1.0000
  Li  Li4       1.0  0.25747151272754104  0.8291936509701896  0.4257548654360619  1.0000
  H   H1        1.0  0.9968804055811377  0.25957579140658993  0.6909752803253114  1.0000
  H   H2        1.0  0.4969339679436048  0.24040539320533577  0.309019750637141  1.0000
  H   H3        1.0  0.0030663450429244997  0.7595826909095392  0.8090034447421176  1.0000
  H   H4        1.0  0.5031011245892856  0.7404266569201069  0.1909821358498149  1.0000
  H   H5        1.0  0.2205004796833023  0.12269087653045568  0.6331049023087304  1.0000
  H   H6        1.0  0.720526088817266  0.37730843765727684  0.3668710919058569  1.0000
  H   H7        1.0  0.7794855719309339  0.6226924791986264  0.8668789560180343  1.0000
  H   H8        1.0  0.27949365845254454  0.8773102915969204  0.1331059923250777  1.0000
  H   H9        1.0  0.5496933161724371  0.31535822822328896  0.619438710957617  1.0000
  H   H10       1.0  0.04973198458586129  0.18467595791580044  0.3805665022967091  1.0000
  H   H11       1.0  0.45029036306673487  0.8153305186035381  0.8805620032141874  1.0000
  H   H12       1.0  0.9502881384634848  0.684647649595  0.1194276005414636  1.0000
  H   H13       1.0  0.42215415867853784  0.4353099302430863  0.7668297227855734  1.0000
  H   H14       1.0  0.9222363605262132  0.06471282550524647  0.2332023363727487  1.0000
  H   H15       1.0  0.5778071009947539  0.9352757506118508  0.7331964135263789  1.0000
  H   H16       1.0  0.0778341313615769  0.5646945930173857  0.2668275368648736  1.0000
  C   C1        1.0  0.36374319719013937  0.36384162141527543  0.6677173428346634  1.0000
  C   C2        1.0  0.8637977047645932  0.1361927936756899  0.3322818372863168  1.0000
  C   C3        1.0  0.6362278942460832  0.8637937989985003  0.8322692829113478  1.0000
  C   C4        1.0  0.1362250250163939  0.6361610345653899  0.16771542670224454  1.0000
  C   C5        1.0  0.24071131222816433  0.4958819831947494  0.564354458599553  1.0000
  C   C6        1.0  0.7408109577192834  0.004169479000303499  0.43561938396237576  1.0000
  C   C7        1.0  0.7592127541125963  0.9958100205401622  0.9356106312934996  1.0000
  C   C8        1.0  0.2592548047671245  0.504116212937653  0.0643502432854532  1.0000
  N   N1        1.0  0.1896984220206122  0.21956239786855744  0.7067676984923426  1.0000
  N   N2        1.0  0.6897591076140158  0.2804042739408672  0.29324539701016766  1.0000
  N   N3        1.0  0.8102165410241112  0.7196116134656806  0.7932535462559046  1.0000
  N   N4        1.0  0.31028581198814464  0.7804430552810969  0.20676860601088262  1.0000
  O   O1        1.0  0.9969981577620217  0.48038303228777574  0.5297179070342395  1.0000
  O   O2        1.0  0.49707374362587603  0.019585312731372498  0.4702804022989966  1.0000
  O   O3        1.0  0.0028967937394171004  0.9804255438709288  0.9702777418340817  1.0000
  O   O4        1.0  0.5029891913800597  0.5196197497152681  0.029741713008292002  1.0000
  O   O5        1.0  0.3903893304930079  0.6201685832842188  0.5237349069675832  1.0000
  O   O6        1.0  0.8903709989262083  0.8798687749606984  0.4762873787705573  1.0000
  O   O7        1.0  0.6096827005362256  0.12012251670576998  0.9762871906226707  1.0000
  O   O8        1.0  0.10960668853008572  0.37983707512961473  0.023731235073484007  1.0000
