data_image0
_chemical_formula_structural       Zn8H18C42N6O26
_chemical_formula_sum              "Zn8 H18 C42 N6 O26"
_cell_length_a       18.228548434882185
_cell_length_b       18.204983053238198
_cell_length_c       18.412976672978363
_cell_angle_alpha    60.27520659226544
_cell_angle_beta     89.95732416418852
_cell_angle_gamma    60.26521905429869

_space_group_name_H-M_alt    "P 1"
_space_group_IT_number       1

loop_
  _space_group_symop_operation_xyz
  'x, y, z'

loop_
  _atom_site_type_symbol
  _atom_site_label
  _atom_site_symmetry_multiplicity
  _atom_site_fract_x
  _atom_site_fract_y
  _atom_site_fract_z
  _atom_site_occupancy
  Zn  Zn1       1.0  0.05340999591838616  0.9112948368198416  0.9385506012045824  1.0000
  Zn  Zn2       1.0  0.05168625768548203  0.09321904666050065  0.9357148070486119  1.0000
  Zn  Zn3       1.0  0.0506864217055211  0.9181201068641512  0.10769373840249588  1.0000
  Zn  Zn4       1.0  0.8768124591243377  0.0914873228717923  0.9363250299246104  1.0000
  Zn  Zn5       1.0  0.465121333882159  0.09029087087738932  0.523491763553615  1.0000
  Zn  Zn6       1.0  0.4629879625553314  0.9164834614885041  0.5235376911259311  1.0000
  Zn  Zn7       1.0  0.6399335617456285  0.9164313114838621  0.5225738701445055  1.0000
  Zn  Zn8       1.0  0.46288355677514653  0.0923004073132248  0.3491713770077497  1.0000
  H   H1        1.0  0.21164921767781664  0.1187657755452136  0.7825652223234628  1.0000
  H   H2        1.0  0.3094606577793328  0.11978903686758001  0.6844275855858584  1.0000
  H   H3        1.0  0.2927587019280365  0.8943203450377768  0.6797292585538982  1.0000
  H   H4        1.0  0.2083232068301867  0.6047235944266234  0.30117437356150845  1.0000
  H   H5        1.0  0.3064127551950404  0.4093395102469871  0.40057775324485334  1.0000
  H   H6        1.0  0.30167509048301605  0.4132434564211636  0.16483743654798397  1.0000
  H   H7        1.0  0.6887106237068821  0.12363312154992201  0.7779334970099684  1.0000
  H   H8        1.0  0.5907432469995939  0.12492809187919111  0.6788775422367197  1.0000
  H   H9        1.0  0.8316121997411088  0.8886447783937756  0.6855084840374774  1.0000
  H   H10       1.0  0.2012555130660162  0.8906115305267618  0.2953096630977542  1.0000
  H   H11       1.0  0.2984546771167728  0.8880712292669416  0.39627275980090826  1.0000
  H   H12       1.0  0.30140223034381103  0.1195577164244312  0.1623358164762436  1.0000
  H   H13       1.0  0.6883673515122269  0.4048802808071841  0.7817986498905115  1.0000
  H   H14       1.0  0.5896268498523798  0.6001408120335725  0.6831323840437451  1.0000
  H   H15       1.0  0.8296672464500289  0.5922150673231527  0.6823141451929972  1.0000
  H   H16       1.0  0.8260187709821804  0.892136469475389  0.39376886171893943  1.0000
  H   H17       1.0  0.9237941173096613  0.8917114146611169  0.29560780231474143  1.0000
  H   H18       1.0  0.6829024621772959  0.1184123901757275  0.07126389994770224  1.0000
  C   C1        1.0  0.146946649325109  0.0017359388766138  0.8414874503570928  1.0000
  C   C2        1.0  0.2039104468671269  0.004664637447156399  0.781685876193194  1.0000
  C   C3        1.0  0.23184613021626888  0.07031226689262839  0.7582245598430717  1.0000
  C   C4        1.0  0.28529019358850144  0.0708693946849337  0.7044040322839253  1.0000
  C   C5        1.0  0.30859028457292226  0.00649309434597  0.6755775664360969  1.0000
  C   C6        1.0  0.27616790745462066  0.9445224074126913  0.7020188165962368  1.0000
  C   C7        1.0  0.36676983523345535  0.0040320954520539  0.6185520207005484  1.0000
  C   C8        1.0  0.14698057947663995  0.7239114990575573  0.1221509390816069  1.0000
  C   C9        1.0  0.20541451084851292  0.6076025821581439  0.1825407309757312  1.0000
  C   C10       1.0  0.23084618893016542  0.5586192251309114  0.27440026403161266  1.0000
  C   C11       1.0  0.2845609336340686  0.45162805731536076  0.32874280070938516  1.0000
  C   C12       1.0  0.3108521625384242  0.39756157597594916  0.2895218316241214  1.0000
  C   C13       1.0  0.2817803105395599  0.45399580240258086  0.19676261925553024  1.0000
  C   C14       1.0  0.3683205693200193  0.28267514257693455  0.34489536230380935  1.0000
  C   C15       1.0  0.869317685715096  0.0017663093896161  0.8423821172444335  1.0000
  C   C16       1.0  0.8098763146387994  0.0045216142794615  0.7824217660706269  1.0000
  C   C17       1.0  0.7169170534373208  0.07305328815041182  0.7556804316636416  1.0000
  C   C18       1.0  0.6633749000650513  0.07373415558034682  0.7013876870273139  1.0000
  C   C19       1.0  0.7042830013697241  0.0065041488069966  0.6753907884150224  1.0000
  C   C20       1.0  0.7980738128324278  0.9414818054548418  0.7052208972114685  1.0000
  C   C21       1.0  0.6487639505924035  0.0043207724192484  0.6178977714808909  1.0000
  C   C22       1.0  0.14527840142710602  0.007532036215963001  0.11698884521672431  1.0000
  C   C23       1.0  0.2026067365281463  0.0061842662431388015  0.17758288848705925  1.0000
  C   C24       1.0  0.22535166386494862  0.939646211198358  0.26932572408580313  1.0000
  C   C25       1.0  0.27855853954892495  0.938373563460253  0.32451550968149695  1.0000
  C   C26       1.0  0.3070063322700208  0.0036264564637492006  0.28625095019670976  1.0000
  C   C27       1.0  0.2800825606136428  0.06785824441292482  0.19351211230001303  1.0000
  C   C28       1.0  0.3651381472081496  0.004314462962902601  0.3426699585586804  1.0000
  C   C29       1.0  0.8690133193880669  0.28333156142775107  0.8410919986928463  1.0000
  C   C30       1.0  0.8091904723720231  0.39981169776963554  0.7819633462662665  1.0000
  C   C31       1.0  0.7162411163806298  0.45006547906854877  0.757868819734931  1.0000
  C   C32       1.0  0.6622415429661997  0.5570477399518197  0.7038028368097926  1.0000
  C   C33       1.0  0.7027247538581277  0.6101301761935645  0.6757179794516475  1.0000
  C   C34       1.0  0.7965359954162209  0.5524743594939566  0.7034349239937114  1.0000
  C   C35       1.0  0.647068622879843  0.725148657539698  0.6180228739314161  1.0000
  C   C36       1.0  0.6453484884806854  0.006480085423554301  0.3391577275531219  1.0000
  C   C37       1.0  0.7047002338118418  0.005681554123604798  0.2817770401375554  1.0000
  C   C38       1.0  0.797670127383405  0.9407895501400318  0.32200618877590176  1.0000
  C   C39       1.0  0.8511507917575188  0.9406236404611904  0.2682186264874176  1.0000
  C   C40       1.0  0.8102095744331166  0.0050700949700726  0.1764288714917441  1.0000
  C   C41       1.0  0.7164194842509204  0.06742466483216698  0.14271086954529721  1.0000
  C   C42       1.0  0.8659019976452312  0.006399714915559701  0.1167457433279893  1.0000
  N   N1        1.0  0.22515592353100514  0.9429696485169929  0.7540568764165484  1.0000
  N   N2        1.0  0.23022755404053197  0.5567132467030405  0.14397873672960074  1.0000
  N   N3        1.0  0.850154707910363  0.939891721939894  0.7576986049895141  1.0000
  N   N4        1.0  0.22917393214858348  0.06946708704686701  0.13987936257662886  1.0000
  N   N5        1.0  0.8490594885431691  0.44967366026072847  0.7553151867450013  1.0000
  N   N6        1.0  0.6643377609166591  0.0681634165707266  0.1937514498361637  1.0000
  O   O1        1.0  0.007798037995158299  0.004274359808796599  0.9784361150537748  1.0000
  O   O2        1.0  0.12387188672272491  0.0660826440623268  0.8617486357294766  1.0000
  O   O3        1.0  0.12771966742133134  0.9367746432299031  0.8661353316245555  1.0000
  O   O4        1.0  0.3876252403193873  0.9416750808683575  0.5964052331543357  1.0000
  O   O5        1.0  0.3910993688277387  0.0648400752671634  0.5968344341866186  1.0000
  O   O6        1.0  0.12399858697214237  0.7696357142370615  0.16133867372062846  1.0000
  O   O7        1.0  0.12599734047149266  0.7658068343384982  0.03955044262028203  1.0000
  O   O8        1.0  0.3892386098763154  0.23897305411910713  0.30432418836976893  1.0000
  O   O9        1.0  0.3916195846698258  0.23788572858666163  0.42859486237100003  1.0000
  O   O10       1.0  0.82844762312682  0.0678765574478675  0.8609255127974151  1.0000
  O   O11       1.0  0.9527074340604144  0.9354969412941471  0.8688335538740335  1.0000
  O   O12       1.0  0.6896703979810325  0.9414074108155502  0.5963400504589205  1.0000
  O   O13       1.0  0.5642425677571055  0.0661169396079799  0.5953506962996544  1.0000
  O   O14       1.0  0.12310746512865459  0.9446330715380854  0.15640188361037133  1.0000
  O   O15       1.0  0.12435184670899702  0.0691051546363326  0.034251039523802304  1.0000
  O   O16       1.0  0.38531672528464606  0.0688209435936216  0.3029306225202789  1.0000
  O   O17       1.0  0.3898545007062139  0.9397828946172881  0.4261556480823999  1.0000
  O   O18       1.0  0.828297433733468  0.23902080001950315  0.8645962651488972  1.0000
  O   O19       1.0  0.952717445219882  0.24016357373036357  0.8620692506659116  1.0000
  O   O20       1.0  0.6882778527350126  0.7686799364958786  0.5955194144403609  1.0000
  O   O21       1.0  0.5625451985747391  0.7700181160224415  0.5963173713164241  1.0000
  O   O22       1.0  0.6862222400985729  0.9443521569228183  0.4225565503532709  1.0000
  O   O23       1.0  0.561525617263321  0.06748508883568861  0.300597726678042  1.0000
  O   O24       1.0  0.8250522898818033  0.0684651411674082  0.0335651242945829  1.0000
  O   O25       1.0  0.9502693205966394  0.9445462262873864  0.15490511097293327  1.0000
  O   O26       1.0  0.5085074869706645  0.0029315492478403  0.479561329410167  1.0000
