data_image0
_chemical_formula_structural       Gd4H40C20O40
_chemical_formula_sum              "Gd4 H40 C20 O40"
_cell_length_a       6.644371331
_cell_length_b       11.45146064345409
_cell_length_c       12.407
_cell_angle_alpha    95.53681089717435
_cell_angle_beta     90.0
_cell_angle_gamma    90.0

_space_group_name_H-M_alt    "P 1"
_space_group_IT_number       1

loop_
  _space_group_symop_operation_xyz
  'x, y, z'

loop_
  _atom_site_type_symbol
  _atom_site_label
  _atom_site_symmetry_multiplicity
  _atom_site_fract_x
  _atom_site_fract_y
  _atom_site_fract_z
  _atom_site_occupancy
  Gd  Gd1       1.0  0.005050891698879  0.1684448554018303  0.8066232139436522  1.0000
  Gd  Gd2       1.0  0.5050485339889832  0.3315554570204995  0.19337669297941323  1.0000
  Gd  Gd3       1.0  0.9949489079811968  0.831556646787206  0.19337667803379333  1.0000
  Gd  Gd4       1.0  0.4949482556245144  0.6684442904797905  0.8066222367387967  1.0000
  H   H1        1.0  0.4578612254565471  0.029780577370956993  0.6615688297409079  1.0000
  H   H2        1.0  0.9578618778132224  0.4702197350513728  0.338431883178778  1.0000
  H   H3        1.0  0.5421385742235216  0.9702191701293329  0.33843171197052874  1.0000
  H   H4        1.0  0.0421364168335643  0.5297800124489171  0.6615694645292791  1.0000
  H   H5        1.0  0.5573920865501378  0.1451908428158859  0.5892537218227432  1.0000
  H   H6        1.0  0.0573884241268914  0.3548059602289584  0.41074587257508455  1.0000
  H   H7        1.0  0.4426092181632129  0.8548062726512882  0.41074739149138406  1.0000
  H   H8        1.0  0.9426083654866062  0.6451920325825924  0.5892545128737297  1.0000
  H   H9        1.0  0.9829613178794219  0.19298593218183407  0.5481324717909146  1.0000
  H   H10       1.0  0.4829606655227465  0.3070126255517565  0.4518680848661418  1.0000
  H   H11       1.0  0.0170354717340828  0.8070146926628324  0.45186814805182973  1.0000
  H   H12       1.0  0.5170361240907582  0.6929862446041639  0.5481315727173666  1.0000
  H   H13       1.0  0.8866888538442552  0.3330399236983155  0.0076275338578640104  1.0000
  H   H14       1.0  0.3866927165874259  0.1669586340352751  0.9923714108059728  1.0000
  H   H15       1.0  0.1133094408025315  0.6669580691132282  0.9923720455943438  1.0000
  H   H16       1.0  0.6133115981924959  0.8330402361206453  0.007628246777542802  1.0000
  H   H17       1.0  0.1388167448885156  0.4226606513215572  0.7903688631952334  1.0000
  H   H18       1.0  0.6388143871786269  0.0773405384451493  0.20963031586253322  1.0000
  H   H19       1.0  0.8611830547915531  0.5773390961787328  0.2096308725195968  1.0000
  H   H20       1.0  0.3611884225680129  0.9226609637438868  0.7903695761149124  1.0000
  H   H21       1.0  0.8038548319959915  0.9692690061742084  0.5279247535354941  1.0000
  H   H22       1.0  0.3038571897058802  0.5307301764040417  0.4720780349575477  1.0000
  H   H23       1.0  0.1961434626507952  0.030733373359197496  0.4720784405597201  1.0000
  H   H24       1.0  0.6961441150074705  0.4692660617187627  0.5279213882320377  1.0000
  H   H25       1.0  0.7256939384924905  0.8824970157275942  0.6332254618510831  1.0000
  H   H26       1.0  0.22569178110253316  0.617502166850656  0.3667765206453453  1.0000
  H   H27       1.0  0.2743118813207133  0.1175036091170654  0.3667767699848952  1.0000
  H   H28       1.0  0.7743080185775355  0.3824958259608877  0.6332238648034761  1.0000
  H   H29       1.0  0.0561813874336607  0.2522435257709574  0.0491966724344124  1.0000
  H   H30       1.0  0.5561820397903361  0.2477576639957491  0.9508041186165812  1.0000
  H   H31       1.0  0.943819917279697  0.7477562217293325  0.9508046752736448  1.0000
  H   H32       1.0  0.4438192649230217  0.7522429608489176  0.0491956952295567  1.0000
  H   H33       1.0  0.1609858851520585  0.2712775119264776  0.6052699048194583  1.0000
  H   H34       1.0  0.6609850324754518  0.2287228004958592  0.3947300021036071  1.0000
  H   H35       1.0  0.8390124094947282  0.7287222355738123  0.39473063689197835  1.0000
  H   H36       1.0  0.3390147672046168  0.7712787016931769  0.6052690838772251  1.0000
  H   H37       1.0  0.9202766816284651  0.4379746973388237  0.84502272339531  1.0000
  H   H38       1.0  0.4202760292717898  0.0620256150835061  0.1549771835277625  1.0000
  H   H39       1.0  0.0797201079850396  0.5620259275058359  0.1549770904508279  1.0000
  H   H40       1.0  0.5797252754415609  0.9379750097611534  0.8450234363149889  1.0000
  C   C1        1.0  0.5674321635832698  0.1018605589602188  0.664843670993264  1.0000
  C   C2        1.0  0.0674330162598764  0.3981388761177413  0.3351577697917207  1.0000
  C   C3        1.0  0.4325676360967989  0.8981391885400711  0.3351576767147861  1.0000
  C   C4        1.0  0.9325652783869103  0.6018599940381719  0.6648418877917949  1.0000
  C   C5        1.0  0.5194667528433499  0.1908890791322051  0.7604507754385352  1.0000
  C   C6        1.0  0.0194630904201034  0.3091121106345014  0.23954920961583787  1.0000
  C   C7        1.0  0.4805345518700079  0.8091115457124615  0.23955065040082962  1.0000
  C   C8        1.0  0.9805352042266832  0.6908885142101653  0.7604506042302931  1.0000
  C   C9        1.0  0.0409263700737625  0.9282961466467157  0.6372734446313757  1.0000
  C   C10       1.0  0.5409240123638739  0.5717047906202737  0.3627262761378205  1.0000
  C   C11       1.0  0.9590779447061593  0.0717053555423135  0.3627240293562224  1.0000
  C   C12       1.0  0.4590742822829128  0.4282949568800163  0.6372742655736161  1.0000
  C   C13       1.0  0.8219062011963274  0.9565089096245032  0.6142205065460972  1.0000
  C   C14       1.0  0.32190705387293406  0.543490272953747  0.38578066995371785  1.0000
  C   C15       1.0  0.1780951035170233  0.0434925925645331  0.38578099742458255  1.0000
  C   C16       1.0  0.6780942508404165  0.4565085972021734  0.6142189876297977  1.0000
  C   C17       1.0  0.1129918787797521  0.013472500179958  0.0112271882833355  1.0000
  C   C18       1.0  0.6129880160365744  0.4865278122423717  0.98877271863973  1.0000
  C   C19       1.0  0.8870154460667337  0.9865281246647085  0.9887774615424902  1.0000
  C   C20       1.0  0.3870072685436412  0.5134736899466574  0.011221531361407203  1.0000
  O   O1        1.0  0.766901749790236  0.060185823934944  0.6805770239629468  1.0000
  O   O2        1.0  0.2669010974335606  0.4398127337986466  0.3194251446873508  1.0000
  O   O3        1.0  0.2330980498898327  0.9398148009097156  0.3194260138696521  1.0000
  O   O4        1.0  0.7330971972132261  0.5601852590129042  0.6805744347648571  1.0000
  O   O5        1.0  0.3388145977779331  0.2159302422043794  0.7817571271718294  1.0000
  O   O6        1.0  0.8388107350347624  0.2840718249066967  0.2182445480070854  1.0000
  O   O7        1.0  0.6611836968688536  0.7840721373290265  0.21824445493015796  1.0000
  O   O8        1.0  0.1611845495454602  0.7159287999379629  0.781754459842432  1.0000
  O   O9        1.0  0.2026391863016741  0.0719887377745465  0.9434013170307767  1.0000
  O   O10       1.0  0.7026277983920792  0.4280142066808991  0.056598824286219006  1.0000
  O   O11       1.0  0.7973726536446648  0.9280197831694679  0.056595976010683634  1.0000
  O   O12       1.0  0.2973674861881364  0.5719846634750141  0.94340163929391  1.0000
  O   O13       1.0  0.0462436526637902  0.2190421826926752  0.6192052108108825  1.0000
  O   O14       1.0  0.5462443050204655  0.2809581297296546  0.3807955021088035  1.0000
  O   O15       1.0  0.9537546419829965  0.7809566874632451  0.3807952527692464  1.0000
  O   O16       1.0  0.4537539896263212  0.7190433724593815  0.6192043898686421  1.0000
  O   O17       1.0  0.9769607501787618  0.2660731051104079  0.9844251934889314  1.0000
  O   O18       1.0  0.4769616028553684  0.23392632996755217  0.015573829306212901  1.0000
  O   O19       1.0  0.023040554534596  0.7339257650455052  0.015575270091197512  1.0000
  O   O20       1.0  0.5230397018579893  0.766072540188368  0.9844250222806892  1.0000
  O   O21       1.0  0.6672640313335307  0.23616355811673628  0.815358781887042  1.0000
  O   O22       1.0  0.1672618739435734  0.2638358769612239  0.18463943491148882  1.0000
  O   O23       1.0  0.332734263313256  0.7638361893835537  0.18464256582101513  1.0000
  O   O24       1.0  0.8327349156699312  0.7361629931946965  0.8153594166754132  1.0000
  O   O25       1.0  0.0077569415423184  0.3845856602555386  0.7987287452453772  1.0000
  O   O26       1.0  0.5077545838324227  0.1154146521667911  0.2012727736709223  1.0000
  O   O27       1.0  0.9922443631710394  0.6154132099003746  0.2012725243313724  1.0000
  O   O28       1.0  0.492246720880928  0.8845859726778755  0.7987286521684426  1.0000
  O   O29       1.0  0.125981821048228  0.9846549944299952  0.718094813361873  1.0000
  O   O30       1.0  0.6259794633383322  0.5153459428369942  0.281907325397178  1.0000
  O   O31       1.0  0.8740239987649758  0.015350894480896198  0.2819078872619727  1.0000
  O   O32       1.0  0.3740188313084545  0.4846520499745495  0.7180906420617958  1.0000
  O   O33       1.0  0.1240312979130209  0.8489868474302893  0.5737698896401398  1.0000
  O   O34       1.0  0.6240274351698503  0.6510158445254461  0.4262275694018385  1.0000
  O   O35       1.0  0.8759715118336117  0.151019041480609  0.42623119899047174  1.0000
  O   O36       1.0  0.3759693544436544  0.34897951625298157  0.5737701636632053  1.0000
  O   O37       1.0  0.8098614198297867  0.023139080473178798  0.9053990731520541  1.0000
  O   O38       1.0  0.3098562523732582  0.4768629866378973  0.0945977660471726  1.0000
  O   O39       1.0  0.19013988488356398  0.9768650537489733  0.094595411243013  1.0000
  O   O40       1.0  0.6901390322069574  0.5231341288292768  0.9054025412703411  1.0000
