data_image0
_chemical_formula_structural       Zn6H28C51N2O26
_chemical_formula_sum              "Zn6 H28 C51 N2 O26"
_cell_length_a       18.701501139395834
_cell_length_b       18.614624507248898
_cell_length_c       18.626391104384687
_cell_angle_alpha    109.28043515744172
_cell_angle_beta     109.99148719844793
_cell_angle_gamma    109.39288184381725

_space_group_name_H-M_alt    "P 1"
_space_group_IT_number       1

loop_
  _space_group_symop_operation_xyz
  'x, y, z'

loop_
  _atom_site_type_symbol
  _atom_site_label
  _atom_site_symmetry_multiplicity
  _atom_site_fract_x
  _atom_site_fract_y
  _atom_site_fract_z
  _atom_site_occupancy
  Zn  Zn1       1.0  0.009908972893541099  0.066024603744431  0.5648073217950511  1.0000
  Zn  Zn2       1.0  0.997825545120534  0.9338529041499298  0.43487096203900666  1.0000
  Zn  Zn3       1.0  0.4379522991156648  0.9336105068595657  0.9971573624845932  1.0000
  Zn  Zn4       1.0  0.5621141912906539  0.0633119305532759  0.0020330750871550944  1.0000
  Zn  Zn5       1.0  0.4391717151362897  0.5081626381645138  0.439812951750035  1.0000
  Zn  Zn6       1.0  0.5665238840252513  0.5058892736716345  0.561460273556122  1.0000
  H   H1        1.0  0.24710512866874262  0.8258029186271187  0.6675429550837392  1.0000
  H   H2        1.0  0.27906761308100403  0.9573067147537131  0.6184232429132307  1.0000
  H   H3        1.0  0.3738187473588042  0.08826700138381233  0.8000969731259886  1.0000
  H   H4        1.0  0.2145670632992918  0.0834049896672013  0.7836991674683773  1.0000
  H   H5        1.0  0.18180415465901223  0.9499506349007305  0.830973915931402  1.0000
  H   H6        1.0  0.08824624018966175  0.8206373992044718  0.649010095142401  1.0000
  H   H7        1.0  0.11744753397383079  0.12445168647408171  0.36739395392429947  1.0000
  H   H8        1.0  0.21656363561572084  0.2402101903509575  0.35213811288938496  1.0000
  H   H9        1.0  0.37424374159555635  0.4014772201832457  0.6351219029852615  1.0000
  H   H10       1.0  0.2658774662720234  0.29295648534942836  0.6495158547473138  1.0000
  H   H11       1.0  0.7415381856474356  0.837222059328788  0.19691598543521838  1.0000
  H   H12       1.0  0.6126444380109177  0.8443387172684638  0.10502679176943244  1.0000
  H   H13       1.0  0.8602474017098984  0.10917391393554961  0.3872923638517207  1.0000
  H   H14       1.0  0.8844607349273517  0.8204093149707318  0.5884914544214366  1.0000
  H   H15       1.0  0.7628401339326841  0.693948768187859  0.5704275704266165  1.0000
  H   H16       1.0  0.5756682920003584  0.7542094050082185  0.4313203434464086  1.0000
  H   H17       1.0  0.6903921256087813  0.9115628261878187  0.8935479524079071  1.0000
  H   H18       1.0  0.68835827680806  0.7823374624678153  0.7910035806553567  1.0000
  H   H19       1.0  0.4051944663610812  0.6432045934448427  0.6497854871507087  1.0000
  H   H20       1.0  0.4079474130965861  0.766148488431483  0.7612054682967653  1.0000
  H   H21       1.0  0.5453469406100525  0.30078873244378457  0.14605597026921657  1.0000
  H   H22       1.0  0.5463475605255328  0.41054500300476354  0.2688070866560964  1.0000
  H   H23       1.0  0.4918594167706233  0.2289219067379733  0.3644490457271132  1.0000
  H   H24       1.0  0.47464604792461534  0.1140787534535121  0.23229205072188813  1.0000
  H   H25       1.0  0.7936393543394615  0.18355888620384062  0.3671492261588511  1.0000
  H   H26       1.0  0.6809612483317764  0.20915273610683024  0.34385429187213384  1.0000
  H   H27       1.0  0.6066756507092279  0.09508785933357441  0.26712154596634  1.0000
  H   H28       1.0  0.6515460581208643  0.16696347703994263  0.2310634639442313  1.0000
  C   C1        1.0  0.12452911739274701  0.13423178516995904  0.5176846097306651  1.0000
  C   C2        1.0  0.10673900289968687  0.9605266581115688  0.5899784139552295  1.0000
  C   C3        1.0  0.875383987050455  0.924860284548778  0.5243456208066846  1.0000
  C   C4        1.0  0.8846502765351119  0.9746416770974591  0.35890804377581265  1.0000
  C   C5        1.0  0.25845833528223483  0.9566152379716116  0.6666420315433966  1.0000
  C   C6        1.0  0.23926818998148752  0.883130331173284  0.6922386205237032  1.0000
  C   C7        1.0  0.29165720789172406  0.9566764463005271  0.79318211108054  1.0000
  C   C8        1.0  0.3097545652097082  0.029115998971107605  0.7663023614690303  1.0000
  C   C9        1.0  0.22275016853935634  0.026460098885351602  0.7586883907085351  1.0000
  C   C10       1.0  0.20316568648763678  0.9523620458749207  0.7835806215339998  1.0000
  C   C11       1.0  0.15218815413387413  0.8803828465126955  0.6838793932696845  1.0000
  C   C12       1.0  0.17133563469453614  0.9556219960100806  0.6588344472119019  1.0000
  C   C13       1.0  0.17228335660066565  0.18656025237137902  0.42551739809775313  1.0000
  C   C14       1.0  0.2280107587742251  0.2505250415333862  0.4170838333468581  1.0000
  C   C15       1.0  0.30140871890017706  0.32745943546589734  0.4928177336904582  1.0000
  C   C16       1.0  0.31622481854028456  0.34197668176778256  0.5767198945193712  1.0000
  C   C17       1.0  0.2568244872097836  0.28110646379983006  0.584843114844638  1.0000
  C   C18       1.0  0.18583937761752622  0.2021499913333074  0.5093036859494476  1.0000
  C   C19       1.0  0.7395427792599634  0.898117769546012  0.21707247317882405  1.0000
  C   C20       1.0  0.668180527687241  0.9024593973171521  0.16692275083677527  1.0000
  C   C21       1.0  0.6658754183844805  0.981453986776131  0.19163455512497024  1.0000
  C   C22       1.0  0.7361917539632187  0.058473739799758596  0.272542138603704  1.0000
  C   C23       1.0  0.8066826739441026  0.0520815011893916  0.32355190344895146  1.0000
  C   C24       1.0  0.8093215225355762  0.9744487810397544  0.2966829272922452  1.0000
  C   C25       1.0  0.8167861746126519  0.8060415126766998  0.554989931840069  1.0000
  C   C26       1.0  0.7492940591515949  0.7353745467821186  0.5444919487646657  1.0000
  C   C27       1.0  0.661611296009042  0.7143717744394992  0.49788531795908136  1.0000
  C   C28       1.0  0.6428298502903118  0.7678459070776286  0.4660540553931439  1.0000
  C   C29       1.0  0.7116793478152842  0.8391321670818569  0.47794016910352594  1.0000
  C   C30       1.0  0.7990306948597948  0.8583178828168699  0.5201106524453182  1.0000
  C   C31       1.0  0.5450964355826783  0.9158301309247678  0.8975365371899358  1.0000
  C   C32       1.0  0.35987271534713033  0.9611961880094457  0.8677281683436179  1.0000
  C   C33       1.0  0.5078035695818246  0.13362505298664468  0.10893226611013773  1.0000
  C   C34       1.0  0.5947306876674006  0.9823535436896192  0.1248697889783655  1.0000
  C   C35       1.0  0.5410214564749083  0.6296379399833542  0.6472205548615904  1.0000
  C   C36       1.0  0.36755935446870314  0.39258423628927364  0.4861048836375232  1.0000
  C   C37       1.0  0.5222229118128894  0.3932905643372564  0.3978707716883179  1.0000
  C   C38       1.0  0.591178460287324  0.6344483886484583  0.483990545598644  1.0000
  C   C39       1.0  0.6283025240829828  0.8518626681586028  0.841178192883241  1.0000
  C   C40       1.0  0.6271613446445558  0.7800700133388219  0.7837969835803945  1.0000
  C   C41       1.0  0.546662558929519  0.7051100857760916  0.7149083875761945  1.0000
  C   C42       1.0  0.467319641038806  0.70115047008499  0.7047752022283904  1.0000
  C   C43       1.0  0.4687247185551157  0.7699598838257556  0.765347958445524  1.0000
  C   C44       1.0  0.5491154233227887  0.8461305757555379  0.8331505987693647  1.0000
  C   C45       1.0  0.5316900709792308  0.28497745871924013  0.19295597215180757  1.0000
  C   C46       1.0  0.5338043768840421  0.34650896354834526  0.2621835254414507  1.0000
  C   C47       1.0  0.5208759293757907  0.326812472161599  0.3247478210403472  1.0000
  C   C48       1.0  0.5017746953879438  0.24380674641330563  0.3155382575809895  1.0000
  C   C49       1.0  0.49306336708991694  0.1801454483175391  0.24250485526449944  1.0000
  C   C50       1.0  0.5100908587448387  0.20102903523436313  0.18213139363171388  1.0000
  C   C51       1.0  0.6661498652631579  0.15294398178209428  0.28552460575529187  1.0000
  N   N1        1.0  0.7402289944950554  0.13842973161875702  0.30650166062321926  1.0000
  N   N2        1.0  0.6893573908882475  0.8926118848958994  0.4409035633985851  1.0000
  O   O1        1.0  0.10586560784013699  0.16284356871096864  0.5780698639118711  1.0000
  O   O2        1.0  0.09508114791525202  0.053985964131690906  0.4650674659564444  1.0000
  O   O3        1.0  0.08632686092338561  0.018578809985029896  0.6174428920287696  1.0000
  O   O4        1.0  0.0757580741617189  0.9073341252939925  0.5078354722242152  1.0000
  O   O5        1.0  0.9128283505511732  0.006769961301280601  0.5806973690173366  1.0000
  O   O6        1.0  0.9008950506972511  0.8909998006820813  0.4747593115442399  1.0000
  O   O7        1.0  0.9279711634101064  0.036273717307587106  0.4388864426464281  1.0000
  O   O8        1.0  0.9027922714931266  0.9134957879843456  0.33050754901240254  1.0000
  O   O9        1.0  0.4867732433547615  0.8877389960977523  0.917033867491874  1.0000
  O   O10       1.0  0.5977730086442961  0.997654662459901  0.9282729876771967  1.0000
  O   O11       1.0  0.3347565399731137  0.908880987688292  0.8965122497664098  1.0000
  O   O12       1.0  0.43927158847471764  0.0175895747377837  0.8987837544474574  1.0000
  O   O13       1.0  0.45791283663346866  0.05335640548742051  0.08196792112746457  1.0000
  O   O14       1.0  0.5587548285627052  0.16172305591680924  0.0803225387799031  1.0000
  O   O15       1.0  0.5142326442410834  0.9220697574467565  0.08933471390236022  1.0000
  O   O16       1.0  0.6184810124658853  0.04103516185822541  0.10388742461926627  1.0000
  O   O17       1.0  0.4779884938047018  0.5933172191835964  0.5689191829648904  1.0000
  O   O18       1.0  0.5980077670970587  0.6052644604085913  0.6702995081554802  1.0000
  O   O19       1.0  0.3398760410733601  0.4153119046146971  0.4285958674467878  1.0000
  O   O20       1.0  0.4477008568434401  0.4208077733274393  0.5387888960010868  1.0000
  O   O21       1.0  0.4727168758862916  0.4240683945539703  0.3748382481094268  1.0000
  O   O22       1.0  0.5721781686498915  0.4141516998570581  0.4775790632955008  1.0000
  O   O23       1.0  0.5100931617141528  0.609080898188843  0.4338093921109234  1.0000
  O   O24       1.0  0.6168773467788427  0.5960002502262115  0.5232854250879342  1.0000
  O   O25       1.0  0.7430002250147679  0.9363694179991526  0.42619371354312086  1.0000
  O   O26       1.0  0.6185034008082155  0.8899843759588535  0.4265544925732883  1.0000
