data_image0
_chemical_formula_structural       Na4B4H48C36N24O4
_chemical_formula_sum              "Na4 B4 H48 C36 N24 O4"
_cell_length_a       7.029651268061603
_cell_length_b       8.313141963069342
_cell_length_c       20.426772331024505
_cell_angle_alpha    89.99991881267125
_cell_angle_beta     90.00015803745147
_cell_angle_gamma    89.99954308235549

_space_group_name_H-M_alt    "P 1"
_space_group_IT_number       1

loop_
  _space_group_symop_operation_xyz
  'x, y, z'

loop_
  _atom_site_type_symbol
  _atom_site_label
  _atom_site_symmetry_multiplicity
  _atom_site_fract_x
  _atom_site_fract_y
  _atom_site_fract_z
  _atom_site_occupancy
  Na  Na1       1.0  0.0831084002281273  0.7493320105502973  0.997232750421297  1.0000
  Na  Na2       1.0  0.5831064481447399  0.7506648850132082  0.0027679942538299004  1.0000
  Na  Na3       1.0  0.9168926873930803  0.24933500649364504  0.5027684860162651  1.0000
  Na  Na4       1.0  0.4168920377563482  0.2506683139866582  0.4972313973077079  1.0000
  B   B1        1.0  0.31906171122959387  0.021052145128137998  0.1158407665547756  1.0000
  B   B2        1.0  0.819066081976395  0.47894340901065385  0.8841595135577122  1.0000
  B   B3        1.0  0.6809332684298826  0.5210563688012968  0.3841587585452686  1.0000
  B   B4        1.0  0.1809356668102708  0.9789446843702192  0.6158410997874314  1.0000
  H   H1        1.0  0.4619960101818421  0.088630174962816  0.1348149332329314  1.0000
  H   H2        1.0  0.9620008714720499  0.41136322062858  0.8651859719736591  1.0000
  H   H3        1.0  0.5380011717986478  0.5886354197607631  0.3651840630115757  1.0000
  H   H4        1.0  0.03800436518971399  0.9113653861090469  0.6348156597840247  1.0000
  H   H5        1.0  0.6037819844610579  0.8496487378430756  0.1843003260481666  1.0000
  H   H6        1.0  0.1037819990430862  0.6503420049212847  0.8157004382337194  1.0000
  H   H7        1.0  0.3962184050443085  0.34965413462956  0.3156990079457175  1.0000
  H   H8        1.0  0.8962157624566061  0.15034812116945773  0.6842993871121053  1.0000
  H   H9        1.0  0.5457536781251732  0.5220266970908226  0.19458591501280156  1.0000
  H   H10       1.0  0.0457519165679585  0.9779668394727353  0.8054157733484075  1.0000
  H   H11       1.0  0.4542526726323004  0.022031741396027402  0.30541507818642094  1.0000
  H   H12       1.0  0.9542427287480848  0.4779725322527639  0.6945823927920287  1.0000
  H   H13       1.0  0.21966347702647945  0.4724979032899057  0.12184006755811082  1.0000
  H   H14       1.0  0.7196649808122472  0.027498315410220197  0.8781630556185505  1.0000
  H   H15       1.0  0.7803385891236873  0.9725014830867382  0.3781631114181181  1.0000
  H   H16       1.0  0.2803325265714989  0.5275013113397832  0.6218358620654812  1.0000
  H   H17       1.0  0.3573352048138574  0.9943902468056507  0.8907475571409905  1.0000
  H   H18       1.0  0.8573335927996838  0.505614438649495  0.10925246846459659  1.0000
  H   H19       1.0  0.6426678195950969  0.4943910998267356  0.6092520681139605  1.0000
  H   H20       1.0  0.14267149154945002  0.005611648222803501  0.39074755517429344  1.0000
  H   H21       1.0  0.12221904568924201  0.2551386089220884  0.914859644262421  1.0000
  H   H22       1.0  0.6222121194793503  0.2448726962782645  0.0851419178418666  1.0000
  H   H23       1.0  0.8777834092648646  0.7551365341973622  0.5851396305857862  1.0000
  H   H24       1.0  0.3777921117601792  0.744865608680584  0.41486090396935543  1.0000
  H   H25       1.0  0.09321411128124879  0.2598207412044998  0.048994003713680505  1.0000
  H   H26       1.0  0.5932113315272999  0.24018233750172874  0.9510070413369934  1.0000
  H   H27       1.0  0.9067828649971615  0.7598220212223482  0.4510048929692161  1.0000
  H   H28       1.0  0.4067884206139709  0.7401787248660625  0.5489961586376212  1.0000
  H   H29       1.0  0.3050390164126214  0.2475379808913729  0.2192892450820167  1.0000
  H   H30       1.0  0.8050404437509542  0.2524552611818081  0.7807105321789083  1.0000
  H   H31       1.0  0.6949552315821849  0.7475448737579953  0.280711616955891  1.0000
  H   H32       1.0  0.1949677268850465  0.752458491459258  0.7192892337846786  1.0000
  H   H33       1.0  0.948972760307129  0.30246562992310544  0.2723233658267858  1.0000
  H   H34       1.0  0.44897446492842624  0.19753507023910538  0.7276765479194867  1.0000
  H   H35       1.0  0.05101954270696749  0.8024709965162912  0.2276769747116916  1.0000
  H   H36       1.0  0.5510313830224973  0.6975297222872144  0.7723222708793003  1.0000
  H   H37       1.0  0.7155265296003391  0.10779405432509041  0.19786367733897958  1.0000
  H   H38       1.0  0.21553124762700548  0.3922118153476574  0.8021350359310446  1.0000
  H   H39       1.0  0.28446620249609816  0.6077915885306736  0.3021333495457341  1.0000
  H   H40       1.0  0.7844741712203032  0.892206366595758  0.6978646487527913  1.0000
  H   H41       1.0  0.8132053128534764  0.018861364774728898  0.013801385715211702  1.0000
  H   H42       1.0  0.31320781672025794  0.48113422852838994  0.9861969306285516  1.0000
  H   H43       1.0  0.18679111018063568  0.5188661341087483  0.486196671998684  1.0000
  H   H44       1.0  0.6867939112067206  0.9811396915555338  0.5138031918876109  1.0000
  H   H45       1.0  0.8856286183932272  0.9559447263416417  0.0815054317942767  1.0000
  H   H46       1.0  0.3856333137927166  0.544052552443098  0.9184931519853097  1.0000
  H   H47       1.0  0.11436933754586681  0.4559480439035113  0.41849286127120433  1.0000
  H   H48       1.0  0.6143668812407129  0.0440536904499211  0.5815067351799713  1.0000
  C   C1        1.0  0.49124894181816364  0.7746799000065534  0.1647191294652615  1.0000
  C   C2        1.0  0.9912496426023337  0.7253118609740525  0.8352810231309321  1.0000
  C   C3        1.0  0.5087507381965963  0.27468688265364705  0.3352807376825311  1.0000
  C   C4        1.0  0.008750250929885798  0.22531555783815088  0.6647187586149103  1.0000
  C   C5        1.0  0.459697678323387  0.6101044374859298  0.16892638603088983  1.0000
  C   C6        1.0  0.9596996250935205  0.8898899402609927  0.8310761844141795  1.0000
  C   C7        1.0  0.5403049896008839  0.110108817870497  0.33107455594166885  1.0000
  C   C8        1.0  0.040298703067343  0.38989341167776803  0.6689235016140743  1.0000
  C   C9        1.0  0.29406638894843695  0.5845936425769909  0.1314715478309409  1.0000
  C   C10       1.0  0.7940669710442662  0.9153982338093413  0.868530375998205  1.0000
  C   C11       1.0  0.7059350990611505  0.08460159794591962  0.36853038808404653  1.0000
  C   C12       1.0  0.20592969195726601  0.4154007271406854  0.631469784747793  1.0000
  C   C13       1.0  0.30909427856123983  0.04319521582167599  0.9372793913183629  1.0000
  C   C14       1.0  0.8090936919016158  0.456807622460829  0.0627213688914878  1.0000
  C   C15       1.0  0.6909073471641634  0.5431980766486076  0.5627204963457046  1.0000
  C   C16       1.0  0.1909113686027268  0.9568041127465532  0.4372798609991122  1.0000
  C   C17       1.0  0.1901802606437002  0.1756785933827771  0.9497692774948162  1.0000
  C   C18       1.0  0.6901751436830709  0.3243274457795806  0.050231369949919724  1.0000
  C   C19       1.0  0.8098201049867908  0.6756782964678719  0.550229554011402  1.0000
  C   C20       1.0  0.30982690926771994  0.8243230978909395  0.44977091609580816  1.0000
  C   C21       1.0  0.17537206364190894  0.18087924883943168  0.0176073154499221  1.0000
  C   C22       1.0  0.6753716299563378  0.3191220776551447  0.9823923388490957  1.0000
  C   C23       1.0  0.824625663482628  0.6808809697946855  0.48239211669836385  1.0000
  C   C24       1.0  0.32462879387858823  0.8191215285031602  0.517608856999992  1.0000
  C   C25       1.0  0.16762698108860258  0.19750563457867537  0.20648834685853504  1.0000
  C   C26       1.0  0.6676308803132615  0.30249333785510407  0.7935108105452287  1.0000
  C   C27       1.0  0.8323677427876675  0.6975103616328084  0.2935105860641158  1.0000
  C   C28       1.0  0.332372546771552  0.8024920849008196  0.7064884367621787  1.0000
  C   C29       1.0  0.9873034658213983  0.22390081157092107  0.2321149007407115  1.0000
  C   C30       1.0  0.48730332322994485  0.2760996323276784  0.7678840702452308  1.0000
  C   C31       1.0  0.0126938521059472  0.7239026868718809  0.2678845063864372  1.0000
  C   C32       1.0  0.5127046225609463  0.7760934765121378  0.7321161715232591  1.0000
  C   C33       1.0  0.868549678882559  0.12373457293285378  0.1946116406695992  1.0000
  C   C34       1.0  0.3685559971652382  0.37627147656598225  0.8053877072612823  1.0000
  C   C35       1.0  0.13144290159591782  0.6237331189929237  0.305386356051109  1.0000
  C   C36       1.0  0.6314524183761918  0.8762682650409275  0.6946114971404569  1.0000
  N   N1        1.0  0.35139232520921837  0.8397821719706258  0.1269230582745564  1.0000
  N   N2        1.0  0.8513953709877384  0.6602129298823628  0.8730784303614101  1.0000
  N   N3        1.0  0.6486067356047371  0.3397868861735204  0.373077750118  1.0000
  N   N4        1.0  0.1486051417416974  0.16021461927174838  0.6269223683533839  1.0000
  N   N5        1.0  0.22875228871738074  0.7231468134829626  0.1060979133098172  1.0000
  N   N6        1.0  0.7287572373055368  0.776847905395094  0.8939039485854678  1.0000
  N   N7        1.0  0.7712450363744309  0.22315183876762754  0.39390345246934544  1.0000
  N   N8        1.0  0.2712435886023314  0.2768500496564812  0.6060967822956445  1.0000
  N   N9        1.0  0.2790222738256388  0.057536805603525906  0.0427131779031953  1.0000
  N   N10       1.0  0.7790261557606257  0.44245901623261114  0.9572870642409724  1.0000
  N   N11       1.0  0.720973781353102  0.5575417120474029  0.457285836424461  1.0000
  N   N12       1.0  0.22097594005441581  0.9424590734211619  0.5427145494308406  1.0000
  N   N13       1.0  0.36286942692716195  0.9719725338308435  0.9936571188033556  1.0000
  N   N14       1.0  0.8628724662442194  0.5280248971211705  0.0063424225008504  1.0000
  N   N15       1.0  0.6371295430482178  0.4719773878674758  0.5063420299328103  1.0000
  N   N16       1.0  0.13713098240155117  0.028022991387260297  0.49365807765691744  1.0000
  N   N17       1.0  0.15338904297686903  0.08827991697732782  0.15715409704343844  1.0000
  N   N18       1.0  0.6533937216823845  0.41171674481662984  0.8428450468600204  1.0000
  N   N19       1.0  0.8466067198045694  0.5882819726986809  0.34284489940502993  1.0000
  N   N20       1.0  0.34661151160773335  0.911719175720563  0.6571546264775636  1.0000
  N   N21       1.0  0.9687013692428863  0.042127385244541  0.1495380220692226  1.0000
  N   N22       1.0  0.4687072729687571  0.45787558883385054  0.8504604417255236  1.0000
  N   N23       1.0  0.0312962550804698  0.542124039453654  0.3504595325627236  1.0000
  N   N24       1.0  0.5312989438420176  0.9578756083326495  0.6495392047677271  1.0000
  O   O1        1.0  0.835916337939544  0.9183550902162168  0.037108781971888  1.0000
  O   O2        1.0  0.3359181869258806  0.5816413180281471  0.9628907337733709  1.0000
  O   O3        1.0  0.16408055298548158  0.41835912506544304  0.46289051206182563  1.0000
  O   O4        1.0  0.6640802280304425  0.08164468274996041  0.5371096210827774  1.0000
