data_image0
_chemical_formula_structural       Mg6H18C42N6O18
_chemical_formula_sum              "Mg6 H18 C42 N6 O18"
_cell_length_a       6.858151034865396
_cell_length_b       24.7895861615887
_cell_length_c       24.790209670437157
_cell_angle_alpha    119.1503901310469
_cell_angle_beta     95.29267283859213
_cell_angle_gamma    95.27644342312225

_space_group_name_H-M_alt    "P 1"
_space_group_IT_number       1

loop_
  _space_group_symop_operation_xyz
  'x, y, z'

loop_
  _atom_site_type_symbol
  _atom_site_label
  _atom_site_symmetry_multiplicity
  _atom_site_fract_x
  _atom_site_fract_y
  _atom_site_fract_z
  _atom_site_occupancy
  Mg  Mg1       1.0  0.64974485722243  0.6204300900220188  0.29610990523557484  1.0000
  Mg  Mg2       1.0  0.06223464309416463  0.37901896581882255  0.7046182362259684  1.0000
  Mg  Mg3       1.0  0.029334634260450725  0.6757120344997104  0.3795406767474532  1.0000
  Mg  Mg4       1.0  0.6833502649220619  0.32544342870399134  0.6208193355168987  1.0000
  Mg  Mg5       1.0  0.35356242354058043  0.7038629198826953  0.32423782990242245  1.0000
  Mg  Mg6       1.0  0.3577463002188708  0.29523556052426864  0.6743951271721187  1.0000
  H   H1        1.0  0.3244358090233135  0.5986024014450066  0.4787306047206954  1.0000
  H   H2        1.0  0.5277910305927874  0.5432942124863016  0.5193232769208009  1.0000
  H   H3        1.0  0.7304117891198842  0.44782840801751433  0.5885228956222193  1.0000
  H   H4        1.0  0.3911538611023033  0.40682133113977403  0.5255788839458404  1.0000
  H   H5        1.0  0.1878927459520056  0.46321270435608136  0.48645209409355056  1.0000
  H   H6        1.0  0.9833151537777383  0.5553615629497984  0.4152377481776597  1.0000
  H   H7        1.0  0.7256976291583896  0.8802910646839949  0.4018784869242893  1.0000
  H   H8        1.0  0.9844659444327988  0.9761010613849166  0.4572179965791463  1.0000
  H   H9        1.0  0.28267236408518676  0.1405538178842178  0.5520283670019381  1.0000
  H   H10       1.0  0.9842271715445462  0.11864565465883463  0.5933284580994425  1.0000
  H   H11       1.0  0.7246366943274368  0.023131893950022697  0.5369790332174205  1.0000
  H   H12       1.0  0.427860826765837  0.859787746403356  0.44466015379631335  1.0000
  H   H13       1.0  0.845268768110529  0.5215847061002281  0.11970630105604851  1.0000
  H   H14       1.0  0.008275199381955553  0.4810811362511771  0.02386782790373592  1.0000
  H   H15       1.0  0.14131692864211232  0.4114808775452588  0.8592878110634247  1.0000
  H   H16       1.0  0.8649397220293339  0.4743886018372124  0.8811503252597744  1.0000
  H   H17       1.0  0.7007697526796621  0.5135543194171035  0.976656916719776  1.0000
  H   H18       1.0  0.5678407721392773  0.5849349978825275  0.1401058672736113  1.0000
  C   C1        1.0  0.7246893019751255  0.5946295992912952  0.4040504624853583  1.0000
  C   C2        1.0  0.5350368827932853  0.6068181694469174  0.4231201121174095  1.0000
  C   C3        1.0  0.4686505835333391  0.5881030492794608  0.4647640735477551  1.0000
  C   C4        1.0  0.5797605186963821  0.5577266000201107  0.487440119508868  1.0000
  C   C5        1.0  0.7666737419141185  0.5457280330993869  0.46868597660926536  1.0000
  C   C6        1.0  0.9478176408466581  0.4590662305853285  0.5360548330573707  1.0000
  C   C7        1.0  0.8763404168425382  0.43901519102098524  0.575277651409266  1.0000
  C   C8        1.0  0.9893797317442934  0.408334033383639  0.5989883068380877  1.0000
  C   C9        1.0  0.17946806580876995  0.39672626212760076  0.5799952326769501  1.0000
  C   C10       1.0  0.24647212983074954  0.4167968230361653  0.5394129912074348  1.0000
  C   C11       1.0  0.13538892379546752  0.44777987681904113  0.5175437908149761  1.0000
  C   C12       1.0  0.3098381987672738  0.3637568440889041  0.6002777512446472  1.0000
  C   C13       1.0  0.8377743260319691  0.5646369027151082  0.42857968218406484  1.0000
  C   C14       1.0  0.4042533699411024  0.6389223557156001  0.40175568036592324  1.0000
  C   C15       1.0  0.12981380605293677  0.8094164014565733  0.40545316497809125  1.0000
  C   C16       1.0  0.9279960472513906  0.8163993980810956  0.39338647330568927  1.0000
  C   C17       1.0  0.8803775978889873  0.8767859935680063  0.41225648266143367  1.0000
  C   C18       1.0  0.021924256623982702  0.9297603487084629  0.4426274924917166  1.0000
  C   C19       1.0  0.22083722384268603  0.9229072152944156  0.4544465944835707  1.0000
  C   C20       1.0  0.48890028696966686  0.0768900407123354  0.540962433771611  1.0000
  C   C21       1.0  0.43740045711281544  0.13614424599182942  0.5608992597548479  1.0000
  C   C22       1.0  0.5810424129042815  0.19050973993530107  0.5915669070279534  1.0000
  C   C23       1.0  0.7826378470081606  0.1830905083910253  0.6032214687782513  1.0000
  C   C24       1.0  0.8296498695421802  0.12244771987423057  0.5832506446726811  1.0000
  C   C25       1.0  0.6876376525860833  0.0696286073273455  0.5523022325306357  1.0000
  C   C26       1.0  0.9459033198392887  0.2363383322508668  0.6361206276409064  1.0000
  C   C27       1.0  0.2730158099408797  0.8638746021901369  0.4354471400259427  1.0000
  C   C28       1.0  0.7651693624212755  0.762936775934648  0.36121201416607823  1.0000
  C   C29       1.0  0.3202836023845563  0.5960695418907705  0.1905044146998308  1.0000
  C   C30       1.0  0.11150877074054215  0.5770375203876198  0.18357059935596007  1.0000
  C   C31       1.0  0.0034637716785965683  0.5355033063347179  0.12320489577318473  1.0000
  C   C32       1.0  0.09200376895206115  0.5128888901839659  0.07019853634442802  1.0000
  C   C33       1.0  0.2977260168223238  0.5315824056325409  0.07697181382194161  1.0000
  C   C34       1.0  0.41118978134424106  0.46396011179940183  0.9229486906369501  1.0000
  C   C35       1.0  0.3004519786994848  0.42469549211016744  0.8637024791562027  1.0000
  C   C36       1.0  0.38980073992363623  0.4009061600454231  0.8093188524458482  1.0000
  C   C37       1.0  0.5988441111766181  0.41991754304820017  0.8166851631034362  1.0000
  C   C38       1.0  0.7064755341638859  0.4605503685639223  0.8773119546662471  1.0000
  C   C39       1.0  0.6172466404182728  0.48243138133695845  0.9301386342863296  1.0000
  C   C40       1.0  0.7090370627549446  0.39963677867356023  0.7634491255724142  1.0000
  C   C41       1.0  0.4089135785822934  0.5716160314231189  0.13599301929992436  1.0000
  C   C42       1.0  0.0021509713954869667  0.5983061376949408  0.23705552072659952  1.0000
  N   N1        1.0  0.8955557127477932  0.5149170303019447  0.4881256784408663  1.0000
  N   N2        1.0  0.8186956518827985  0.4900601085117061  0.5169170866152868  1.0000
  N   N3        1.0  0.38055876476679645  0.9731126178831676  0.4852214197937885  1.0000
  N   N4        1.0  0.3287693632037901  0.026787585387410204  0.5099868288585157  1.0000
  N   N5        1.0  0.40710586653634806  0.5121171486247319  0.026720828340089056  1.0000
  N   N6        1.0  0.3013293276968198  0.48317280872883117  0.9730986079978834  1.0000
  O   O1        1.0  0.24265696072376386  0.6527054535075649  0.42287554270668437  1.0000
  O   O2        1.0  0.4567433370990841  0.6521068021394214  0.3601042315266625  1.0000
  O   O3        1.0  0.8003159833610453  0.6100692789725457  0.36443906829056527  1.0000
  O   O4        1.0  0.4715638104488137  0.35042467330877974  0.5790722596532376  1.0000
  O   O5        1.0  0.2566383336610727  0.34917064577707185  0.6409325123987912  1.0000
  O   O6        1.0  0.9131996616709943  0.39171804298946705  0.6377358006499207  1.0000
  O   O7        1.0  0.5897899097863328  0.7702769242252145  0.3474394908147858  1.0000
  O   O8        1.0  0.8044636727902771  0.7080452744199803  0.34782997591142367  1.0000
  O   O9        1.0  0.19009790088953343  0.7543585865073085  0.38990320375737036  1.0000
  O   O10       1.0  0.12104672168690907  0.2284887163782301  0.6493919694804405  1.0000
  O   O11       1.0  0.907439001719787  0.2916113637448277  0.6507344078732515  1.0000
  O   O12       1.0  0.5214823959310948  0.24586538211003983  0.6081348921369312  1.0000
  O   O13       1.0  0.8194498722912728  0.5771714529307845  0.22971718979525957  1.0000
  O   O14       1.0  0.09640454595138692  0.639837804310922  0.29190591217970774  1.0000
  O   O15       1.0  0.4355627645631301  0.6355523661068787  0.2455745558310696  1.0000
  O   O16       1.0  0.8920071197889924  0.4207967893412389  0.7713368359928197  1.0000
  O   O17       1.0  0.6153680645079618  0.35896721598759024  0.7081901859750275  1.0000
  O   O18       1.0  0.2750863251081697  0.36207072492601355  0.7539589464710373  1.0000
