data_image0
_chemical_formula_structural       Er4H24C24N36
_chemical_formula_sum              "Er4 H24 C24 N36"
_cell_length_a       9.23884834646069
_cell_length_b       9.23886389078011
_cell_length_c       12.582905220346165
_cell_angle_alpha    91.49458051097123
_cell_angle_beta     91.4943646820782
_cell_angle_gamma    119.03041107961997

_space_group_name_H-M_alt    "P 1"
_space_group_IT_number       1

loop_
  _space_group_symop_operation_xyz
  'x, y, z'

loop_
  _atom_site_type_symbol
  _atom_site_label
  _atom_site_symmetry_multiplicity
  _atom_site_fract_x
  _atom_site_fract_y
  _atom_site_fract_z
  _atom_site_occupancy
  Er  Er1       1.0  0.5205298968899186  0.2583472212175905  0.4278099748390217  1.0000
  Er  Er2       1.0  0.7416503131982138  0.4794697552499798  0.0721898198963373  1.0000
  Er  Er3       1.0  0.479467475703906  0.7416503068309054  0.5721909245810508  1.0000
  Er  Er4       1.0  0.25835006888527795  0.5205339665647628  0.9278096632881159  1.0000
  H   H1        1.0  0.2210565276611263  0.29221086105919614  0.2371010177366557  1.0000
  H   H2        1.0  0.7077870853895829  0.7789428271695157  0.2628976556537808  1.0000
  H   H3        1.0  0.7789394001769238  0.7077903805362241  0.7628975402015001  1.0000
  H   H4        1.0  0.29220884432869815  0.2210584163089138  0.7371024918138785  1.0000
  H   H5        1.0  0.13009626379540862  0.5369461077726287  0.273290742636334  1.0000
  H   H6        1.0  0.46305388326249636  0.869906218068877  0.2267100868039265  1.0000
  H   H7        1.0  0.8699001465680211  0.4630538969153264  0.7267093905605435  1.0000
  H   H8        1.0  0.536947102035093  0.13009874381722136  0.7732902258040539  1.0000
  H   H9        1.0  0.9009612981324581  0.2565741167433515  0.33725651389935507  1.0000
  H   H10       1.0  0.7434199626514443  0.09904151590824031  0.16274274105926168  1.0000
  H   H11       1.0  0.09904028356889674  0.7434209338007846  0.6627436233784038  1.0000
  H   H12       1.0  0.2565810254665024  0.9009634488023721  0.8372599558429599  1.0000
  H   H13       1.0  0.9748076102814663  0.010774485953547198  0.4003376173532018  1.0000
  H   H14       1.0  0.9892206941752802  0.0251929210277098  0.09966196326830357  1.0000
  H   H15       1.0  0.02519192627036661  0.9892230408906786  0.5996617333133756  1.0000
  H   H16       1.0  0.010776196833290891  0.9748058448697636  0.9003381556578063  1.0000
  H   H17       1.0  0.1555979602969442  0.891678059561414  0.16140351577022463  1.0000
  H   H18       1.0  0.10832322424917605  0.8444002207139222  0.338596922534002  1.0000
  H   H19       1.0  0.844401579075246  0.10831947010733238  0.838598219190594  1.0000
  H   H20       1.0  0.8916801642741206  0.15559854721977467  0.6614033187200831  1.0000
  H   H21       1.0  0.3605502096085829  0.08526123795335391  0.004865312532714899  1.0000
  H   H22       1.0  0.9147356869239188  0.6394481347106477  0.4951368119815882  1.0000
  H   H23       1.0  0.6394513739730101  0.9147338144737915  0.9951364142745476  1.0000
  H   H24       1.0  0.0852643321532938  0.3605481552261125  0.5048641139437038  1.0000
  C   C1        1.0  0.26338647647973096  0.39036197228778496  0.2983969670622244  1.0000
  C   C2        1.0  0.6096381099261449  0.7366133007441461  0.2016034219641227  1.0000
  C   C3        1.0  0.7366100545724164  0.6096405093789982  0.7016024202994585  1.0000
  C   C4        1.0  0.3903616717635998  0.2633891838237545  0.7983976160910515  1.0000
  C   C5        1.0  0.21759104835603432  0.5116104763812784  0.31677119898722583  1.0000
  C   C6        1.0  0.48838750222528643  0.7824121520156878  0.1832302431105646  1.0000
  C   C7        1.0  0.7824113788769793  0.48839076913338175  0.6832290708084159  1.0000
  C   C8        1.0  0.5116117978792049  0.21759157040118987  0.8167700144506397  1.0000
  C   C9        1.0  0.8305139560330518  0.14755771599182305  0.38223795619084194  1.0000
  C   C10       1.0  0.8524379005601119  0.16948937892406238  0.11776207831908177  1.0000
  C   C11       1.0  0.16948654180906428  0.852437333271446  0.6177613659341787  1.0000
  C   C12       1.0  0.1475652533960739  0.8305155864652958  0.8822406593591339  1.0000
  C   C13       1.0  0.8670562304986688  0.02518627762027849  0.413855591858713  1.0000
  C   C14       1.0  0.9748091312247952  0.13294456263687954  0.08614416876137199  1.0000
  C   C15       1.0  0.13294210056508843  0.97480877002274  0.5861428947255617  1.0000
  C   C16       1.0  0.02519125461917324  0.8670591629438817  0.9138584934820739  1.0000
  C   C17       1.0  0.27419099134812097  0.004448722571630999  0.16884805672319197  1.0000
  C   C18       1.0  0.9955519545924433  0.7258068894168658  0.33115254798245525  1.0000
  C   C19       1.0  0.7258105922334722  0.9955463298555143  0.8311536700840704  1.0000
  C   C20       1.0  0.004451913635882893  0.27419063878483746  0.6688468842361103  1.0000
  C   C21       1.0  0.3768000672847264  0.09994202407979459  0.09055186378459719  1.0000
  C   C22       1.0  0.9000576414892903  0.6232005787817271  0.4094487639846278  1.0000
  C   C23       1.0  0.6232022383194504  0.9000567435145257  0.9094483570814942  1.0000
  C   C24       1.0  0.0999418960026617  0.3767969490040031  0.5905513814466943  1.0000
  N   N1        1.0  0.38116731366717715  0.41334090647086436  0.37369403522264116  1.0000
  N   N2        1.0  0.5866560223628882  0.6188318057884957  0.1263061495544164  1.0000
  N   N3        1.0  0.6188306574401565  0.5866578569414642  0.6263037197972138  1.0000
  N   N4        1.0  0.4133420741337588  0.38116943931018443  0.8736948334539889  1.0000
  N   N5        1.0  0.4067457102054918  0.5448096304991027  0.43451106508924636  1.0000
  N   N6        1.0  0.45518840384281845  0.5932531677497083  0.0654892839676862  1.0000
  N   N7        1.0  0.5932511789228414  0.4551891335153613  0.5654874643073597  1.0000
  N   N8        1.0  0.5448113769068145  0.4067493158766951  0.9345109593227363  1.0000
  N   N9        1.0  0.3097217221297656  0.6061911703015781  0.40255183088100915  1.0000
  N   N10       1.0  0.39380831170814895  0.6902788365152188  0.0974480037547991  1.0000
  N   N11       1.0  0.6902740850195599  0.393807594315021  0.5974474728923482  1.0000
  N   N12       1.0  0.606193154234582  0.30972488658039776  0.9025522945823994  1.0000
  N   N13       1.0  0.6814142009002282  0.11195646019739769  0.4200685024320165  1.0000
  N   N14       1.0  0.8880436110029494  0.31858915364215784  0.07993256967058929  1.0000
  N   N15       1.0  0.3185870199045907  0.8880423051745436  0.5799301085165779  1.0000
  N   N16       1.0  0.11196014710745314  0.6814170527600538  0.9200717921958982  1.0000
  N   N17       1.0  0.629647741536111  0.9728564961897633  0.4726403477624074  1.0000
  N   N18       1.0  0.027142729985421003  0.37035402364841025  0.0273603648321483  1.0000
  N   N19       1.0  0.37035058670728915  0.027138548628741405  0.527355754527619  1.0000
  N   N20       1.0  0.9728625926293688  0.6296509452442008  0.9726447979163098  1.0000
  N   N21       1.0  0.7388435020609306  0.9178879569958694  0.4705487208303438  1.0000
  N   N22       1.0  0.08211107200677498  0.2611585601647377  0.029451764167276896  1.0000
  N   N23       1.0  0.26115651419593183  0.08210833011636963  0.529449820800707  1.0000
  N   N24       1.0  0.9178891893879995  0.7388426846711837  0.9705484648523708  1.0000
  N   N25       1.0  0.35177625277435715  0.07548847157794109  0.26418529886505837  1.0000
  N   N26       1.0  0.9245115367086356  0.6482213867659752  0.23581448483225384  1.0000
  N   N27       1.0  0.6482261753987755  0.9245127748782167  0.7358157656953279  1.0000
  N   N28       1.0  0.0754863137099804  0.3517748996675252  0.7641840160228027  1.0000
  N   N29       1.0  0.4953295418629295  0.2079102661710976  0.2439911848987038  1.0000
  N   N30       1.0  0.7920904506374881  0.5046687180361147  0.2560094029795081  1.0000
  N   N31       1.0  0.5046744479942332  0.7920897399509459  0.756008296249412  1.0000
  N   N32       1.0  0.20790848458047856  0.49532757061976446  0.7439907077930386  1.0000
  N   N33       1.0  0.5138750127474837  0.22669643399313344  0.1394462344607703  1.0000
  N   N34       1.0  0.7733028940307564  0.48612406786423173  0.3605543430633701  1.0000
  N   N35       1.0  0.48612620899745457  0.7733023323203129  0.8605531712525759  1.0000
  N   N36       1.0  0.22669556054207624  0.5138734595821363  0.6394457819799584  1.0000
