data_image0
_chemical_formula_structural       Mn4H28C24N36O4
_chemical_formula_sum              "Mn4 H28 C24 N36 O4"
_cell_length_a       10.008928138832372
_cell_length_b       9.976323728647191
_cell_length_c       11.209943134643305
_cell_angle_alpha    109.51315065211598
_cell_angle_beta     90.07850072332204
_cell_angle_gamma    89.86404521793577

_space_group_name_H-M_alt    "P 1"
_space_group_IT_number       1

loop_
  _space_group_symop_operation_xyz
  'x, y, z'

loop_
  _atom_site_type_symbol
  _atom_site_label
  _atom_site_symmetry_multiplicity
  _atom_site_fract_x
  _atom_site_fract_y
  _atom_site_fract_z
  _atom_site_occupancy
  Mn  Mn1       1.0  0.11019273779683665  0.3840606458821297  0.5252756058757838  1.0000
  Mn  Mn2       1.0  0.3884461279525553  0.8827564177957895  0.525332007580644  1.0000
  Mn  Mn3       1.0  0.8925904176209514  0.6150129571702435  0.4737903477178874  1.0000
  Mn  Mn4       1.0  0.6088039706642902  0.11632458506044688  0.4737550198592614  1.0000
  H   H1        1.0  0.8845727085527103  0.2660290665169994  0.6249221216499092  1.0000
  H   H2        1.0  0.6151150428343969  0.7652995556173747  0.6250207884490564  1.0000
  H   H3        1.0  0.11631114903185852  0.7353173334541552  0.3750509835330859  1.0000
  H   H4        1.0  0.38412126793548407  0.23605379389857717  0.37494145636895126  1.0000
  H   H5        1.0  0.7854428314567486  0.24188477950993806  0.9243665719615063  1.0000
  H   H6        1.0  0.7155994253106926  0.7418399369936922  0.9246438603283876  1.0000
  H   H7        1.0  0.21525338401412603  0.7579890006725593  0.07488774448994917  1.0000
  H   H8        1.0  0.2837790848965441  0.2578864566766086  0.07453866521762359  1.0000
  H   H9        1.0  0.8111356339896361  0.1498530225072088  0.7583400632716816  1.0000
  H   H10       1.0  0.6892207851862152  0.6497974305197332  0.758739911510574  1.0000
  H   H11       1.0  0.18936725666456064  0.8511075731499106  0.24063629807599082  1.0000
  H   H12       1.0  0.31024704160920896  0.3511171492318965  0.24018210779482974  1.0000
  H   H13       1.0  0.7549294564704212  0.3311994597071219  0.8119498413473636  1.0000
  H   H14       1.0  0.7453954154442998  0.8308891528584322  0.8120323227145999  1.0000
  H   H15       1.0  0.24601276551788231  0.6698520706940913  0.18811205174430506  1.0000
  H   H16       1.0  0.25376149265066067  0.17006925668609088  0.18800792489063403  1.0000
  H   H17       1.0  0.14111657429205593  0.3921121409692958  0.9956181988881025  1.0000
  H   H18       1.0  0.35890339710184094  0.8913140583660706  0.9957936351971526  1.0000
  H   H19       1.0  0.8593081736996667  0.6079753945479993  0.0043456767540633  1.0000
  H   H20       1.0  0.640574156184087  0.10873332281707351  0.004056397311416  1.0000
  H   H21       1.0  0.5041974740269667  0.518686766422462  0.8889822365410252  1.0000
  H   H22       1.0  0.9954139409116749  0.01910204536421386  0.8892127261502265  1.0000
  H   H23       1.0  0.4967056661808584  0.48137251049355  0.11200816662352509  1.0000
  H   H24       1.0  0.0036376625190044014  0.98094064866855  0.11150580026067297  1.0000
  H   H25       1.0  0.413383904091546  0.4708265854012551  0.6653362144658032  1.0000
  H   H26       1.0  0.0862606871969973  0.9719870135148553  0.6657504753821326  1.0000
  H   H27       1.0  0.5884446667041701  0.5288304484975298  0.3353676172676855  1.0000
  H   H28       1.0  0.9120468347495675  0.027651831092896394  0.334677199429933  1.0000
  C   C1        1.0  0.8169657677145709  0.25248948596115645  0.8349743577768931  1.0000
  C   C2        1.0  0.6836080179679769  0.7524925868271027  0.835322820040119  1.0000
  C   C3        1.0  0.18377080944826932  0.748055119071914  0.16452899455679668  1.0000
  C   C4        1.0  0.315704889066197  0.24798073464518208  0.16414867237202194  1.0000
  C   C5        1.0  0.0190076140791007  0.3244086800982159  0.7605233506651526  1.0000
  C   C6        1.0  0.4810319507298716  0.8242822574652847  0.7609368766638768  1.0000
  C   C7        1.0  0.9819781495733935  0.6759469762235496  0.23922233545481214  1.0000
  C   C8        1.0  0.5180375401092193  0.1760401868579322  0.2387807167149774  1.0000
  C   C9        1.0  0.15512475286833902  0.38038917740064454  0.7993719791827303  1.0000
  C   C10       1.0  0.3448376873503705  0.8805200773884039  0.7997644563644996  1.0000
  C   C11       1.0  0.8459375441686918  0.6196096501575354  0.200608790799393  1.0000
  C   C12       1.0  0.6541114726688022  0.11941486296863955  0.20008881052012129  1.0000
  C   C13       1.0  0.20383609673136494  0.40954443443630584  0.9225408665601478  1.0000
  C   C14       1.0  0.2961133882384673  0.9092006904177198  0.9227733855462998  1.0000
  C   C15       1.0  0.7968756169887429  0.5904514437752226  0.07757117189335357  1.0000
  C   C16       1.0  0.7031066122526042  0.09073523909285798  0.07718866254766248  1.0000
  C   C17       1.0  0.4024974373186511  0.48048131198727617  0.8629571145337636  1.0000
  C   C18       1.0  0.09716574991873023  0.9807182675813381  0.8632110977300796  1.0000
  C   C19       1.0  0.5984694844957376  0.5195020850534107  0.1377050608228956  1.0000
  C   C20       1.0  0.9018058787259093  0.019173385344409204  0.1372138698665921  1.0000
  C   C21       1.0  0.3536590335187101  0.45339706269913893  0.7401469884784573  1.0000
  C   C22       1.0  0.14599282383262852  0.9540498392617778  0.7405220406760904  1.0000
  C   C23       1.0  0.6476955697001402  0.5464657867897458  0.26036459695200875  1.0000
  C   C24       1.0  0.85265515669731  0.04569127366912076  0.25975296773366807  1.0000
  N   N1        1.0  0.979821232039612  0.3049913789543908  0.6465386168791196  1.0000
  N   N2        1.0  0.5196601117485643  0.8039611134464693  0.6467301205477155  1.0000
  N   N3        1.0  0.021294927986701902  0.6958130936678515  0.35326348645673983  1.0000
  N   N4        1.0  0.47930603220633833  0.19677165931700097  0.3530474681616765  1.0000
  N   N5        1.0  0.2299523956873415  0.40332213719270976  0.7085532786667625  1.0000
  N   N6        1.0  0.26989425128871153  0.9041346494751678  0.7091051487008357  1.0000
  N   N7        1.0  0.7714368375033018  0.5965988981544754  0.2916050151661267  1.0000
  N   N8        1.0  0.7287733488054046  0.09573634814049109  0.290896208996024  1.0000
  N   N9        1.0  0.327485119862132  0.45950120412670964  0.9543884074016302  1.0000
  N   N10       1.0  0.1723269635042683  0.959256611401514  0.9545452487376663  1.0000
  N   N11       1.0  0.6731398747233115  0.5405643675747029  0.04609720007270819  1.0000
  N   N12       1.0  0.8269591648019913  0.04073192196001679  0.045742149238655785  1.0000
  N   N13       1.0  0.024664217587385906  0.6001507234105502  0.6214394438905657  1.0000
  N   N14       1.0  0.4763518834810371  0.09896164377232704  0.6204163574132905  1.0000
  N   N15       1.0  0.9762375669858374  0.3995775452070802  0.37857342178232045  1.0000
  N   N16       1.0  0.522751566733362  0.9006957977206796  0.37956737469544777  1.0000
  N   N17       1.0  0.0012858936808441998  0.6365305690517928  0.7335835151796671  1.0000
  N   N18       1.0  0.4993256208787429  0.1359511737458377  0.7327312663337437  1.0000
  N   N19       1.0  0.9990925725118204  0.36293818365082586  0.2663092004526958  1.0000
  N   N20       1.0  0.5002395201197701  0.8635420383983287  0.26713293768555957  1.0000
  N   N21       1.0  0.9815012000425866  0.6689738727253243  0.8421250642490958  1.0000
  N   N22       1.0  0.518904428190048  0.1688555389015676  0.841404275862203  1.0000
  N   N23       1.0  0.018518859213237704  0.3302145713871383  0.15769190224220606  1.0000
  N   N24       1.0  0.4809875553835212  0.8304908703978738  0.15840847483804765  1.0000
  N   N25       1.0  0.17428152995892526  0.17524390562248732  0.41570886296873505  1.0000
  N   N26       1.0  0.32649808610946723  0.6744440810655447  0.41488945553571444  1.0000
  N   N27       1.0  0.8251013732852074  0.8250312707912356  0.5861466949913207  1.0000
  N   N28       1.0  0.6739469392877951  0.32588388689029557  0.5871386256184222  1.0000
  N   N29       1.0  0.1934655821886722  0.07359920473150795  0.44579816279319573  1.0000
  N   N30       1.0  0.3061590545078873  0.573222456847077  0.44518687372612925  1.0000
  N   N31       1.0  0.8066286838366283  0.9258386606611494  0.5547607255805216  1.0000
  N   N32       1.0  0.6936845083741688  0.42623362705529627  0.5554958245284921  1.0000
  N   N33       1.0  0.21159872064432508  0.9697725297521771  0.4726486823180735  1.0000
  N   N34       1.0  0.286916127906899  0.4698043273093688  0.47219999670931395  1.0000
  N   N35       1.0  0.7893228170318168  0.028731161175279907  0.5264799618812432  1.0000
  N   N36       1.0  0.7121791401718626  0.5286622163236528  0.5270035942018793  1.0000
  O   O1        1.0  0.9538768334066959  0.30022808037026033  0.8553897466994512  1.0000
  O   O2        1.0  0.5467378541344488  0.8008215928125607  0.8560505904746802  1.0000
  O   O3        1.0  0.0469561709602928  0.6999647656324085  0.14424096049904728  1.0000
  O   O4        1.0  0.4524666181848218  0.1993531412057834  0.1435720106207725  1.0000
