data_image0
_chemical_formula_structural       Zn2H2C22Br8N2O12
_chemical_formula_sum              "Zn2 H2 C22 Br8 N2 O12"
_cell_length_a       9.905878874591043
_cell_length_b       10.957382637561713
_cell_length_c       13.869912896943013
_cell_angle_alpha    79.44163816992415
_cell_angle_beta     93.17463855803139
_cell_angle_gamma    97.20006774064348

_space_group_name_H-M_alt    "P 1"
_space_group_IT_number       1

loop_
  _space_group_symop_operation_xyz
  'x, y, z'

loop_
  _atom_site_type_symbol
  _atom_site_label
  _atom_site_symmetry_multiplicity
  _atom_site_fract_x
  _atom_site_fract_y
  _atom_site_fract_z
  _atom_site_occupancy
  Zn  Zn1       1.0  0.6496467316308597  0.5150470337452191  0.5205725696967676  1.0000
  Zn  Zn2       1.0  0.3503061075501178  0.4848776420683052  0.47945987712864735  1.0000
  H   H1        1.0  0.6127218485545924  0.75866724256047  0.7917481173280124  1.0000
  H   H2        1.0  0.3873357278626486  0.24135299937255192  0.20833542503667965  1.0000
  C   C1        1.0  0.49288251782994064  0.7335289610945425  0.49919256984762234  1.0000
  C   C2        1.0  0.06912754870705838  0.5732346466116454  0.42464830482080634  1.0000
  C   C3        1.0  0.44226563544982156  0.4584861867416734  0.7899467963766185  1.0000
  C   C4        1.0  0.5575651691946746  0.5414668308769065  0.2100554609781682  1.0000
  C   C5        1.0  0.4474350672394678  0.46932179369098037  0.9763261759510087  1.0000
  C   C6        1.0  0.5525331970498045  0.5307044688077979  0.023654047349417315  1.0000
  C   C7        1.0  0.5583105674353419  0.5387272542300962  0.12249567946913233  1.0000
  C   C8        1.0  0.4416504305047937  0.46120638592505975  0.8775154901907243  1.0000
  C   C9        1.0  0.5027750676759126  0.9147649573749702  0.5891346310910565  1.0000
  C   C10       1.0  0.49741106869007706  0.08519545345750858  0.4108718569907381  1.0000
  C   C11       1.0  0.5073259584334835  0.0429706445181779  0.5885161001787581  1.0000
  C   C12       1.0  0.5073665871778914  0.2664235255418602  0.5008368014386662  1.0000
  C   C13       1.0  0.4928290849244945  0.9569795976295904  0.4114826233744894  1.0000
  C   C14       1.0  0.5001747395138308  0.8202757557421093  0.6828610376302748  1.0000
  C   C15       1.0  0.49995095356193525  0.17969187191272337  0.3171595802750319  1.0000
  C   C16       1.0  0.5057736280031335  0.12856375110519017  0.500467145745155  1.0000
  C   C17       1.0  0.4944154433131089  0.871414658004909  0.4995356236683294  1.0000
  C   C18       1.0  0.5402249714092378  0.5329963835552007  0.31395501404735177  1.0000
  C   C19       1.0  0.4594807194697452  0.46692796602732056  0.6860435437931045  1.0000
  C   C20       1.0  0.056182782552333776  0.3975288664158398  0.5470665747829386  1.0000
  C   C21       1.0  0.9437871686523207  0.6024983508416  0.45288593816948725  1.0000
  C   C22       1.0  0.9308512421985496  0.4268441431560035  0.5753273683660041  1.0000
  Br  Br1       1.0  0.12251534577522699  0.2482552477212678  0.6051540743575502  1.0000
  Br  Br2       1.0  0.8774261723484502  0.7517671622462743  0.3947843586502131  1.0000
  Br  Br3       1.0  0.8447708984724045  0.3334469723250919  0.6860627579592773  1.0000
  Br  Br4       1.0  0.15532944692365896  0.6667800663047956  0.3140180800899088  1.0000
  Br  Br5       1.0  0.7063379196342154  0.6116102007784646  0.9488590034448735  1.0000
  Br  Br6       1.0  0.2936217682963331  0.3884815850926842  0.0511422707785698  1.0000
  Br  Br7       1.0  0.5048204679468569  0.10264495774361392  0.7090328257517129  1.0000
  Br  Br8       1.0  0.49529168554017383  0.8973208051774147  0.2909614517776191  1.0000
  N   N1        1.0  0.8744733234707027  0.5261192267024127  0.5254307602434735  1.0000
  N   N2        1.0  0.12547672297868928  0.47391644747006023  0.4745274168429177  1.0000
  O   O1        1.0  0.6076902960389746  0.6928148845348402  0.5169596618165855  1.0000
  O   O2        1.0  0.6212791069981733  0.8242667327184067  0.7325364929813674  1.0000
  O   O3        1.0  0.5999225570442731  0.2527669926309315  0.29116752207843893  1.0000
  O   O4        1.0  0.3788019100894858  0.17571509856221468  0.2675393640488154  1.0000
  O   O5        1.0  0.3925169548223977  0.3071396357532592  0.48326088980201126  1.0000
  O   O6        1.0  0.379415523160354  0.6733414418660787  0.4818740534507384  1.0000
  O   O7        1.0  0.6208821759417446  0.32661290083396466  0.5179752535626889  1.0000
  O   O8        1.0  0.6466412055232026  0.5393293472571302  0.3689538959279943  1.0000
  O   O9        1.0  0.35300425160173887  0.460906269924891  0.6310529846191456  1.0000
  O   O10       1.0  0.41650885354654565  0.5187136798640709  0.3385373372874696  1.0000
  O   O11       1.0  0.5831638940483826  0.48088544449811377  0.661420272745211  1.0000
  O   O12       1.0  0.4002030352433578  0.7472440530790506  0.7087849634456092  1.0000
