data_image0
_chemical_formula_structural       Co2H44C64N8O14
_chemical_formula_sum              "Co2 H44 C64 N8 O14"
_cell_length_a       9.86802539293696
_cell_length_b       11.34500407850353
_cell_length_c       13.386
_cell_angle_alpha    89.36983495343496
_cell_angle_beta     76.57981418944796
_cell_angle_gamma    68.71837975696756

_space_group_name_H-M_alt    "P 1"
_space_group_IT_number       1

loop_
  _space_group_symop_operation_xyz
  'x, y, z'

loop_
  _atom_site_type_symbol
  _atom_site_label
  _atom_site_symmetry_multiplicity
  _atom_site_fract_x
  _atom_site_fract_y
  _atom_site_fract_z
  _atom_site_occupancy
  Co  Co1       1.0  0.3325646706699032  0.9210488080843576  0.0715703908029326  1.0000
  Co  Co2       1.0  0.667432730791873  0.078957615882068  0.9284321603564365  1.0000
  H   H1        1.0  0.200410412748468  0.8631905926096408  0.9049970293843757  1.0000
  H   H2        1.0  0.7995890668199765  0.1368110860796108  0.09500371635546397  1.0000
  H   H3        1.0  0.23535176122992865  0.6816695050371209  0.7864197069480312  1.0000
  H   H4        1.0  0.7646477183385229  0.3183321736521307  0.21358029174264462  1.0000
  H   H5        1.0  0.6339476623960182  0.46960876265585233  0.886458198879268  1.0000
  H   H6        1.0  0.366050149150226  0.530391966977966  0.113541346998737  1.0000
  H   H7        1.0  0.5842290312529811  0.6617735069200066  0.0003146183992300227  1.0000
  H   H8        1.0  0.4157712795581361  0.3382262736583783  0.9996852557629625  1.0000
  H   H9        1.0  0.4223081565930968  0.4273957260096354  0.48381439284608524  1.0000
  H   H10       1.0  0.5776906967749227  0.572605003624183  0.5161857218307091  1.0000
  H   H11       1.0  0.5768861805428216  0.2479369358950692  0.3506727248464685  1.0000
  H   H12       1.0  0.4231122572038544  0.7520647427941825  0.6493267050454251  1.0000
  H   H13       1.0  0.7372135638135261  0.0136227416987751  0.5861614888934668  1.0000
  H   H14       1.0  0.2627873731980301  0.9863779879350432  0.41383826928260004  1.0000
  H   H15       1.0  0.5931518761740122  0.19413498334501614  0.7177286195350945  1.0000
  H   H16       1.0  0.40684801901576856  0.8058657462888021  0.2822713168913396  1.0000
  H   H17       1.0  0.6429248422302579  0.8512324941419962  0.3973563521275737  1.0000
  H   H18       1.0  0.3570754685808666  0.1487672864363816  0.602642774985462  1.0000
  H   H19       1.0  0.7887926740032611  0.6243266266630414  0.3989232567542658  1.0000
  H   H20       1.0  0.21120659498608765  0.3756731539153435  0.601076795658287  1.0000
  H   H21       1.0  0.178352545219397  0.7092585465017578  0.409149537651679  1.0000
  H   H22       1.0  0.8216477655917204  0.2907412340766271  0.5908503365105136  1.0000
  H   H23       1.0  0.028726198622045777  0.9404171313802009  0.4059172664841384  1.0000
  H   H24       1.0  0.9712734859886325  0.05958170014275051  0.5940834707133292  1.0000
  H   H25       1.0  0.9069376784087594  0.2753181342196669  0.3272642747233974  1.0000
  H   H26       1.0  0.09306430042456536  0.7246825954141514  0.6727345581531452  1.0000
  H   H27       1.0  0.032068900278751804  0.0696094198577555  0.2184654005664441  1.0000
  H   H28       1.0  0.967930994911036  0.9303913097760629  0.7815345358599899  1.0000
  H   H29       1.0  0.44951496742705643  0.0935047375734968  0.1779485734969555  1.0000
  H   H30       1.0  0.5504855539631633  0.9064969411157549  0.8220504998941962  1.0000
  H   H31       1.0  0.3436009844180957  0.297717740571521  0.2867997296228212  1.0000
  H   H32       1.0  0.65640036821479  0.7022820400068639  0.7131999662890038  1.0000
  H   H33       1.0  0.2800337436548475  0.3842677999251052  0.8867068895100446  1.0000
  H   H34       1.0  0.7199651097131722  0.6157329297087131  0.1132932251667498  1.0000
  H   H35       1.0  0.042408957832897394  0.5313846789618708  0.8505108515144785  1.0000
  H   H36       1.0  0.957590726777788  0.46861415256108074  0.14948839158467564  1.0000
  H   H37       1.0  0.8480297828814187  0.44821420600854367  0.8297035569570284  1.0000
  H   H38       1.0  0.151968859907491  0.5517846255144079  0.17029661144164981  1.0000
  H   H39       1.0  0.1134957889304715  0.0808376946966973  0.9044133269950478  1.0000
  H   H40       1.0  0.8865063949450869  0.9191601877708138  0.09558549733913677  1.0000
  H   H41       1.0  0.5799977622008541  0.3830055561979647  0.7618859649561571  1.0000
  H   H42       1.0  0.42000171736759734  0.6169961224912868  0.23811478078368256  1.0000
  H   H43       1.0  0.9254063646296231  0.4625534845599404  0.36686978199653464  1.0000
  H   H44       1.0  0.07459353056016486  0.5374472450738779  0.6331301544299067  1.0000
  C   C1        1.0  0.29733778572330755  0.774996769244474  0.8975970553998422  1.0000
  C   C2        1.0  0.7026610676447049  0.2250039603893441  0.10240380632611595  1.0000
  C   C3        1.0  0.3158786460376178  0.67354464146716  0.8315963831935208  1.0000
  C   C4        1.0  0.6841218753526023  0.3264570372220916  0.1684026901976381  1.0000
  C   C5        1.0  0.4414653025689007  0.5607218805358158  0.8246338368481858  1.0000
  C   C6        1.0  0.5585339664204483  0.43927790004256206  0.17536621556436674  1.0000
  C   C7        1.0  0.5385002812789849  0.5568924418598726  0.887717725635774  1.0000
  C   C8        1.0  0.4614985720890346  0.4431082877739457  0.11228313609018416  1.0000
  C   C9        1.0  0.5105748190660648  0.6627405944071896  0.9508045187525412  1.0000
  C   C10       1.0  0.4894240343019476  0.3372601352266287  0.04919559592426032  1.0000
  C   C11       1.0  0.4145301358633516  0.43954932989667134  0.6819107135004928  1.0000
  C   C12       1.0  0.5854697593264362  0.560451399737147  0.31808922292594133  1.0000
  C   C13       1.0  0.5018730630273324  0.3250173201288007  0.6089711738071841  1.0000
  C   C14       1.0  0.49812787398422387  0.6749834095050176  0.3910285843688898  1.0000
  C   C15       1.0  0.49476326478239935  0.3380620870683089  0.5055396587534206  1.0000
  C   C16       1.0  0.5052362147860522  0.6619395916209427  0.4944603399372626  1.0000
  C   C17       1.0  0.578869824355003  0.2383068704068805  0.4314047209323563  1.0000
  C   C18       1.0  0.42112965521344853  0.7616948082823711  0.5685952777583267  1.0000
  C   C19       1.0  0.6689140580168313  0.1225856941802874  0.46012972933438323  1.0000
  C   C20       1.0  0.3310862527942859  0.8774140863980975  0.5398708918769588  1.0000
  C   C21       1.0  0.6718134485035776  0.1054429058770268  0.563519732842835  1.0000
  C   C22       1.0  0.3281874885079788  0.8945578237567915  0.4364792782840752  1.0000
  C   C23       1.0  0.5899835218774426  0.20773589676880994  0.6373572876833508  1.0000
  C   C24       1.0  0.41001637331234536  0.7922648328650083  0.36264190169393373  1.0000
  C   C25       1.0  0.8290814459680718  0.9070673234315549  0.3995357341231768  1.0000
  C   C26       1.0  0.1709188648430455  0.09293245714683  0.6004633929898591  1.0000
  C   C27       1.0  0.7598563726588309  0.8194078182756925  0.4009485713228075  1.0000
  C   C28       1.0  0.24014248070918845  0.1805929113581257  0.5990507963048373  1.0000
  C   C29       1.0  0.8441737356005632  0.6912065630927842  0.40151754479409624  1.0000
  C   C30       1.0  0.15582615958921764  0.3087941665410341  0.5984816445831813  1.0000
  C   C31       1.0  0.9964913055858419  0.6504000265996694  0.40168879540483715  1.0000
  C   C32       1.0  0.0035085896039391213  0.3496007030341488  0.5983103939724472  1.0000
  C   C33       1.0  0.06059424589587081  0.7412796768428862  0.40792389669867657  1.0000
  C   C34       1.0  0.9394060649152466  0.2587201037354916  0.592075230414359  1.0000
  C   C35       1.0  0.9775878233110761  0.8698320825363552  0.4063596871567228  1.0000
  C   C36       1.0  0.0224114456782729  0.1301676980420297  0.5936411123049867  1.0000
  C   C37       1.0  0.0999982498923089  0.5145000337366454  0.383378131370101  1.0000
  C   C38       1.0  0.9000031027405839  0.4854997468417395  0.6166215645417238  1.0000
  C   C39       1.0  0.11442803752392193  0.3072937098999731  0.3121212938352826  1.0000
  C   C40       1.0  0.8855728994876346  0.6927070197338452  0.687878464340784  1.0000
  C   C41       1.0  0.027960867895565414  0.23771655792697294  0.2953108330945967  1.0000
  C   C42       1.0  0.972040069115991  0.7622841717068454  0.7046889250814702  1.0000
  C   C43       1.0  0.09691758550339807  0.12360118349459981  0.23506197835597226  1.0000
  C   C44       1.0  0.9030812678646143  0.8763995461392186  0.7649373892716723  1.0000
  C   C45       1.0  0.3294641897768003  0.1360157776259712  0.2130221652951931  1.0000
  C   C46       1.0  0.6705363316134199  0.8639859010632804  0.7869769080959657  1.0000
  C   C47       1.0  0.2707253989668743  0.2508002361392627  0.2729971998126004  1.0000
  C   C48       1.0  0.7292744962229136  0.7492004934945555  0.7270027366138337  1.0000
  C   C49       1.0  0.3530981080946276  0.1329655134612864  0.9196374649218058  1.0000
  C   C50       1.0  0.6469009503156186  0.8670323690062317  0.08036264121262353  1.0000
  C   C51       1.0  0.2125317565972367  0.2227822216184947  0.8968635863532839  1.0000
  C   C52       1.0  0.7874679280134487  0.777216609904457  0.10313789789334042  1.0000
  C   C53       1.0  0.1919046833381017  0.3500685873630829  0.8816274840486287  1.0000
  C   C54       1.0  0.808096043094352  0.6499302441598687  0.11837232784932182  1.0000
  C   C55       1.0  0.05923814731311685  0.43193316003930704  0.8604066810757802  1.0000
  C   C56       1.0  0.9407619529189051  0.5680647224282112  0.13959324680828905  1.0000
  C   C57       1.0  0.9495618657832594  0.38597040537359106  0.8499777223181582  1.0000
  C   C58       1.0  0.05043927627052372  0.61402747709392  0.1500220273155435  1.0000
  C   C59       1.0  0.9689994498872423  0.2589165582103234  0.8648085688300711  1.0000
  C   C60       1.0  0.030999819102106668  0.7410832223680615  0.1351914835824815  1.0000
  C   C61       1.0  0.09942454708031788  0.1787137815989226  0.8905372279928372  1.0000
  C   C62       1.0  0.9005751375303674  0.8212850499240217  0.10946201510632396  1.0000
  C   C63       1.0  0.8504009694511652  0.20945938143684373  0.8562529340333569  1.0000
  C   C64       1.0  0.1496003831817205  0.7905403991415412  0.14374825597678154  1.0000
  N   N1        1.0  0.3921074774025541  0.771924676804808  0.9566097978138404  1.0000
  N   N2        1.0  0.6078917915867946  0.2280751037735769  0.04339100164786912  1.0000
  N   N3        1.0  0.4802985458363835  0.4535441013255479  0.7587870015234658  1.0000
  N   N4        1.0  0.5197013493534044  0.5464566283082704  0.24121293490296844  1.0000
  N   N5        1.0  0.03843535776415758  0.429160969116765  0.3603738131360999  1.0000
  N   N6        1.0  0.9615649530469595  0.5708388114616199  0.6396260610260924  1.0000
  N   N7        1.0  0.24594894918608648  0.0728941007146204  0.1912620396710878  1.0000
  N   N8        1.0  0.7540511565827969  0.9271085270300645  0.8087378430334696  1.0000
  O   O1        1.0  0.29408379447794897  0.5193069995095456  0.6706058876926948  1.0000
  O   O2        1.0  0.705916100711832  0.48069373012426553  0.32939404873373956  1.0000
  O   O3        1.0  0.7514173894663899  0.0313397085395621  0.3803232014634261  1.0000
  O   O4        1.0  0.24858458936693495  0.9686610210942561  0.6196771255114302  1.0000
  O   O5        1.0  0.23432540133782007  0.4811663597303736  0.3831056794105976  1.0000
  O   O6        1.0  0.7656749094732973  0.5188334208480114  0.616893447702438  1.0000
  O   O7        1.0  0.34865375658791453  0.0339078525438055  0.9635787999907137  1.0000
  O   O8        1.0  0.6513469643076707  0.9660862337019723  0.03641732184096466  1.0000
  O   O9        1.0  0.4719276369715928  0.1579342128728101  0.8906214864706428  1.0000
  O   O10       1.0  0.5280707952382214  0.8420627205392748  0.10938022974821852  1.0000
  O   O11       1.0  0.8662187885895706  0.0986049614754876  0.8889404201162493  1.0000
  O   O12       1.0  0.13378193784288325  0.9013938700474569  0.11106088588000775  1.0000
  O   O13       1.0  0.7397917506684807  0.2749593912656394  0.822226553892186  1.0000
  O   O14       1.0  0.26020689212043635  0.7250394402573122  0.17777585565395534  1.0000
