data_image0
_chemical_formula_structural       Zn4H74C86N16O8
_chemical_formula_sum              "Zn4 H74 C86 N16 O8"
_cell_length_a       19.87553963273976
_cell_length_b       19.61118330655036
_cell_length_c       19.910332018046354
_cell_angle_alpha    105.08444776710209
_cell_angle_beta     110.79435344842722
_cell_angle_gamma    112.21631330025744

_space_group_name_H-M_alt    "P 1"
_space_group_IT_number       1

loop_
  _space_group_symop_operation_xyz
  'x, y, z'

loop_
  _atom_site_type_symbol
  _atom_site_label
  _atom_site_symmetry_multiplicity
  _atom_site_fract_x
  _atom_site_fract_y
  _atom_site_fract_z
  _atom_site_occupancy
  Zn  Zn1       1.0  0.8910188417040458  0.880863029492623  0.4953583537169235  1.0000
  Zn  Zn2       1.0  0.10680491534537853  0.10593893870001378  0.4973383000792992  1.0000
  Zn  Zn3       1.0  0.09915419302311085  0.006680586055026234  0.6091133027242606  1.0000
  Zn  Zn4       1.0  0.8991476455952848  0.9814088446008353  0.38656578088193044  1.0000
  H   H1        1.0  0.32176636617444393  0.7704710631735594  0.40166646846405013  1.0000
  H   H2        1.0  0.7228789326654947  0.6099363863758498  0.9807539060153728  1.0000
  H   H3        1.0  0.8400509279326585  0.047318831576134715  0.8743868005711306  1.0000
  H   H4        1.0  0.11200789684294676  0.24230874537377636  0.1334055203914487  1.0000
  H   H5        1.0  0.8478146542349521  0.054802307918357905  0.0035256652907592113  1.0000
  H   H6        1.0  0.10440631104202677  0.23460695068844467  0.0043300251061708615  1.0000
  H   H7        1.0  0.11853706683594094  0.2549829026219043  0.6241925356591052  1.0000
  H   H8        1.0  0.8879374437607054  0.7121835004150511  0.5064428134210316  1.0000
  H   H9        1.0  0.29037717154566417  0.14447093218583262  0.7737408185113495  1.0000
  H   H10       1.0  0.9055057155704844  0.859685678027482  0.242644662898364  1.0000
  H   H11       1.0  0.7056394086498513  0.952909443542296  0.3105335020621707  1.0000
  H   H12       1.0  0.47790368639898156  0.023841617290273162  0.3851696893243286  1.0000
  H   H13       1.0  0.13275262371875823  0.8710453705981533  0.5215188528800563  1.0000
  H   H14       1.0  0.7130968845000965  0.8631371433534482  0.48848590253554364  1.0000
  H   H15       1.0  0.1441060814661625  0.00299075147581357  0.3777509087099347  1.0000
  H   H16       1.0  0.8466460138524425  0.08919946208094845  0.4870840905879064  1.0000
  H   H17       1.0  0.1485339046472161  0.8882819730861867  0.6949683539547135  1.0000
  H   H18       1.0  0.11026726437636107  0.14800065304286392  0.7508296001810847  1.0000
  H   H19       1.0  0.8655700881677718  0.018242648480196418  0.22772233389711255  1.0000
  H   H20       1.0  0.7669459148886162  0.8645633105843729  0.6692961122746296  1.0000
  H   H21       1.0  0.8783458339882485  0.9208449497747536  0.7365825401423435  1.0000
  H   H22       1.0  0.7828368567257654  0.779776518641725  0.5646002410833046  1.0000
  H   H23       1.0  0.11779863599026189  0.48512458121924606  0.7088059509125201  1.0000
  H   H24       1.0  0.8934807768821572  0.8373515039704245  0.6298424211099201  1.0000
  H   H25       1.0  0.8777038535078462  0.7828575980302119  0.727672253843096  1.0000
  H   H26       1.0  0.8311134196769318  0.7016969851170529  0.630854861556152  1.0000
  H   H27       1.0  0.7661786278778562  0.7240825386217506  0.66349541710003  1.0000
  H   H28       1.0  0.2534169993466193  0.24534042360585323  0.3665949120380176  1.0000
  H   H29       1.0  0.1534197093181291  0.2001206561336062  0.27852779054398974  1.0000
  H   H30       1.0  0.22761267480981223  0.10582715813967525  0.34827660144968314  1.0000
  H   H31       1.0  0.12467210365084473  0.05853982822341664  0.2652057367631144  1.0000
  H   H32       1.0  0.18487241394449677  0.11350722014402238  0.18614512922019336  1.0000
  H   H33       1.0  0.2249418486589931  0.053515638285574624  0.2179459381867019  1.0000
  H   H34       1.0  0.8721246793872552  0.4988571459381601  0.5444436491407031  1.0000
  H   H35       1.0  0.28888148395245844  0.16308400333410586  0.2689927833573619  1.0000
  H   H36       1.0  0.5514719916974044  0.12315555790446799  0.5365419503480807  1.0000
  H   H37       1.0  0.5699084588155969  0.06344605428046178  0.5868097277013716  1.0000
  H   H38       1.0  0.5110496110560732  0.18341448946048197  0.6322732079360378  1.0000
  H   H39       1.0  0.5286580919369682  0.12367925471539103  0.6813899520105551  1.0000
  H   H40       1.0  0.682655880895645  0.19733316998838302  0.7206642172243178  1.0000
  H   H41       1.0  0.6546687283582312  0.2685417397733188  0.7579062628212652  1.0000
  H   H42       1.0  0.6654506718387907  0.25775819158175756  0.6716174649290707  1.0000
  H   H43       1.0  0.2551126947227899  0.6843398837683095  0.15044562989223184  1.0000
  H   H44       1.0  0.23073874388444437  0.7201238175477798  0.22507996688572948  1.0000
  H   H45       1.0  0.13757056463100525  0.6196142033328869  0.7136083183561437  1.0000
  H   H46       1.0  0.303561010907579  0.6071061279499617  0.21851268579295166  1.0000
  H   H47       1.0  0.27400457925087096  0.6381330233008027  0.289349442736558  1.0000
  H   H48       1.0  0.12217039708127687  0.5641643783876018  0.1757722466909114  1.0000
  H   H49       1.0  0.15897549025906701  0.494796235535901  0.17774773014306072  1.0000
  H   H50       1.0  0.15211809388188877  0.5322667822557889  0.10497318169017683  1.0000
  H   H51       1.0  0.41900278177127603  0.3788400287619424  0.6946573679460357  1.0000
  H   H52       1.0  0.3317098172799859  0.37876892450945837  0.7010099330991295  1.0000
  H   H53       1.0  0.2749613721225756  0.37861640368059557  0.5655952324761839  1.0000
  H   H54       1.0  0.3788282815993754  0.4663046175846191  0.6351762035272087  1.0000
  H   H55       1.0  0.3624524339052329  0.37938139335109605  0.5595326455807877  1.0000
  H   H56       1.0  0.8522327291504721  0.3642742697649125  0.5394434343916499  1.0000
  H   H57       1.0  0.8137041076570596  0.5928012411155378  0.2905990288636102  1.0000
  H   H58       1.0  0.7257224221021304  0.604229902226983  0.24733956299359508  1.0000
  H   H59       1.0  0.6880681646555616  0.5815549945462309  0.3505928587009421  1.0000
  H   H60       1.0  0.6912256510867109  0.4962530003382567  0.2958894442579376  1.0000
  H   H61       1.0  0.7762162715613813  0.570430247295988  0.39534197243838776  1.0000
  H   H62       1.0  0.42357210879421786  0.8354250242673797  0.5582239194280374  1.0000
  H   H63       1.0  0.470246399967692  0.9449570297746418  0.6046045433780872  1.0000
  H   H64       1.0  0.6117605769237997  0.9628578249319659  0.6843601093012238  1.0000
  H   H65       1.0  0.5361338639165041  0.8991751355138574  0.7031197772233069  1.0000
  H   H66       1.0  0.5656227629209595  0.8535462645960903  0.6375301517726866  1.0000
  H   H67       1.0  0.6905570455708272  0.4659215930801964  0.11018446061522985  1.0000
  H   H68       1.0  0.3389507238962962  0.854492721536701  0.1872879359870721  1.0000
  H   H69       1.0  0.38311596330385794  0.9635240878388202  0.23513533274387993  1.0000
  H   H70       1.0  0.24275086949192815  0.9439428686861858  0.14780016088097608  1.0000
  H   H71       1.0  0.27874824531362197  0.9013695488978469  0.08781212359116339  1.0000
  H   H72       1.0  0.1984276861348207  0.834919943317047  0.1000792015491639  1.0000
  H   H73       1.0  0.594600423198159  0.4906653347683232  0.8552810191534447  1.0000
  H   H74       1.0  0.5619170605559843  0.3469564445830145  0.9848536596661857  1.0000
  C   C1        1.0  0.9144058330306564  0.9918419282591061  0.6539287920892746  1.0000
  C   C2        1.0  0.3755399538743092  0.8296426908470451  0.327866881492447  1.0000
  C   C3        1.0  0.45158220502148794  0.8981091129928344  0.4612530950820567  1.0000
  C   C4        1.0  0.3484895494644532  0.8963206728830925  0.3258365305002469  1.0000
  C   C5        1.0  0.603661762008869  0.9073795526508162  0.38971689108920743  1.0000
  C   C6        1.0  0.20739315111809015  0.8972382399449327  0.4154021314461003  1.0000
  C   C7        1.0  0.4426260247462606  0.9680066219576061  0.3888735861346572  1.0000
  C   C8        1.0  0.35735843883997387  0.8263376750257977  0.3981568250980485  1.0000
  C   C9        1.0  0.46990237926570433  0.9022526984869472  0.39090721458851596  1.0000
  C   C10       1.0  0.32999472906146105  0.8921146765621798  0.3961990646921903  1.0000
  C   C11       1.0  0.5418898162427084  0.9064177813781029  0.389506630109956  1.0000
  C   C12       1.0  0.07112510138467337  0.13730810239237456  0.3467281310861593  1.0000
  C   C13       1.0  0.26038862359714443  0.8898816429557711  0.4022234593724078  1.0000
  C   C14       1.0  0.07517075929755629  0.5635778169396417  0.6759515504714384  1.0000
  C   C15       1.0  0.9144738999978516  0.4204258052352755  0.578047318311526  1.0000
  C   C16       1.0  0.053884168198834397  0.20334341157615646  0.5849656536152066  1.0000
  C   C17       1.0  0.9501626364573498  0.7662462262477233  0.5501530800410562  1.0000
  C   C18       1.0  0.006352226913506234  0.5683885249913416  0.6287436373799123  1.0000
  C   C19       1.0  0.983801666777687  0.41504657450911964  0.62321727488645  1.0000
  C   C20       1.0  0.9255791543957274  0.4954061248495165  0.5806526812096705  1.0000
  C   C21       1.0  0.0640637045273563  0.48858473897800536  0.6733513395453696  1.0000
  C   C22       1.0  0.01690832428373298  0.643095599903546  0.6270058650504137  1.0000
  C   C23       1.0  0.9783947580760782  0.20157177567830328  0.5714082974650836  1.0000
  C   C24       1.0  0.9755490777409364  0.33783046934984634  0.6137338465667311  1.0000
  C   C25       1.0  0.9725477735427503  0.27181693388330785  0.5978195902595117  1.0000
  C   C26       1.0  0.022947151524519413  0.7053908593423515  0.6212422839705309  1.0000
  C   C27       1.0  0.5975049409905823  0.40456278712359517  0.9841098741278101  1.0000
  C   C28       1.0  0.6878076014067531  0.5520966418007162  0.9813625075952215  1.0000
  C   C29       1.0  0.5674520211853462  0.4112115956042216  0.9116651358099543  1.0000
  C   C30       1.0  0.7141925332669318  0.5476046488556818  0.05519659585710454  1.0000
  C   C31       1.0  0.6159462119203455  0.48540345939346013  0.911228200224393  1.0000
  C   C32       1.0  0.6694448469166332  0.4711772377710944  0.05421333615014126  1.0000
  C   C33       1.0  0.4884803629115807  0.34743604613598916  0.8433533530732118  1.0000
  C   C34       1.0  0.02087047494853064  0.7716191571965894  0.6080887429245079  1.0000
  C   C35       1.0  0.776965002503168  0.6190493066141939  0.1293809124219719  1.0000
  C   C36       1.0  0.8176578185240189  0.6806946078687374  0.19451139200729253  1.0000
  C   C37       1.0  0.41685354162670046  0.295418345667123  0.7872592323483898  1.0000
  C   C38       1.0  0.9038287499100903  0.09413977279204024  0.0033807753523120744  1.0000
  C   C39       1.0  0.04831024299942038  0.1953554852500758  0.004377828529065644  1.0000
  C   C40       1.0  0.27883908123872186  0.16309500483037442  0.7259656189616875  1.0000
  C   C41       1.0  0.8929321190448222  0.8344155769855276  0.28224523259866163  1.0000
  C   C42       1.0  0.9813242201543774  0.14653111763167453  0.07726191235533972  1.0000
  C   C43       1.0  0.9726237146752084  0.13758427234255072  0.9298004693807584  1.0000
  C   C44       1.0  0.052548760093913  0.19961389127397666  0.07648693018960268  1.0000
  C   C45       1.0  0.33394026396778304  0.23418962134828553  0.7256731189179817  1.0000
  C   C46       1.0  0.8995620382495204  0.08990733115329855  0.9312653356007486  1.0000
  C   C47       1.0  0.9885158223356996  0.14100236844409147  0.14853912991611648  1.0000
  C   C48       1.0  0.9720927709681533  0.1219109624570365  0.8561412413043356  1.0000
  C   C49       1.0  0.9755704835835816  0.0997563582789666  0.7946934778120534  1.0000
  C   C50       1.0  0.99624311273044  0.12874135561320085  0.20727202283712384  1.0000
  C   C51       1.0  0.719358745482232  0.9299149621126757  0.3546980277839466  1.0000
  C   C52       1.0  0.12902451955554975  0.9094449686368902  0.4913623796373227  1.0000
  C   C53       1.0  0.28511029061259313  0.22566276817291012  0.6484114998400726  1.0000
  C   C54       1.0  0.8536231834366746  0.7554132597640615  0.3394047515559462  1.0000
  C   C55       1.0  0.7228963355952016  0.8831661987593761  0.44511132616273097  1.0000
  C   C56       1.0  0.855034870899807  0.7506999363915127  0.26731445119362685  1.0000
  C   C57       1.0  0.13448770320272968  0.9768909714157558  0.41772827514256483  1.0000
  C   C58       1.0  0.914638750430484  0.11873127928753749  0.5146630216304331  1.0000
  C   C59       1.0  0.08351464840887235  0.8562341881936459  0.64663433570265  1.0000
  C   C60       1.0  0.04740281255250526  0.0932920687712199  0.7118439574094849  1.0000
  C   C61       1.0  0.9319946752480848  0.05422713700709635  0.2736367364509674  1.0000
  C   C62       1.0  0.9789497395230528  0.06678612594598833  0.7253097228599827  1.0000
  C   C63       1.0  0.0005707370534792616  0.10935297085325148  0.27108317353580696  1.0000
  C   C64       1.0  0.8281596500693239  0.8848588693141578  0.6725402519678096  1.0000
  C   C65       1.0  0.8331593007023345  0.8125435475161495  0.6285619106283419  1.0000
  C   C66       1.0  0.8263776363760442  0.7520671778656192  0.664708824282506  1.0000
  C   C67       1.0  0.6759792873729467  0.9069704936633299  0.39511966796955267  1.0000
  C   C68       1.0  0.1890933733542965  0.19100265432454222  0.3284670817536437  1.0000
  C   C69       1.0  0.18959546894868143  0.11183223765456062  0.2968872145937809  1.0000
  C   C70       1.0  0.22400811269518062  0.11054824693157878  0.23930378989049925  1.0000
  C   C71       1.0  0.5330848055584738  0.09316620760401415  0.5722065143046464  1.0000
  C   C72       1.0  0.549797781644486  0.15606692439138214  0.6486514703002513  1.0000
  C   C73       1.0  0.643208216063222  0.2235899417333086  0.7026197688455297  1.0000
  C   C74       1.0  0.27129533083702023  0.6988211877674714  0.21341381318401167  1.0000
  C   C75       1.0  0.25830990084480016  0.6227609804461095  0.22642269500175854  1.0000
  C   C76       1.0  0.16801122139297328  0.5495071077210057  0.1681134641086998  1.0000
  C   C77       1.0  0.3529779285032575  0.3609531944605776  0.6588924557296137  1.0000
  C   C78       1.0  0.15650115533781417  0.9211868175881291  0.4367675885284751  1.0000
  C   C79       1.0  0.341525739787002  0.3984570292689538  0.6012994884645548  1.0000
  C   C80       1.0  0.7721767943470468  0.6114703560022859  0.3035356246345201  1.0000
  C   C81       1.0  0.7296718637136976  0.5624285092642224  0.3387837010613096  1.0000
  C   C82       1.0  0.48284181908815077  0.8951154488717349  0.5860753959595895  1.0000
  C   C83       1.0  0.5533244130667041  0.903145933160978  0.6569617141554783  1.0000
  C   C84       1.0  0.32404629459927753  0.9028620878172261  0.20400129253717825  1.0000
  C   C85       1.0  0.25691882369131486  0.8953255758839231  0.1306852159849965  1.0000
  C   C86       1.0  0.4249862375671897  0.9649640062536093  0.4593258119876322  1.0000
  N   N1        1.0  0.9431618368791916  0.9768363594593906  0.6034646541233498  1.0000
  N   N2        1.0  0.8887203803382346  0.8345855499663485  0.3910441515303303  1.0000
  N   N3        1.0  0.7880218490870234  0.8909684261972258  0.4347911261475373  1.0000
  N   N4        1.0  0.09918680089116086  0.9976707740418859  0.4593760211527636  1.0000
  N   N5        1.0  0.9503333246103481  0.07635085106880259  0.49517453079643287  1.0000
  N   N6        1.0  0.051663770730051774  0.8970075707940309  0.6144707541270688  1.0000
  N   N7        1.0  0.02511506910731504  0.03881138676063502  0.6392268246391737  1.0000
  N   N8        1.0  0.9587559431296739  0.05058344721793159  0.3437714121229903  1.0000
  N   N9        1.0  0.04540064953800989  0.1019121035696742  0.3891357290549066  1.0000
  N   N10       1.0  0.0355611553639362  0.12851641303827668  0.5383827759568688  1.0000
  N   N11       1.0  0.9689504130897857  0.8409617004491777  0.55462229949984  1.0000
  N   N12       1.0  0.20541109694664778  0.11687953938061918  0.6558309035277006  1.0000
  N   N13       1.0  0.9119801590751421  0.8832234343764254  0.3555494822689551  1.0000
  N   N14       1.0  0.7860031764760294  0.919954352180305  0.37850551646165786  1.0000
  N   N15       1.0  0.09563618768225253  0.9565298775930982  0.5047043112084563  1.0000
  N   N16       1.0  0.2092289053963299  0.15612440868175534  0.6078546404581074  1.0000
  O   O1        1.0  0.8346894280385799  0.9398929148214421  0.6346181556433803  1.0000
  O   O2        1.0  0.15430790807970143  0.19200951330791582  0.3816385470390671  1.0000
  O   O3        1.0  0.44411779627215253  0.030936016294326373  0.5242480027631302  1.0000
  O   O4        1.0  0.35880661598657315  0.7651553479446774  0.2633422189606446  1.0000
  O   O5        1.0  0.3014214184770123  0.2716874150201746  0.6100290217089535  1.0000
  O   O6        1.0  0.8226317977010424  0.6978298369186219  0.362811357446901  1.0000
  O   O7        1.0  0.5084494556750627  0.8997655492234955  0.5272159195717804  1.0000
  O   O8        1.0  0.2930598011756017  0.8947033220367046  0.2588442204730155  1.0000
