data_image0
_chemical_formula_structural       Zn6H72C66N6O24
_chemical_formula_sum              "Zn6 H72 C66 N6 O24"
_cell_length_a       6.745497713568876
_cell_length_b       21.654798494637053
_cell_length_c       21.65588381946654
_cell_angle_alpha    120.0020002700504
_cell_angle_beta     90.00001900327224
_cell_angle_gamma    90.0062939847024

_space_group_name_H-M_alt    "P 1"
_space_group_IT_number       1

loop_
  _space_group_symop_operation_xyz
  'x, y, z'

loop_
  _atom_site_type_symbol
  _atom_site_label
  _atom_site_symmetry_multiplicity
  _atom_site_fract_x
  _atom_site_fract_y
  _atom_site_fract_z
  _atom_site_occupancy
  Zn  Zn1       1.0  0.6521413267739858  0.3321361278371597  0.6082064834714557  1.0000
  Zn  Zn2       1.0  0.9851595456771916  0.27623146606514126  0.6679090149901369  1.0000
  Zn  Zn3       1.0  0.31871023647830304  0.39168340994183376  0.723804277758688  1.0000
  Zn  Zn4       1.0  0.34786261827540693  0.6678619119749882  0.27607156392277676  1.0000
  Zn  Zn5       1.0  0.014837081710268799  0.7237669331802152  0.3916780563709208  1.0000
  Zn  Zn6       1.0  0.6812908362201497  0.608314288507387  0.3321216531545657  1.0000
  H   H1        1.0  0.27929835754490984  0.08772922833783527  0.5313582771165811  1.0000
  H   H2        1.0  0.612623698061732  0.4436466006594768  0.9122320085048938  1.0000
  H   H3        1.0  0.947095450937475  0.4686116856550059  0.5562790625271672  1.0000
  H   H4        1.0  0.7206982243233923  0.912269984482293  0.4436315960169991  1.0000
  H   H5        1.0  0.3873716207823463  0.5563548350308878  0.4685874033254079  1.0000
  H   H6        1.0  0.0529083647885784  0.531388621728091  0.08766633094872124  1.0000
  H   H7        1.0  0.8303058653879418  0.004008750462865927  0.4203439359396198  1.0000
  H   H8        1.0  0.16287440114020774  0.4158126704241808  0.9959635444919851  1.0000
  H   H9        1.0  0.49773242983285115  0.5799996962141093  0.5840414052482287  1.0000
  H   H10       1.0  0.1696921232576685  0.9959846054596326  0.41632931618422453  1.0000
  H   H11       1.0  0.8371239882413307  0.584189791052225  0.5801542772041443  1.0000
  H   H12       1.0  0.5022683911032928  0.42000233134883297  0.004040947954486238  1.0000
  H   H13       1.0  0.9764781774964391  0.12553670644190618  0.48733441891694435  1.0000
  H   H14       1.0  0.3094262143121966  0.36154384781298887  0.8745549967294576  1.0000
  H   H15       1.0  0.6439900092496204  0.512807550381801  0.6383465798082425  1.0000
  H   H16       1.0  0.023521300358218897  0.8744567376069198  0.36179454689687396  1.0000
  H   H17       1.0  0.6905735556515323  0.6384579555815718  0.5130151346209428  1.0000
  H   H18       1.0  0.3560153536861534  0.48719275444070576  0.12553912725518743  1.0000
  H   H19       1.0  0.6516315934865632  0.37582978009685775  0.4851729882394479  1.0000
  H   H20       1.0  0.9853228339827921  0.10967845742826653  0.6242888896957836  1.0000
  H   H21       1.0  0.31863126387266055  0.5148335968201749  0.8905226457640578  1.0000
  H   H22       1.0  0.3483647832312115  0.6241706511920952  0.10934619682906531  1.0000
  H   H23       1.0  0.014679766486054296  0.8903221499996974  0.5146106258435237  1.0000
  H   H24       1.0  0.681372887624505  0.48516609963885315  0.3756888749394987  1.0000
  H   H25       1.0  0.41731857966132674  0.4028357264210881  0.4680186752872115  1.0000
  H   H26       1.0  0.7512166305064341  0.06538438707780617  0.5971798296385699  1.0000
  H   H27       1.0  0.0844351405965043  0.5319843353635463  0.9347275325006307  1.0000
  H   H28       1.0  0.5826777638732209  0.5971642135857564  0.06518432228422438  1.0000
  H   H29       1.0  0.2487844821940897  0.934616554553557  0.5317949766761672  1.0000
  H   H30       1.0  0.9155675669275211  0.4680155462030696  0.40274517470589877  1.0000
  H   H31       1.0  0.5496342728991693  0.3318615673939007  0.39696807072056817  1.0000
  H   H32       1.0  0.8834841369006058  0.06530193301638577  0.6681430632807163  1.0000
  H   H33       1.0  0.21675964574210127  0.603049061085244  0.9348222410943163  1.0000
  H   H34       1.0  0.4503605497699681  0.6681383509354858  0.06510933740631222  1.0000
  H   H35       1.0  0.1165155702090956  0.9347002952968139  0.6028415578257478  1.0000
  H   H36       1.0  0.7832445059877032  0.3969507788435394  0.33177332934218373  1.0000
  H   H37       1.0  0.25498747959845497  0.19792477435151315  0.4696921103849902  1.0000
  H   H38       1.0  0.5881859094838687  0.27183341375214093  0.8021004482023882  1.0000
  H   H39       1.0  0.9220660383280546  0.5303439318145776  0.7281831643367978  1.0000
  H   H40       1.0  0.7450134239879206  0.8020764678717711  0.27176907601673134  1.0000
  H   H41       1.0  0.41181383056174076  0.7281676998494505  0.5302675376674555  1.0000
  H   H42       1.0  0.07794534207195619  0.4696567468818316  0.19784092997461036  1.0000
  H   H43       1.0  0.06825603797773988  0.18426080602134928  0.4051770018215277  1.0000
  H   H44       1.0  0.40158283651932436  0.22091456053632194  0.8157355218472941  1.0000
  H   H45       1.0  0.7354492846058776  0.5949331989974453  0.7790200169142876  1.0000
  H   H46       1.0  0.9317448030415888  0.8157387619330834  0.22091707722920242  1.0000
  H   H47       1.0  0.5984139809830822  0.7790876443595635  0.5948229984295634  1.0000
  H   H48       1.0  0.26456211602088325  0.4050686645924273  0.18408954133176533  1.0000
  H   H49       1.0  0.032304307382887  0.24920101372490686  0.4969291679563596  1.0000
  H   H50       1.0  0.36561686670783894  0.24767142717132645  0.7507575001425976  1.0000
  H   H51       1.0  0.6993052688408525  0.503187453694629  0.7522677466584539  1.0000
  H   H52       1.0  0.967693632796987  0.7507991451933762  0.24772855450063241  1.0000
  H   H53       1.0  0.6343843135919156  0.752330635699188  0.5030882066602158  1.0000
  H   H54       1.0  0.3007031872885192  0.4968132874991226  0.2490830855851697  1.0000
  H   H55       1.0  0.0725961747011681  0.35743449001839167  0.43707747457580115  1.0000
  H   H56       1.0  0.4063847134556794  0.07959928035727172  0.6425996124518321  1.0000
  H   H57       1.0  0.7392818176943264  0.5628862923819469  0.9201931788694747  1.0000
  H   H58       1.0  0.9273971949553967  0.642565221670786  0.07964238574407273  1.0000
  H   H59       1.0  0.593610511050649  0.9204035027518316  0.5630041932325297  1.0000
  H   H60       1.0  0.2607267875872736  0.4371149855865539  0.357308900331482  1.0000
  H   H61       1.0  0.0039597424381839  0.2678783874463164  0.37494351609880266  1.0000
  H   H62       1.0  0.33780162399624913  0.10697059645728749  0.7321305496209546  1.0000
  H   H63       1.0  0.6708708557812104  0.6251091678934485  0.8928563515128969  1.0000
  H   H64       1.0  0.9960321259848827  0.732121169909213  0.10706519804917738  1.0000
  H   H65       1.0  0.6621951647684768  0.8930316832205847  0.6251626503623197  1.0000
  H   H66       1.0  0.3291362038931709  0.3748918851519178  0.2677487102044579  1.0000
  H   H67       1.0  0.22289593876946157  0.3045358531715152  0.36019808680456566  1.0000
  H   H68       1.0  0.5568705245160004  0.055671510712400646  0.6955007085290105  1.0000
  H   H69       1.0  0.8895986319067217  0.6398210955548933  0.9443509891467199  1.0000
  H   H70       1.0  0.7770958939838124  0.6954639007046095  0.05566270747781492  1.0000
  H   H71       1.0  0.44312328723280103  0.944329510373791  0.6398328608160281  1.0000
  H   H72       1.0  0.1104084753798702  0.36017974916496337  0.3045309777619848  1.0000
  C   C1        1.0  0.7128816456114889  0.17589738122760676  0.546698473087808  1.0000
  C   C2        1.0  0.046141083786181994  0.3707296646885325  0.8241351166903852  1.0000
  C   C3        1.0  0.38032365184646727  0.45338793465668914  0.6292604556588514  1.0000
  C   C4        1.0  0.28711786954948343  0.824098338194254  0.3708016755222871  1.0000
  C   C5        1.0  0.9538571444684011  0.6292729832035633  0.4534099223519305  1.0000
  C   C6        1.0  0.6196802505966659  0.5466107498149455  0.17587222680676007  1.0000
  C   C7        1.0  0.5114370484967239  0.16405111098884356  0.5586474771422657  1.0000
  C   C8        1.0  0.8447564980960038  0.39457104591534875  0.8359684952950059  1.0000
  C   C9        1.0  0.1789768513777261  0.4413883395173598  0.6054157738743411  1.0000
  C   C10       1.0  0.48856396839421723  0.8359444199207217  0.3945957561035839  1.0000
  C   C11       1.0  0.15524321231933408  0.6054303872794548  0.44140043844057425  1.0000
  C   C12       1.0  0.8210270320198135  0.5586115796523571  0.16402819040450098  1.0000
  C   C13       1.0  0.43263298588424703  0.09480156565103937  0.5200907141871269  1.0000
  C   C14       1.0  0.7658515345216229  0.42521314515282416  0.9051994450787572  1.0000
  C   C15       1.0  0.10026299737550912  0.4800002362712874  0.5747844468792208  1.0000
  C   C16       1.0  0.5673620973125181  0.9051964036073414  0.42529074413442186  1.0000
  C   C17       1.0  0.23414823428568346  0.5747893893686681  0.4799890657000531  1.0000
  C   C18       1.0  0.8997393498087332  0.5200006259653946  0.09478404561745878  1.0000
  C   C19       1.0  0.5430147497536665  0.036127186875035064  0.47092938662758127  1.0000
  C   C20       1.0  0.8758124780439046  0.4345138140273833  0.9638779650396072  1.0000
  C   C21       1.0  0.21044000438518404  0.5293508451077072  0.5654910064241176  1.0000
  C   C22       1.0  0.45698179432937985  0.9638697568549118  0.43479992713820065  1.0000
  C   C23       1.0  0.12419031387934612  0.5654878691688195  0.5293675783763659  1.0000
  C   C24       1.0  0.7895548937421635  0.4706498216336498  0.036139211313844975  1.0000
  C   C25       1.0  0.7411016574666647  0.048571757512341655  0.4593184979721413  1.0000
  C   C26       1.0  0.07382290334802381  0.41034601219608646  0.9514057580067427  1.0000
  C   C27       1.0  0.4085149327037172  0.541008651302441  0.589620994742475  1.0000
  C   C28       1.0  0.25889190217674235  0.9514237827506304  0.4107450533148479  1.0000
  C   C29       1.0  0.9261784060755218  0.5896578741682532  0.5410645783279263  1.0000
  C   C30       1.0  0.5914873974550474  0.4589915834521322  0.0486105211690101  1.0000
  C   C31       1.0  0.8227339895988307  0.11622001008441889  0.49590607937495423  1.0000
  C   C32       1.0  0.15572537721558175  0.37944602856981646  0.8838097695947764  1.0000
  C   C33       1.0  0.49019406365450646  0.5043006717558497  0.6205522665823721  1.0000
  C   C34       1.0  0.17726253796448788  0.88377551197636  0.37968303791996744  1.0000
  C   C35       1.0  0.8442699455343855  0.6205550370323891  0.5043669424262446  1.0000
  C   C36       1.0  0.509808319348224  0.4956975169631974  0.11624993649472501  1.0000
  C   C37       1.0  0.37903735286205625  0.22111226350607183  0.6114953884791631  1.0000
  C   C38       1.0  0.7124185743929488  0.390413374494507  0.7789005841813149  1.0000
  C   C39       1.0  0.046419844569186394  0.388496154145713  0.6095406742518532  1.0000
  C   C40       1.0  0.6209636907555947  0.7788859562879509  0.39038345966739024  1.0000
  C   C41       1.0  0.2875766289927526  0.6095866120563045  0.3884889544983776  1.0000
  C   C42       1.0  0.9535811075807245  0.6115076786522096  0.22104427673425414  1.0000
  C   C43       1.0  0.418522624945119  0.30366323048204447  0.47034149967544875  1.0000
  C   C44       1.0  0.7518928124063323  0.1668224475812537  0.6963793055398426  1.0000
  C   C45       1.0  0.08549464986510459  0.5297063961281766  0.8332648069964675  1.0000
  C   C46       1.0  0.5814752571844507  0.696337198763473  0.16668090602684044  1.0000
  C   C47       1.0  0.2481068698814539  0.8331769136787415  0.5295569132961544  1.0000
  C   C48       1.0  0.9145079494513481  0.4702940307776515  0.3035587681638815  1.0000
  C   C49       1.0  0.5144864092933759  0.35701361417148536  0.45421477343130306  1.0000
  C   C50       1.0  0.8482514770017532  0.09742793223254143  0.6430407614868299  1.0000
  C   C51       1.0  0.18155567765795408  0.5458169193105818  0.9027206762100872  1.0000
  C   C52       1.0  0.485511426600425  0.6429866473646514  0.09720383165129208  1.0000
  C   C53       1.0  0.1517467029313053  0.9025727862516322  0.5456125842828142  1.0000
  C   C54       1.0  0.8184499526221457  0.45418202967570653  0.3569039717203777  1.0000
  C   C55       1.0  0.14286247535576987  0.22403393304217184  0.4541211797082666  1.0000
  C   C56       1.0  0.47621050665643594  0.23008433580463353  0.7759667581836279  1.0000
  C   C57       1.0  0.8099614539634885  0.5459868211898635  0.7698908404301574  1.0000
  C   C58       1.0  0.8571369146680822  0.7759662334872458  0.23008890883953353  1.0000
  C   C59       1.0  0.5237892279702975  0.7699182350079141  0.5458852527152229  1.0000
  C   C60       1.0  0.19004551563989475  0.4540140422708773  0.2239062250675161  1.0000
  C   C61       1.0  0.13004123072354193  0.3033864819610343  0.40124483968975255  1.0000
  C   C62       1.0  0.46387667822851597  0.09783407781019099  0.6966468037513562  1.0000
  C   C63       1.0  0.7968524698877316  0.5987926850692843  0.9020853053931145  1.0000
  C   C64       1.0  0.8699521295952907  0.6966141988817397  0.09785842447301003  1.0000
  C   C65       1.0  0.5361200769230479  0.9021668512496177  0.5988148083878638  1.0000
  C   C66       1.0  0.20315313156002898  0.4012087941744723  0.30329538384123805  1.0000
  N   N1        1.0  0.2407191583865327  0.27615463894118614  0.4402935337121433  1.0000
  N   N2        1.0  0.574265733466298  0.16417558337252558  0.7239037142563801  1.0000
  N   N3        1.0  0.9077773225645415  0.5598199458127127  0.8358398007871697  1.0000
  N   N4        1.0  0.7592772238318234  0.7238466342847119  0.16414087263583332  1.0000
  N   N5        1.0  0.4257354628279586  0.8358260049437122  0.5597294451845228  1.0000
  N   N6        1.0  0.09222971082122199  0.4401812298085447  0.27602155114070087  1.0000
  O   O1        1.0  0.803286441876601  0.23905317528967632  0.5798728496449498  1.0000
  O   O2        1.0  0.1366094564060418  0.34086571281836353  0.7610216533086741  1.0000
  O   O3        1.0  0.47061654298846617  0.4201250092615395  0.6591411329699707  1.0000
  O   O4        1.0  0.19671752245336901  0.7609427417856764  0.3408197838204287  1.0000
  O   O5        1.0  0.8633872369010972  0.6591343167158712  0.4201581614039822  1.0000
  O   O6        1.0  0.5293874092095551  0.5798710861091009  0.23901691405733044  1.0000
  O   O7        1.0  0.4431225241693255  0.2851270003302346  0.6466748315425618  1.0000
  O   O8        1.0  0.7764991696556647  0.361650753755633  0.7148918689841535  1.0000
  O   O9        1.0  0.1100916877820879  0.3533742965091093  0.6384836255707568  1.0000
  O   O10       1.0  0.5568785229675229  0.7148717535568991  0.3615491349608033  1.0000
  O   O11       1.0  0.2234959795940767  0.6383460576385075  0.3532413942928299  1.0000
  O   O12       1.0  0.8899048664491289  0.6466255144556  0.28510872804555  1.0000
  O   O13       1.0  0.20528564929841053  0.20285292768511445  0.6202363108950519  1.0000
  O   O14       1.0  0.5386541105852272  0.41739909684656584  0.7971679069513083  1.0000
  O   O15       1.0  0.8727857608523876  0.3796693128192955  0.5824174755597296  1.0000
  O   O16       1.0  0.7947139309691664  0.7971443228004416  0.41738270833825175  1.0000
  O   O17       1.0  0.4613440628385845  0.5826005689877076  0.379770446201803  1.0000
  O   O18       1.0  0.12721813117809688  0.620331433004644  0.2027498766290349  1.0000
  O   O19       1.0  0.503368184633345  0.2830006262800424  0.5084728009322318  1.0000
  O   O20       1.0  0.8362587468220254  0.22571065855628802  0.7170232609609356  1.0000
  O   O21       1.0  0.17007169329472296  0.49147776819499706  0.7744393914833834  1.0000
  O   O22       1.0  0.4966327145429831  0.7169986091743681  0.22547461279081904  1.0000
  O   O23       1.0  0.16373796132135252  0.7742903759995059  0.49131412837108707  1.0000
  O   O24       1.0  0.829933827814081  0.5085210769287656  0.2829630591315818  1.0000
