data_image0
_chemical_formula_structural       Cu8H48C48I8N16
_chemical_formula_sum              "Cu8 H48 C48 I8 N16"
_cell_length_a       13.0920841044602
_cell_length_b       14.04497890243078
_cell_length_c       14.044975184795316
_cell_angle_alpha    77.45159397892783
_cell_angle_beta     62.218258932249654
_cell_angle_gamma    62.2183342905282

_space_group_name_H-M_alt    "P 1"
_space_group_IT_number       1

loop_
  _space_group_symop_operation_xyz
  'x, y, z'

loop_
  _atom_site_type_symbol
  _atom_site_label
  _atom_site_symmetry_multiplicity
  _atom_site_fract_x
  _atom_site_fract_y
  _atom_site_fract_z
  _atom_site_occupancy
  Cu  Cu1       1.0  0.3883917496570817  0.24997302421922998  0.7232512648687219  1.0000
  Cu  Cu2       1.0  0.8616307438932722  0.2500300629506711  0.7767878509438757  1.0000
  Cu  Cu3       1.0  0.6116076701703503  0.2767490537086772  0.7500268689942117  1.0000
  Cu  Cu4       1.0  0.13836916522463819  0.2232119174357053  0.7499701501150113  1.0000
  Cu  Cu5       1.0  0.6116052237599022  0.7500246590991821  0.2767538527092269  1.0000
  Cu  Cu6       1.0  0.13836876814732343  0.7499732538061324  0.2232050094684083  1.0000
  Cu  Cu7       1.0  0.3883966500058804  0.7232454105141032  0.24997510359371217  1.0000
  Cu  Cu8       1.0  0.8616321922809506  0.7767946182439329  0.25002788772714263  1.0000
  H   H1        1.0  0.3633091754085812  0.33066420734382973  0.487716174362525  1.0000
  H   H2        1.0  0.252697072525649  0.3739269030229408  0.6206264613636278  1.0000
  H   H3        1.0  0.6817188126815381  0.16935110357574965  0.012299296571043731  1.0000
  H   H4        1.0  0.7472245188347129  0.12608329405301794  0.8793770228782021  1.0000
  H   H5        1.0  0.3510801413419669  0.5122752871533721  0.8307424790322525  1.0000
  H   H6        1.0  0.37323568675378765  0.3793654927000176  0.8739372652938042  1.0000
  H   H7        1.0  0.1941133356072554  0.9877103371749669  0.6693001880153985  1.0000
  H   H8        1.0  0.1265511961129633  0.12062592676565494  0.6260867907529715  1.0000
  H   H9        1.0  0.3182804484120894  0.9877004057768705  0.8306490737001154  1.0000
  H   H10       1.0  0.25277496483420225  0.12062274244485141  0.8739165481399381  1.0000
  H   H11       1.0  0.636691379031994  0.5122844785370545  0.6693356856077057  1.0000
  H   H12       1.0  0.7473039221695928  0.37937377152307755  0.6260729241439336  1.0000
  H   H13       1.0  0.8058862905742289  0.33069970584346453  0.012289563508232878  1.0000
  H   H14       1.0  0.8734483311455961  0.37391264708682587  0.8793739272076235  1.0000
  H   H15       1.0  0.6489189594181182  0.16925853126367235  0.4877248590201687  1.0000
  H   H16       1.0  0.6267626902590777  0.1260632108647783  0.620634514578043  1.0000
  H   H17       1.0  0.6366899740775266  0.6693334759346572  0.5122893574818334  1.0000
  H   H18       1.0  0.7473004420020645  0.6260691707947644  0.3793771936219341  1.0000
  H   H19       1.0  0.3182784239607983  0.8306530179205396  0.9876971620080892  1.0000
  H   H20       1.0  0.2527704030179264  0.8739216322207713  0.12062048403296187  1.0000
  H   H21       1.0  0.6489210128759808  0.48772400568684304  0.16925765554061895  1.0000
  H   H22       1.0  0.6267650326794012  0.6206321906656813  0.1260606559383176  1.0000
  H   H23       1.0  0.8058860379348899  0.012290565217696801  0.3306991957969886  1.0000
  H   H24       1.0  0.8734432380140474  0.8793757804195225  0.3739154015856696  1.0000
  H   H25       1.0  0.6817212790890681  0.012302910901993905  0.16934675081341047  1.0000
  H   H26       1.0  0.7472283652307468  0.8793797694571525  0.12607893989769525  1.0000
  H   H27       1.0  0.36331013840680265  0.48771079047631366  0.3306669599380568  1.0000
  H   H28       1.0  0.2526999424534964  0.6206231069504398  0.3739308864044941  1.0000
  H   H29       1.0  0.1941128586897633  0.669301196536736  0.9877109075344777  1.0000
  H   H30       1.0  0.12655785504190223  0.6260842314352502  0.12062411070725429  1.0000
  H   H31       1.0  0.35107921395038494  0.830742371142719  0.5122748612741644  1.0000
  H   H32       1.0  0.3732359178941849  0.8739393010161295  0.37936741905704685  1.0000
  H   H33       1.0  0.1687540299744797  0.48276876903373295  0.4827731440812925  1.0000
  H   H34       1.0  0.16938023723533044  0.5627129389960217  0.5627159239263974  1.0000
  H   H35       1.0  0.6342080518920241  0.017293763412659802  0.017291046062481937  1.0000
  H   H36       1.0  0.7946651511891644  0.9373265268390368  0.9373237527055379  1.0000
  H   H37       1.0  0.15143657070272823  0.517258412392664  0.9827765283885411  1.0000
  H   H38       1.0  0.23199707029294103  0.437286673598514  0.06274754380921609  1.0000
  H   H39       1.0  0.15143444792217764  0.9827776572878762  0.5172598264003412  1.0000
  H   H40       1.0  0.23199554886808468  0.06274813696139601  0.4372876113961511  1.0000
  H   H41       1.0  0.36579216559974953  0.9827087485174459  0.9827058267951968  1.0000
  H   H42       1.0  0.20533346373881758  0.06267678986793611  0.06267345662802626  1.0000
  H   H43       1.0  0.8312468607959999  0.5172273047303122  0.517230588688733  1.0000
  H   H44       1.0  0.8306193608070844  0.43728474430738357  0.437287433457328  1.0000
  H   H45       1.0  0.8485656981312741  0.48274007568377914  0.017222894334253155  1.0000
  H   H46       1.0  0.7680043082031601  0.5627126192541568  0.9372515035333391  1.0000
  H   H47       1.0  0.8485612719360558  0.017224854633596503  0.4827424048244706  1.0000
  H   H48       1.0  0.7680031980057505  0.9372535701819376  0.5627128596404912  1.0000
  C   C1        1.0  0.40981445672215255  0.4156705350386858  0.5577111617318804  1.0000
  C   C2        1.0  0.3129434537579101  0.3988407583251218  0.5436399215395085  1.0000
  C   C3        1.0  0.8832100761575173  0.08427796547369582  0.9422627913286019  1.0000
  C   C4        1.0  0.7553884934713223  0.10116676499033159  0.9563713157210713  1.0000
  C   C5        1.0  0.4674924039188609  0.4422117056137296  0.9157624756469785  1.0000
  C   C6        1.0  0.3565319420241124  0.4563130192606196  0.8989050561901307  1.0000
  C   C7        1.0  0.32548038054419937  0.05776308224553621  0.5842413978457727  1.0000
  C   C8        1.0  0.2117570359904377  0.0436708963553158  0.6011350010999974  1.0000
  C   C9        1.0  0.11679020039238007  0.05773651884998542  0.915721135369047  1.0000
  C   C10       1.0  0.24461040104381468  0.043628999875046794  0.8988327663531877  1.0000
  C   C11       1.0  0.5901860982415953  0.442288696179766  0.5843295400446991  1.0000
  C   C12       1.0  0.6870568518009607  0.45636053063799414  0.6011593721292029  1.0000
  C   C13       1.0  0.6745195905622479  0.4157589576229413  0.9422376260268732  1.0000
  C   C14       1.0  0.788242853980258  0.39886433047534087  0.9563289101262668  1.0000
  C   C15       1.0  0.5325075663725585  0.08423755573443265  0.5577878143760201  1.0000
  C   C16       1.0  0.6434672551599405  0.10109569301471309  0.5436869576079455  1.0000
  C   C17       1.0  0.5901841192586375  0.5843263435028591  0.44229361937017575  1.0000
  C   C18       1.0  0.68705502966845  0.6011577297420487  0.45636414769428757  1.0000
  C   C19       1.0  0.11678880921476781  0.9157261560337772  0.057731156307944835  1.0000
  C   C20       1.0  0.24460914556117086  0.8988365517428247  0.04362514286412276  1.0000
  C   C21       1.0  0.5325071547321231  0.5577859777276829  0.08423833190191478  1.0000
  C   C22       1.0  0.6434697533045651  0.5436846640788815  0.10109361579036139  1.0000
  C   C23       1.0  0.6745165394876834  0.9422394296622019  0.4157604968970854  1.0000
  C   C24       1.0  0.7882389937035371  0.9563324203286498  0.39886651826262204  1.0000
  C   C25       1.0  0.8832102343807121  0.9422684073682321  0.08427431375817898  1.0000
  C   C26       1.0  0.7553906142314375  0.956374316804457  0.10116377001647683  1.0000
  C   C27       1.0  0.4098168830404277  0.5577065727943236  0.41567423162361905  1.0000
  C   C28       1.0  0.3129456876994682  0.5436355431372349  0.3988418496982291  1.0000
  C   C29       1.0  0.32548356860965544  0.5842387256772739  0.05776217207616695  1.0000
  C   C30       1.0  0.2117611561381166  0.6011325480866603  0.04366871352220155  1.0000
  C   C31       1.0  0.46749305373150235  0.9157609323308267  0.44221411928937465  1.0000
  C   C32       1.0  0.3565301528196796  0.8989068188799296  0.4563153125090906  1.0000
  C   C33       1.0  0.4541103818286415  0.4930972569831837  0.49310258513783356  1.0000
  C   C34       1.0  0.23197069223777317  0.5000384196044507  0.5000413115232547  1.0000
  C   C35       1.0  0.9403355814574822  0.006862724589758799  0.006856517014952427  1.0000
  C   C36       1.0  0.7319594941759534  3.904607922299992e-06  2.4646030638802344e-06  1.0000
  C   C37       1.0  0.44718709471244694  0.5068674678010936  0.9931375013318158  1.0000
  C   C38       1.0  0.23192676461837183  0.4999596449774372  6.285004459971003e-05  1.0000
  C   C39       1.0  0.4471867524535896  0.9931384777267596  0.5068689546819485  1.0000
  C   C40       1.0  0.23192249831636486  6.551088684150002e-05  0.4999616085868368  1.0000
  C   C41       1.0  0.05966489948175977  0.99314300641651  0.9931367576455656  1.0000
  C   C42       1.0  0.2680409014278239  0.9999978025465952  0.9999954954909852  1.0000
  C   C43       1.0  0.5458899748279508  0.5068980120059124  0.5069029467247076  1.0000
  C   C44       1.0  0.7680300204207028  0.4999584589351827  0.49996133401038634  1.0000
  C   C45       1.0  0.5528146006162302  0.4931302155384074  0.006861170648676204  1.0000
  C   C46       1.0  0.7680768431098458  0.5000380383476895  0.9999347735978006  1.0000
  C   C47       1.0  0.5528125679255709  0.0068640341535087  0.49313226709701036  1.0000
  C   C48       1.0  0.7680723312039742  0.9999378058108593  0.5000402472577292  1.0000
  I   I1        1.0  0.5000004701815327  0.14642774807480663  0.8535720938551773  1.0000
  I   I2        1.0  0.9999998540342288  0.35358271797867513  0.6464173268027052  1.0000
  I   I3        1.0  0.8535600417442168  0.14648161891234682  0.6464865334145103  1.0000
  I   I4        1.0  0.14644001056964118  0.3535124817872699  0.8535182090480619  1.0000
  I   I5        1.0  0.5000012645385822  0.8535699352266876  0.14642912796013238  1.0000
  I   I6        1.0  5.3843926744280696e-08  0.6464157700872236  0.3535853187188208  1.0000
  I   I7        1.0  0.14644241197650842  0.853516869214566  0.35350925224314267  1.0000
  I   I8        1.0  0.8535553924560234  0.6464916396473654  0.14648439753881337  1.0000
  N   N1        1.0  0.4537134761636351  0.3577367510645005  0.6305405543157364  1.0000
  N   N2        1.0  0.9419907168520469  0.1422519991386508  0.8694654039023032  1.0000
  N   N3        1.0  0.5842361636408528  0.36945347627207065  0.857775166995779  1.0000
  N   N4        1.0  0.3114522611380365  0.13057443775392133  0.6421976015108158  1.0000
  N   N5        1.0  0.05800935842493263  0.13053417580919563  0.8577477465700482  1.0000
  N   N6        1.0  0.5462864216854727  0.36946044674709105  0.6422626400372876  1.0000
  N   N7        1.0  0.6885466986772073  0.3578020223489418  0.8694261129015785  1.0000
  N   N8        1.0  0.41576369437048305  0.1422258655665445  0.6305461723774569  1.0000
  N   N9        1.0  0.5462859901550488  0.6422593227008234  0.3694646021665589  1.0000
  N   N10       1.0  0.05800936869387388  0.8577521223550876  0.1305282072522971  1.0000
  N   N11       1.0  0.41576619075073756  0.6305458165544026  0.14222463109514652  1.0000
  N   N12       1.0  0.6885453317282995  0.869428074191191  0.35780103154107895  1.0000
  N   N13       1.0  0.9419899617320978  0.8694715551727941  0.14224841440725575  1.0000
  N   N14       1.0  0.4537155837010615  0.630534822253189  0.3577403808826673  1.0000
  N   N15       1.0  0.3114545872644712  0.6421988800293548  0.13057222257272366  1.0000
  N   N16       1.0  0.5842337667721296  0.8577750368404866  0.3694542597730147  1.0000
