data_image0
_chemical_formula_structural       Zn2H32C32N12O10
_chemical_formula_sum              "Zn2 H32 C32 N12 O10"
_cell_length_a       9.67716132331502
_cell_length_b       10.287687569708421
_cell_length_c       11.017005370523949
_cell_angle_alpha    82.43456186881315
_cell_angle_beta     74.0607867450869
_cell_angle_gamma    62.57747375329002

_space_group_name_H-M_alt    "P 1"
_space_group_IT_number       1

loop_
  _space_group_symop_operation_xyz
  'x, y, z'

loop_
  _atom_site_type_symbol
  _atom_site_label
  _atom_site_symmetry_multiplicity
  _atom_site_fract_x
  _atom_site_fract_y
  _atom_site_fract_z
  _atom_site_occupancy
  Zn  Zn1       1.0  0.28044572370720994  0.34776908394856326  0.34630835265462423  1.0000
  Zn  Zn2       1.0  0.7195543255473139  0.6522344022225255  0.6536931329154073  1.0000
  H   H1        1.0  0.9113171743904048  0.7987410707571885  0.33736056170661033  1.0000
  H   H2        1.0  0.08868104774340681  0.20126363372260414  0.6626367268747373  1.0000
  H   H3        1.0  0.8966422040704386  0.22112972340526235  0.3558072325657805  1.0000
  H   H4        1.0  0.10335384830496246  0.7788706268607302  0.6441929798913364  1.0000
  H   H5        1.0  0.3401515569417483  0.8279069489627847  0.3402622632641438  1.0000
  H   H6        1.0  0.6598422907969025  0.17209784437127237  0.6597352825105601  1.0000
  H   H7        1.0  0.09798356741166711  0.558094713099635  0.5832091449746599  1.0000
  H   H8        1.0  0.9020158683391412  0.4419055225285933  0.41679289655917984  1.0000
  H   H9        1.0  0.45427533005317144  0.11936737686619382  0.5757811747694959  1.0000
  H   H10       1.0  0.5457248559733899  0.8806360453088047  0.42422300676285124  1.0000
  H   H11       1.0  0.2270011722076361  0.5177881613766503  0.863737313617662  1.0000
  H   H12       1.0  0.7729984512620761  0.4822163768983786  0.1362659765805532  1.0000
  H   H13       1.0  0.051475181712397934  0.6138785572936173  0.8034354120440669  1.0000
  H   H14       1.0  0.9485254300989753  0.3861238127774485  0.19656696486009656  1.0000
  H   H15       1.0  0.12194810180785966  0.3388114202040242  0.9710882705217257  1.0000
  H   H16       1.0  0.8780519018559756  0.6611920872990993  0.028912316394205193  1.0000
  H   H17       1.0  0.9485902643441333  0.43546780223770304  0.9108560211262785  1.0000
  H   H18       1.0  0.05141463068104463  0.5645345216431608  0.08914430127632042  1.0000
  H   H19       1.0  0.5012258486610791  0.47309917066992563  0.1369005629780348  1.0000
  H   H20       1.0  0.4987761745986959  0.5268977851057883  0.8631002689799132  1.0000
  H   H21       1.0  0.5456624088989984  0.044768019210572205  0.19089941209278286  1.0000
  H   H22       1.0  0.4543413503001191  0.9552277609205005  0.8091038195456405  1.0000
  H   H23       1.0  0.8127229534746475  0.06253007317239681  0.8736579305711986  1.0000
  H   H24       1.0  0.18728071722119236  0.9374679436101944  0.12634233078299664  1.0000
  H   H25       1.0  0.7535701219789244  0.939320078645217  0.9765282460290264  1.0000
  H   H26       1.0  0.24642846963666903  0.06067481911282609  0.023471031174118216  1.0000
  H   H27       1.0  0.9465404256826132  0.904762979483394  0.10334431057083311  1.0000
  H   H28       1.0  0.05346037324782319  0.09522966919404754  0.8966564603387113  1.0000
  H   H29       1.0  0.040142375464000644  0.8536925954743567  0.944341376940436  1.0000
  H   H30       1.0  0.9598584234664358  0.1463000532030776  0.055659393969108434  1.0000
  H   H31       1.0  0.6772796731808698  0.18378349184795442  0.36831278289237457  1.0000
  H   H32       1.0  0.3227176920271475  0.8162189288647852  0.6316904608973816  1.0000
  C   C1        1.0  0.22824805827254838  0.633270639824744  0.3323590460151705  1.0000
  C   C2        1.0  0.7717580658382985  0.36672635508888624  0.6676361368247896  1.0000
  C   C3        1.0  0.1350526572460212  0.7973621661093163  0.3371751237954754  1.0000
  C   C4        1.0  0.8649497515640617  0.2026381468694112  0.6628206589281402  1.0000
  C   C5        1.0  0.971508147703226  0.8650385686957023  0.33944142599324323  1.0000
  C   C6        1.0  0.028494124334812868  0.1349618082791154  0.660551660768057  1.0000
  C   C7        1.0  0.8855843970867312  0.0174570487491366  0.3474782171612461  1.0000
  C   C8        1.0  0.1144117035574369  0.9825454741722836  0.652521720973958  1.0000
  C   C9        1.0  0.963503935309632  0.1021747015285754  0.3495197514847063  1.0000
  C   C10       1.0  0.03649301690416717  0.8978257171849792  0.65047657739413  1.0000
  C   C11       1.0  0.12697349634266433  0.0343714163083817  0.34732883178747903  1.0000
  C   C12       1.0  0.8730225104420483  0.9656289552896384  0.6526704820155375  1.0000
  C   C13       1.0  0.2128212424567905  0.881584484624533  0.34233163385727755  1.0000
  C   C14       1.0  0.7871754207442336  0.1184169221968645  0.6576691956120513  1.0000
  C   C15       1.0  0.21021028930960742  0.12539956941402858  0.3493197882596348  1.0000
  C   C16       1.0  0.7897850664149788  0.8746041549355325  0.6506756639250215  1.0000
  C   C17       1.0  0.18587133060175626  0.4517310644610222  0.607064665053052  1.0000
  C   C18       1.0  0.8141297043163434  0.5482680595186482  0.3929370801989478  1.0000
  C   C19       1.0  0.3639699536250874  0.22865928625880366  0.6071330675363669  1.0000
  C   C20       1.0  0.636035646085169  0.7713462455008653  0.3928684962106317  1.0000
  C   C21       1.0  0.13295651275543446  0.50650319173176  0.8347815352398201  1.0000
  C   C22       1.0  0.8670477285315243  0.49350029091318975  0.16521609852043884  1.0000
  C   C23       1.0  0.03953630003190512  0.4482339980083481  0.9435030104064738  1.0000
  C   C24       1.0  0.960467801804917  0.5517673546452289  0.05649310036749014  1.0000
  C   C25       1.0  0.5439622195892823  0.35731901348778916  0.12224917981767906  1.0000
  C   C26       1.0  0.45603707938948196  0.6426812861365222  0.8777501657538451  1.0000
  C   C27       1.0  0.5624598498144522  0.14048381378275823  0.15217521870106046  1.0000
  C   C28       1.0  0.43754113415679546  0.8595109435540209  0.8478279738488865  1.0000
  C   C29       1.0  0.8003759247448841  0.019664688240318594  0.9703827131709203  1.0000
  C   C30       1.0  0.199625439420501  0.9803290383245553  0.02961777609672827  1.0000
  C   C31       1.0  0.9610482041541246  0.9486998134361357  0.006580911983583445  1.0000
  C   C32       1.0  0.0389514696625923  0.0512950674413517  0.9934180762576972  1.0000
  N   N1        1.0  0.2827854348460974  0.33683741773878495  0.5306146960018552  1.0000
  N   N2        1.0  0.7172129642942692  0.663162813437971  0.46938853314795653  1.0000
  N   N3        1.0  0.3223720083838018  0.2716006532169075  0.7257344431754689  1.0000
  N   N4        1.0  0.6776281776427596  0.728402768958091  0.27426973835687823  1.0000
  N   N5        1.0  0.2092162925544869  0.4135730040724681  0.7233498573043917  1.0000
  N   N6        1.0  0.7907859237803623  0.5864326423249652  0.2766498773658839  1.0000
  N   N7        1.0  0.475954452295113  0.27594485196043916  0.19990614785834282  1.0000
  N   N8        1.0  0.524049213044556  0.7240487768472336  0.8000964594478929  1.0000
  N   N9        1.0  0.6664797215910809  0.279777279665268  0.02995814957115073  1.0000
  N   N10       1.0  0.3335238981579067  0.7202163704744254  0.9700435590809774  1.0000
  N   N11       1.0  0.6759222867902324  0.14214142244111372  0.05071765591230104  1.0000
  N   N12       1.0  0.3240814241401181  0.8578521850345242  0.9492858500480423  1.0000
  O   O1        1.0  0.7250512371449319  0.07906613206110083  0.3524410306089366  1.0000
  O   O2        1.0  0.2749467516793019  0.9209342911039187  0.6475541106539281  1.0000
  O   O3        1.0  0.1488567787074188  0.5623533829769374  0.32444882343288134  1.0000
  O   O4        1.0  0.8511438003038734  0.4376459543230384  0.6755439352780641  1.0000
  O   O5        1.0  0.3719313941522415  0.5732227807776058  0.338354666765227  1.0000
  O   O6        1.0  0.6280693243091804  0.4267786865137353  0.6616396149320138  1.0000
  O   O7        1.0  0.13334640870377962  0.2652066308064463  0.3285144780349468  1.0000
  O   O8        1.0  0.8666495095776556  0.734795977443092  0.6714818654838339  1.0000
  O   O9        1.0  0.34805719443878763  0.06769641461475122  0.36881635848786226  1.0000
  O   O10       1.0  0.6519425732373847  0.9323006175861367  0.6311832540856059  1.0000
