data_image0
_chemical_formula_structural       H16Au2C15S2Cl2
_chemical_formula_sum              "H16 Au2 C15 S2 Cl2"
_cell_length_a       5.512160791644277
_cell_length_b       7.833093966784917
_cell_length_c       11.16534718659893
_cell_angle_alpha    108.02984856874687
_cell_angle_beta     104.30693163149793
_cell_angle_gamma    90.01058301004697

_space_group_name_H-M_alt    "P 1"
_space_group_IT_number       1

loop_
  _space_group_symop_operation_xyz
  'x, y, z'

loop_
  _atom_site_type_symbol
  _atom_site_label
  _atom_site_symmetry_multiplicity
  _atom_site_fract_x
  _atom_site_fract_y
  _atom_site_fract_z
  _atom_site_occupancy
  H   H1        1.0  0.2769333273829061  0.5688202542947136  0.7539680526158606  1.0000
  H   H2        1.0  0.5240295611178069  0.4316135289701107  0.24596182564892644  1.0000
  H   H3        1.0  0.944488564800814  0.5644501520013278  0.5577867605822605  1.0000
  H   H4        1.0  0.38729761156287174  0.43647174576399544  0.44206761427358293  1.0000
  H   H5        1.0  0.018307968689455778  0.7363404383192743  0.41413758238279297  1.0000
  H   H6        1.0  0.6036252968660135  0.2642849450115179  0.5858028870358822  1.0000
  H   H7        1.0  0.4261766696255407  0.915440667144992  0.46893877396446737  1.0000
  H   H8        1.0  0.9562188467205743  0.0846208861920132  0.531194142316359  1.0000
  H   H9        1.0  0.7522028140268091  0.936065392007556  0.6739609002629692  1.0000
  H   H10       1.0  0.0778510075940417  0.0637197446561331  0.3263373535413479  1.0000
  H   H11       1.0  0.4719755704280145  0.7165490166246754  0.9802222815586675  1.0000
  H   H12       1.0  0.49198768851190533  0.2828273886178038  0.019642496805595013  1.0000
  H   H13       1.0  0.7492283875538988  0.8477889256977561  0.08595312839536712  1.0000
  H   H14       1.0  0.6636075334684861  0.15158072097982964  0.9140719511519678  1.0000
  H   H15       1.0  0.38210371293528317  0.0285975595843198  0.0850051021817535  1.0000
  H   H16       1.0  0.2971663904456178  0.9708337209995291  0.914775447608605  1.0000
  Au  Au1       1.0  0.9055651465860636  0.49665660299451275  0.8550277346649225  1.0000
  Au  Au2       1.0  0.050673062024451085  0.5029884099669529  0.1449073491823043  1.0000
  C   C1        1.0  0.5334337280237307  0.7544696848455388  0.7258275276500754  1.0000
  C   C2        1.0  0.8077247457153688  0.24554638413838595  0.27425009475543044  1.0000
  C   C3        1.0  0.30796482478743303  0.6485482741362106  0.6934904228933831  1.0000
  C   C4        1.0  0.6150382692583991  0.35189253987866215  0.3065143874325501  1.0000
  C   C5        1.0  0.1213651531822109  0.6452301274301674  0.5825145852389683  1.0000
  C   C6        1.0  0.5391650406308983  0.3553820147049366  0.41742158358835013  1.0000
  C   C7        1.0  0.1629818262162956  0.7421503824198791  0.5021863972502842  1.0000
  C   C8        1.0  0.6605416623373089  0.2582947586070077  0.4977846666559742  1.0000
  C   C9        1.0  0.3912918630415447  0.8435263406701947  0.5332006556577227  1.0000
  C   C10       1.0  0.8576490714185709  0.15667960852167073  0.46687628800953723  1.0000
  C   C11       1.0  0.576418280323871  0.8524763748473276  0.6464311497861388  1.0000
  C   C12       1.0  0.9297400926265881  0.14749862161176713  0.3536988863104683  1.0000
  C   C13       1.0  0.6015828055018488  0.832026720252635  0.9958092921732344  1.0000
  C   C14       1.0  0.6060615016886004  0.16741567598687365  0.004192734462023392  1.0000
  C   C15       1.0  0.4603323759764422  0.9997303194738193  0.9999447113250285  1.0000
  S   S1        1.0  0.775713073181713  0.7760127247348477  0.8709251629513446  1.0000
  S   S2        1.0  0.9051172403774076  0.2236099294884397  0.12915983216120708  1.0000
  Cl  Cl1       1.0  0.0569000909533841  0.21822424528146908  0.813279675751076  1.0000
  Cl  Cl2       1.0  0.24336576923734304  0.7816220058644487  0.18673798259689534  1.0000
