data_image0
_chemical_formula_structural       Cu4H40C20N8Cl8O4
_chemical_formula_sum              "Cu4 H40 C20 N8 Cl8 O4"
_cell_length_a       6.511105872709985
_cell_length_b       8.550192575499397
_cell_length_c       16.57751002089796
_cell_angle_alpha    89.99393627275832
_cell_angle_beta     90.02578561557317
_cell_angle_gamma    112.73675259881122

_space_group_name_H-M_alt    "P 1"
_space_group_IT_number       1

loop_
  _space_group_symop_operation_xyz
  'x, y, z'

loop_
  _atom_site_type_symbol
  _atom_site_label
  _atom_site_symmetry_multiplicity
  _atom_site_fract_x
  _atom_site_fract_y
  _atom_site_fract_z
  _atom_site_occupancy
  Cu  Cu1       1.0  0.9999983393959508  0.5000007725303776  0.49999977443543736  1.0000
  Cu  Cu2       1.0  4.506884039584208e-07  0.9999976262999085  0.999999401403194  1.0000
  Cu  Cu3       1.0  0.49999831575977527  0.5000016886756598  0.5000000390435488  1.0000
  Cu  Cu4       1.0  0.49999893629504993  0.999996705133455  0.9999997398856452  1.0000
  H   H1        1.0  0.8461949726490656  0.9754797570463865  0.5768391111976924  1.0000
  H   H2        1.0  0.8466930317306448  0.4755552576126263  0.9231921524546605  1.0000
  H   H3        1.0  0.1538038347369053  0.0245248934721332  0.4231609670471528  1.0000
  H   H4        1.0  0.15330247629209032  0.524436721868689  0.07680551294155438  1.0000
  H   H5        1.0  0.9892885176949731  0.200580149181981  0.5878218968211186  1.0000
  H   H6        1.0  0.9895836916819079  0.7006639165417352  0.9122530304322749  1.0000
  H   H7        1.0  0.010710553151710676  0.799421970208435  0.41217818151739033  1.0000
  H   H8        1.0  0.010413357316899406  0.29932806834151643  0.08774885768897177  1.0000
  H   H9        1.0  0.2952039036751159  0.004374718900557199  0.5971175731977921  1.0000
  H   H10       1.0  0.2954623896034505  0.5039758550364866  0.9029367536639439  1.0000
  H   H11       1.0  0.704794904815806  0.9956299317607459  0.40288431472789193  1.0000
  H   H12       1.0  0.704534394093052  0.4960186607368937  0.0970621182288909  1.0000
  H   H13       1.0  0.427277656100209  0.8582281911850344  0.5824930154873584  1.0000
  H   H14       1.0  0.4279558845183544  0.3580578105573551  0.9175156683835508  1.0000
  H   H15       1.0  0.5727217894909556  0.14177772752710638  0.4175082692327407  1.0000
  H   H16       1.0  0.5720387229434107  0.6419354320012332  0.08248260012458528  1.0000
  H   H17       1.0  0.8814575282043433  0.17987748187324828  0.7326042522696311  1.0000
  H   H18       1.0  0.8815201909615737  0.6800078479418161  0.767464124492143  1.0000
  H   H19       1.0  0.1185461589408376  0.8201246528662479  0.26739763615888984  1.0000
  H   H20       1.0  0.1184786167927072  0.31999680262429553  0.23253655697964598  1.0000
  H   H21       1.0  0.011455024992358202  0.0365559104010273  0.713894325241263  1.0000
  H   H22       1.0  0.011694631218638632  0.5367758224225126  0.7861464375723058  1.0000
  H   H23       1.0  0.9885480235793052  0.963444956097241  0.2861057534850531  1.0000
  H   H24       1.0  0.9883072522263844  0.4632288381383417  0.21385243449142163  1.0000
  H   H25       1.0  0.2915372664260616  0.8260643612374492  0.7202106315407163  1.0000
  H   H26       1.0  0.29176940711708  0.3259029806924332  0.7797732924024527  1.0000
  H   H27       1.0  0.7084630797260727  0.17394029439742548  0.27979005006746144  1.0000
  H   H28       1.0  0.708235815847722  0.6740991587826526  0.22022437357382063  1.0000
  H   H29       1.0  0.4253345070804355  0.0457049150136655  0.7397398659282785  1.0000
  H   H30       1.0  0.4252895460636663  0.5455793624920985  0.7603147190890951  1.0000
  H   H31       1.0  0.5746682791354657  0.9542984827555044  0.2602620223852128  1.0000
  H   H32       1.0  0.5747110628125397  0.4544227619194885  0.23968475615885143  1.0000
  H   H33       1.0  0.6590004559558621  0.9051030939434241  0.7961239784931421  1.0000
  H   H34       1.0  0.659139030303514  0.405285476629416  0.7038598355890568  1.0000
  H   H35       1.0  0.341000417117705  0.09489649943524368  0.2038767033023703  1.0000
  H   H36       1.0  0.34086439117103845  0.5947191889526096  0.29613843338410817  1.0000
  H   H37       1.0  0.6494183178444644  0.7964544375750152  0.7036641265208842  1.0000
  H   H38       1.0  0.6498689488237587  0.29653432680496644  0.796290270610271  1.0000
  H   H39       1.0  0.3505807526338954  0.20354768176780166  0.2963353485906737  1.0000
  H   H40       1.0  0.35013346080606306  0.7034652714044893  0.20370739518688907  1.0000
  C   C1        1.0  0.8507281312052868  0.08851872540438417  0.6099547588024521  1.0000
  C   C2        1.0  0.851050517282509  0.5885877822821398  0.8900867201481188  1.0000
  C   C3        1.0  0.14927683014039417  0.9114859454367872  0.3900459232148918  1.0000
  C   C4        1.0  0.14894870610943664  0.41140547557792934  0.1099127552230854  1.0000
  C   C5        1.0  0.43507847931141447  0.9718822824041881  0.6153814994360616  1.0000
  C   C6        1.0  0.43542964407372137  0.4716614584408346  0.884650581094739  1.0000
  C   C7        1.0  0.5649225046776036  0.02812364137672319  0.38461978542043335  1.0000
  C   C8        1.0  0.5645677770913408  0.5283343254309826  0.11534829081946188  1.0000
  C   C9        1.0  0.8616550858313871  0.061901061846611996  0.7008338091525842  1.0000
  C   C10       1.0  0.8618609129142384  0.5620241224608549  0.7991978047227021  1.0000
  C   C11       1.0  0.13834860057716009  0.9381010727976928  0.2991668728220417  1.0000
  C   C12       1.0  0.13813995942268778  0.4379754708226286  0.20080167061891524  1.0000
  C   C13       1.0  0.4398886106918523  0.9397449559079901  0.7060864308489838  1.0000
  C   C14       1.0  0.44004638272439667  0.4396234853129144  0.7939368070387829  1.0000
  C   C15       1.0  0.5601110983600393  0.06025843167604711  0.2939148539647859  1.0000
  C   C16       1.0  0.5599504006037818  0.5603710304128667  0.206061461627101  1.0000
  C   C17       1.0  0.6525947962980325  0.9155328010418982  0.7302435023471858  1.0000
  C   C18       1.0  0.6528166073532232  0.4156027882310055  0.7697530834722952  1.0000
  C   C19       1.0  0.34740453800936416  0.08446678722040697  0.26975657608498677  1.0000
  C   C20       1.0  0.3471833629494725  0.5843980679393539  0.23024458207345325  1.0000
  N   N1        1.0  0.6581061020884036  0.25378057057875475  0.562021173760904  1.0000
  N   N2        1.0  0.658164665560868  0.7536864827607985  0.9379823474527311  1.0000
  N   N3        1.0  0.3418951449930105  0.7462228220264535  0.43797950796230367  1.0000
  N   N4        1.0  0.34183275597251855  0.246309301158611  0.062017127688413595  1.0000
  N   N5        1.0  0.6433523227991955  0.11019662906041819  0.5914975186484168  1.0000
  N   N6        1.0  0.6436342201595835  0.610112672702634  0.9085385227810148  1.0000
  N   N7        1.0  0.356648023352939  0.8898080265744638  0.40850316295976086  1.0000
  N   N8        1.0  0.356361927173303  0.3898805751151001  0.09146215877129997  1.0000
  Cl  Cl1       1.0  0.734753703257489  0.48075722392787407  0.40145231969146516  1.0000
  Cl  Cl2       1.0  0.7349982216237334  0.9807685213097057  0.0983742377110275  1.0000
  Cl  Cl3       1.0  0.26524382919134126  0.5192448903937715  0.598547758510648  1.0000
  Cl  Cl4       1.0  0.2650007379391822  0.0192272676308747  0.9016246343395549  1.0000
  Cl  Cl5       1.0  0.8839916674307485  0.6724559542573587  0.5764352567508481  1.0000
  Cl  Cl6       1.0  0.8839342640898238  0.17248283431526087  0.9234590383930621  1.0000
  Cl  Cl7       1.0  0.11600957928234829  0.32754743830025757  0.42356482174541543  1.0000
  Cl  Cl8       1.0  0.11606315781187952  0.8275129496517406  0.0765410399750337  1.0000
  O   O1        1.0  0.4739851259369203  0.2706551896347875  0.5502927141630636  1.0000
  O   O2        1.0  0.47400124912751096  0.7703981802327107  0.9496379800421975  1.0000
  O   O3        1.0  0.5260145827466473  0.7293481979016574  0.44970796742375535  1.0000
  O   O4        1.0  0.5259968091378012  0.2295988716899444  0.050360288666411186  1.0000
