data_image0
_chemical_formula_structural       Hg2H16C22N6Cl6O2
_chemical_formula_sum              "Hg2 H16 C22 N6 Cl6 O2"
_cell_length_a       3.968215957762935
_cell_length_b       11.815214059904369
_cell_length_c       15.32356694947835
_cell_angle_alpha    107.5778683420284
_cell_angle_beta     95.66833080076402
_cell_angle_gamma    100.75019472038638

_space_group_name_H-M_alt    "P 1"
_space_group_IT_number       1

loop_
  _space_group_symop_operation_xyz
  'x, y, z'

loop_
  _atom_site_type_symbol
  _atom_site_label
  _atom_site_symmetry_multiplicity
  _atom_site_fract_x
  _atom_site_fract_y
  _atom_site_fract_z
  _atom_site_occupancy
  Hg  Hg1       1.0  0.10845859505008792  0.832726205649962  0.4802100383449855  1.0000
  Hg  Hg2       1.0  0.891563324731159  0.16727723465042027  0.5197884184348212  1.0000
  H   H1        1.0  0.1088529035467687  0.3361829908949332  0.3487983674441679  1.0000
  H   H2        1.0  0.8911402891885274  0.6638148719763491  0.6511972950081316  1.0000
  H   H3        1.0  0.24694109506550893  0.5557162091622558  0.45865697174088654  1.0000
  H   H4        1.0  0.7530715805504611  0.44428448989643216  0.5413392597637667  1.0000
  H   H5        1.0  0.6751164466989721  0.653898978874551  0.26244658588777986  1.0000
  H   H6        1.0  0.32489754729605375  0.346108058856494  0.7375525321006507  1.0000
  H   H7        1.0  0.38522511505516377  0.07901136969557851  0.0012958275473238085  1.0000
  H   H8        1.0  0.614747138329676  0.9209816352041996  0.9987072183725092  1.0000
  H   H9        1.0  0.7465268530615248  0.0369379886216379  0.7440938107366293  1.0000
  H   H10       1.0  0.253487088860936  0.9630525970728882  0.25590521141386097  1.0000
  H   H11       1.0  0.7246458741475762  0.25651561468603024  0.805455796049863  1.0000
  H   H12       1.0  0.27536111045137796  0.7434759068739679  0.1945406540732862  1.0000
  H   H13       1.0  0.03673283333113639  0.38758100562367304  0.9610496615793451  1.0000
  H   H14       1.0  0.9632585790543118  0.6124140612442163  0.03894788159205124  1.0000
  H   H15       1.0  0.5533582194219447  0.262067558534305  0.11249198855113463  1.0000
  H   H16       1.0  0.44664512606171763  0.7379429574584079  0.8875122563390151  1.0000
  C   C1        1.0  0.010041693903438915  0.40727944221545453  0.32987329544771177  1.0000
  C   C2        1.0  0.9899593463047225  0.5927229881665851  0.6701243467628616  1.0000
  C   C3        1.0  0.08640546756804209  0.5272705079743503  0.3902437881071209  1.0000
  C   C4        1.0  0.9136023549543284  0.4727346971724912  0.6097540624518702  1.0000
  C   C5        1.0  0.7704871315704552  0.58297947176289  0.2823406441303292  1.0000
  C   C6        1.0  0.22952691459938973  0.4170275965065712  0.7176571773341395  1.0000
  C   C7        1.0  0.6911674559590893  0.4619800723383918  0.22264772479835673  1.0000
  C   C8        1.0  0.3088366569416934  0.5380232667011455  0.7773508752579232  1.0000
  C   C9        1.0  0.4544684544103532  0.42684459417210974  0.13093134326183536  1.0000
  C   C10       1.0  0.5455064955099755  0.5731649361255434  0.8690692775887926  1.0000
  C   C11       1.0  0.2301247340801922  0.24132904080597228  0.9912995336445862  1.0000
  C   C12       1.0  0.7698537690395214  0.7586658424856411  0.008702834918736439  1.0000
  C   C13       1.0  0.2383047225765793  0.1174667016011881  0.9582587603150686  1.0000
  C   C14       1.0  0.7616926786696682  0.8825300909664265  0.04174458811964859  1.0000
  C   C15       1.0  0.06723575538052269  0.04638317687877699  0.8695793587680285  1.0000
  C   C16       1.0  0.9327630164707228  0.9536117741505733  0.13042488344555647  1.0000
  C   C17       1.0  0.8816191502556875  0.0945999539262914  0.8129976978865943  1.0000
  C   C18       1.0  0.11838371492571287  0.9053932747337753  0.18700297241276334  1.0000
  C   C19       1.0  0.8730623726326883  0.21744806515255274  0.8476940186830646  1.0000
  C   C20       1.0  0.12694072733537345  0.7825453009304084  0.15230081725844974  1.0000
  C   C21       1.0  0.04598683630852921  0.292173837509992  0.9357912899240264  1.0000
  C   C22       1.0  0.9539996969470367  0.7078175094277981  0.06420782438274843  1.0000
  N   N1        1.0  0.8139723539100175  0.37523119252496423  0.2463705430404134  1.0000
  N   N2        1.0  0.18601595964426562  0.6247711611652704  0.753627386728212  1.0000
  N   N3        1.0  0.9673264207472058  0.614255941628812  0.3657053360331517  1.0000
  N   N4        1.0  0.03268508530934608  0.38575111435613246  0.6342924132905311  1.0000
  N   N5        1.0  0.4200602013154652  0.308125418751878  0.079767013584835  1.0000
  N   N6        1.0  0.5799265590219633  0.6918786695921567  0.9202345602387966  1.0000
  Cl  Cl1       1.0  0.7161348731280411  0.8987911990601417  0.3860697762619695  1.0000
  Cl  Cl2       1.0  0.2838752808083598  0.10121389621753712  0.6139333325336693  1.0000
  Cl  Cl3       1.0  0.5194158525700628  0.7905384337464054  0.5852383184375967  1.0000
  Cl  Cl4       1.0  0.48060202605585534  0.20946675946167656  0.4147624137324684  1.0000
  Cl  Cl5       1.0  0.09455581462512433  0.8947969900522493  0.8279231385231116  1.0000
  Cl  Cl6       1.0  0.9054316533520606  0.10519607328543398  0.17208098850342424  1.0000
  O   O1        1.0  0.3097406160428591  0.501863134638306  0.11056370695665416  1.0000
  O   O2        1.0  0.6902558949517754  0.4981445760511817  0.8894416261090472  1.0000
