data_image0
_chemical_formula_structural       Ag4H32C48S4N8O8F12
_chemical_formula_sum              "Ag4 H32 C48 S4 N8 O8 F12"
_cell_length_a       9.29188527032053
_cell_length_b       9.291884327050354
_cell_length_c       17.425067164513255
_cell_angle_alpha    82.85452976581743
_cell_angle_beta     82.85455567397783
_cell_angle_gamma    63.841939306359265

_space_group_name_H-M_alt    "P 1"
_space_group_IT_number       1

loop_
  _space_group_symop_operation_xyz
  'x, y, z'

loop_
  _atom_site_type_symbol
  _atom_site_label
  _atom_site_symmetry_multiplicity
  _atom_site_fract_x
  _atom_site_fract_y
  _atom_site_fract_z
  _atom_site_occupancy
  Ag  Ag1       1.0  0.5922957983380641  0.33226314856331374  0.5822675883817114  1.0000
  Ag  Ag2       1.0  0.33226166444672595  0.5922953888399575  0.08226828776795263  1.0000
  Ag  Ag3       1.0  0.40770361908398906  0.6677386350765887  0.417732436215843  1.0000
  Ag  Ag4       1.0  0.6677371885344313  0.40770519172142633  0.9177318498646588  1.0000
  H   H1        1.0  0.353870851429015  0.9014600041825529  0.6137374837928818  1.0000
  H   H2        1.0  0.9014607539062212  0.3538669839371735  0.11373663424273421  1.0000
  H   H3        1.0  0.6461306802376895  0.09853936428839921  0.3862642817313572  1.0000
  H   H4        1.0  0.09853965568859017  0.6461299851874784  0.8862642086925946  1.0000
  H   H5        1.0  0.1402497047033151  0.0532750751756126  0.5197802527242956  1.0000
  H   H6        1.0  0.05327636416507889  0.14024716942989104  0.0197797831660651  1.0000
  H   H7        1.0  0.8597529182203939  0.9467243005074764  0.48022029476360484  1.0000
  H   H8        1.0  0.9467262143239308  0.8597498004975536  0.9802209210146274  1.0000
  H   H9        1.0  0.1083492735105764  0.32480502460742133  0.4626876319541112  1.0000
  H   H10       1.0  0.3248069986631846  0.10834744286400169  0.9626876132930422  1.0000
  H   H11       1.0  0.8916516971201816  0.6751931441903805  0.5373136722756726  1.0000
  H   H12       1.0  0.675194536408476  0.891651929012319  0.03731357790167783  1.0000
  H   H13       1.0  0.29723436356881905  0.4306264449239876  0.49575122921808673  1.0000
  H   H14       1.0  0.4306264559176327  0.29723355186631295  0.995751261219255  1.0000
  H   H15       1.0  0.7027660904606847  0.5693729299563017  0.5042494570244429  1.0000
  H   H16       1.0  0.5693723970635247  0.7027670286950708  0.004248876413349495  1.0000
  H   H17       1.0  0.3871718019741834  0.4404092448792553  0.8194738035213194  1.0000
  H   H18       1.0  0.4404105128725675  0.3871726279168897  0.319473136750915  1.0000
  H   H19       1.0  0.6128296920677272  0.5595877246467963  0.18052697003668783  1.0000
  H   H20       1.0  0.5595878201023864  0.6128291553216201  0.680526957223961  1.0000
  H   H21       1.0  0.3554395278430674  0.29430973162445184  0.7173611302994021  1.0000
  H   H22       1.0  0.29430925639114486  0.3554369055159229  0.21736192994321613  1.0000
  H   H23       1.0  0.644562530639739  0.7056884409801185  0.2826395302235555  1.0000
  H   H24       1.0  0.7056884608983081  0.6445612620776869  0.7826395824185186  1.0000
  H   H25       1.0  0.8195418515185294  0.9076391765718484  0.7689666030483979  1.0000
  H   H26       1.0  0.9076412419411212  0.8195418744065248  0.26896479293048275  1.0000
  H   H27       1.0  0.18045964933327943  0.09235779976494032  0.2310330218505926  1.0000
  H   H28       1.0  0.09235818910072881  0.1804599228548511  0.7310329343490382  1.0000
  H   H29       1.0  0.8263379517042821  0.068719265047946  0.8708975467370269  1.0000
  H   H30       1.0  0.06872163779133439  0.8263412528634221  0.37089426061000114  1.0000
  H   H31       1.0  0.1736629813016818  0.9312765048049486  0.12910276552652533  1.0000
  H   H32       1.0  0.9312767566430651  0.17366295315756727  0.6291028050245373  1.0000
  C   C1        1.0  0.4350013800902843  0.08813432761903778  0.6028589883357756  1.0000
  C   C2        1.0  0.08813390768657561  0.43499845585292013  0.10285919643688864  1.0000
  C   C3        1.0  0.5650007194222725  0.9118662473358013  0.3971420898238948  1.0000
  C   C4        1.0  0.9118654653007853  0.5650009220313451  0.8971409848534578  1.0000
  C   C5        1.0  0.3363669982052357  0.0193230145464014  0.5865174235826061  1.0000
  C   C6        1.0  0.019322773376849525  0.33636461322768696  0.08651701535938373  1.0000
  C   C7        1.0  0.6636329324131224  0.980677559605645  0.4134837933317003  1.0000
  C   C8        1.0  0.9806771196167073  0.6636335619794521  0.9134832095886979  1.0000
  C   C9        1.0  0.21856365720675802  0.10337632639077299  0.5346166759400861  1.0000
  C   C10       1.0  0.1033775497085472  0.21856090731527897  0.03461622100699201  1.0000
  C   C11       1.0  0.7814373134239997  0.8966218424070291  0.46538462828969085  1.0000
  C   C12       1.0  0.8966234243271599  0.7814372648878917  0.9653845088932802  1.0000
  C   C13       1.0  0.2008013605101198  0.25492849014001706  0.5024058792395041  1.0000
  C   C14       1.0  0.25492692716596826  0.20079966879369235  0.002406128518288099  1.0000
  C   C15       1.0  0.7991991345491342  0.7450732870905483  0.4975952246397456  1.0000
  C   C16       1.0  0.7450735268635352  0.7991997060866042  0.9975945577242487  1.0000
  C   C17       1.0  0.3043239823224225  0.3146154441151269  0.5212485017923784  1.0000
  C   C18       1.0  0.3146155474231094  0.304323411528678  0.021249141593038704  1.0000
  C   C19       1.0  0.6956759517008777  0.6853851334422887  0.4787521407924233  1.0000
  C   C20       1.0  0.6853843866001978  0.6956771660287372  0.9787515009917628  1.0000
  C   C21       1.0  0.4792774369325628  0.32125737123082837  0.8065404645417831  1.0000
  C   C22       1.0  0.32125875013613847  0.4792771280159299  0.30653926465154774  1.0000
  C   C23       1.0  0.5207251415564471  0.6787395986966233  0.19346023963890963  1.0000
  C   C24       1.0  0.6787390218028688  0.5207234555494226  0.6934603680288662  1.0000
  C   C25       1.0  0.46291839214232766  0.2392964929686272  0.7491029594816185  1.0000
  C   C26       1.0  0.23929579000548518  0.4629181163565974  0.2491036046196982  1.0000
  C   C27       1.0  0.5370825852983289  0.7607016826399117  0.2508971960891487  1.0000
  C   C28       1.0  0.7607008872715681  0.5370824565912572  0.750897820426566  1.0000
  C   C29       1.0  0.5875115451490843  0.0884742164241885  0.7330831912729254  1.0000
  C   C30       1.0  0.08847418194777396  0.5875099828202153  0.23308269593614742  1.0000
  C   C31       1.0  0.41248891228536866  0.9115251618614765  0.26691692064009953  1.0000
  C   C32       1.0  0.9115246300036264  0.4124881953908996  0.7669170240597439  1.0000
  C   C33       1.0  0.7195643166263821  0.024254627970698595  0.7786900335003468  1.0000
  C   C34       1.0  0.02425684051871003  0.719563357465212  0.27868875904049173  1.0000
  C   C35       1.0  0.2804371808204777  0.9757423449607215  0.22131016572815554  1.0000
  C   C36       1.0  0.975743103719445  0.2804372303083085  0.7213101605557882  1.0000
  C   C37       1.0  0.7249400151071582  0.11413469472280012  0.8351148733522467  1.0000
  C   C38       1.0  0.11413777914472698  0.7249406431585824  0.3351123037264118  1.0000
  C   C39       1.0  0.2750635999893092  0.8858598664450383  0.16488649247342832  1.0000
  C   C40       1.0  0.8858611284859776  0.27506235337455104  0.6648859542248859  1.0000
  C   C41       1.0  0.7712097429247178  0.2991704152917052  0.4270433859496948  1.0000
  C   C42       1.0  0.29917126880439343  0.7712066969209842  0.9270422883582371  1.0000
  C   C43       1.0  0.2287934444398942  0.7008301634699025  0.572957048503149  1.0000
  C   C44       1.0  0.7008302388573141  0.22879028622654118  0.07295618788173641  1.0000
  C   C45       1.0  0.8691176587758704  0.2908165937231643  0.3469000403947505  1.0000
  C   C46       1.0  0.2908175709063699  0.8691195432045544  0.8468997549466124  1.0000
  C   C47       1.0  0.13087959656188267  0.7091851959246824  0.6530989742984235  1.0000
  C   C48       1.0  0.7091823801416834  0.13088105137970274  0.15309801599064346  1.0000
  S   S1        1.0  0.5958738109969913  0.9681748963838857  0.6611901363945949  1.0000
  S   S2        1.0  0.9681754033155271  0.5958689121605971  0.16119049561341822  1.0000
  S   S3        1.0  0.4041282508907641  0.03182327962604601  0.3388099497988507  1.0000
  S   S4        1.0  0.03182340523093069  0.4041292626451423  0.8388097987119779  1.0000
  N   N1        1.0  0.4214707992919811  0.23243215496517422  0.5698601338583986  1.0000
  N   N2        1.0  0.23243094257122723  0.42146964687874794  0.06986029778747851  1.0000
  N   N3        1.0  0.5785302191784256  0.7675684229936407  0.43014043934908147  1.0000
  N   N4        1.0  0.7675679104099301  0.5785309336826359  0.930139839845133  1.0000
  N   N5        1.0  0.6088035347117893  0.2621406796001793  0.8483228318091279  1.0000
  N   N6        1.0  0.26214167932860033  0.608805214396341  0.3483215069305318  1.0000
  N   N7        1.0  0.39119743932391765  0.7378574926029914  0.151677898091144  1.0000
  N   N8        1.0  0.7378561370450993  0.39119777492465607  0.6516779690570972  1.0000
  O   O1        1.0  0.6201419428286314  0.36148943749955015  0.4258012477228377  1.0000
  O   O2        1.0  0.36149100714878557  0.620142264323583  0.9257993400414367  1.0000
  O   O3        1.0  0.37985959564797167  0.638509937782146  0.5741993691423846  1.0000
  O   O4        1.0  0.6385095117451202  0.3798595367445684  0.07419774353125773  1.0000
  O   O5        1.0  0.8563122593284191  0.23900228444047394  0.4835848442489308  1.0000
  O   O6        1.0  0.23899923604039927  0.8563082747771418  0.9835851870077905  1.0000
  O   O7        1.0  0.1436905003043378  0.7610043119149097  0.5164146588310885  1.0000
  O   O8        1.0  0.761000660358107  0.14368990383537292  0.016414463610786405  1.0000
  F   F1        1.0  0.7775595783896136  0.37620910957208054  0.28730059649698353  1.0000
  F   F2        1.0  0.3762088714052963  0.7775656710086382  0.7873001403488191  1.0000
  F   F3        1.0  0.2224354636192344  0.6237902735173295  0.7126987136436116  1.0000
  F   F4        1.0  0.6237884317721054  0.22243852780021459  0.2126981433220579  1.0000
  F   F5        1.0  0.9495954297098306  0.13432082291949143  0.3275867877821599  1.0000
  F   F6        1.0  0.13431939352117428  0.9495976016149682  0.8275860362428988  1.0000
  F   F7        1.0  0.050405636600224624  0.8656821642003295  0.6724130544030232  1.0000
  F   F8        1.0  0.8656800751454835  0.05040659459131549  0.1724126830028539  1.0000
  F   F9        1.0  0.9827169826536206  0.347003270144917  0.3476874791720662  1.0000
  F   F10       1.0  0.3470005130650973  0.9827183719407845  0.8476891791662811  1.0000
  F   F11       1.0  0.017279848357219376  0.6530045405020745  0.6523100298187716  1.0000
  F   F12       1.0  0.6530015932573575  0.0172822098247991  0.15231075033437244  1.0000
