data_image0
_chemical_formula_structural       Na2H24C20S2N6O14
_chemical_formula_sum              "Na2 H24 C20 S2 N6 O14"
_cell_length_a       5.177905703892138
_cell_length_b       9.917394941698037
_cell_length_c       14.288986327178261
_cell_angle_alpha    99.92974971562379
_cell_angle_beta     95.83115676207237
_cell_angle_gamma    100.37059281146848

_space_group_name_H-M_alt    "P 1"
_space_group_IT_number       1

loop_
  _space_group_symop_operation_xyz
  'x, y, z'

loop_
  _atom_site_type_symbol
  _atom_site_label
  _atom_site_symmetry_multiplicity
  _atom_site_fract_x
  _atom_site_fract_y
  _atom_site_fract_z
  _atom_site_occupancy
  Na  Na1       1.0  0.4286131693199663  0.9631173119428097  0.6165364574124935  1.0000
  Na  Na2       1.0  0.5713722791780852  0.0368758305656556  0.38346475120402357  1.0000
  H   H1        1.0  0.6183365559051239  0.3866374666397689  0.6071761980544893  1.0000
  H   H2        1.0  0.3816430124706827  0.6133442390554362  0.3928257086875746  1.0000
  H   H3        1.0  0.5009862552645573  0.5600614192287025  0.7340923931445643  1.0000
  H   H4        1.0  0.4990122865201769  0.4399358810594761  0.2659055347933545  1.0000
  H   H5        1.0  0.73971718463104  0.603339746169503  0.9011285123376352  1.0000
  H   H6        1.0  0.2603076209508828  0.3966774172927998  0.09886685076203607  1.0000
  H   H7        1.0  0.08496266080568661  0.4685274506571274  0.9386834791280521  1.0000
  H   H8        1.0  0.9150618048392829  0.5314887435966753  0.061313871213712914  1.0000
  H   H9        1.0  0.0582205375550729  0.9259308224742216  0.8995718065419354  1.0000
  H   H10       1.0  0.9417689572513268  0.07406838312897428  0.1004238797018004  1.0000
  H   H11       1.0  0.9983024148912282  0.003610167382028406  0.7958741441205393  1.0000
  H   H12       1.0  0.0016932738473585589  0.9963900976476624  0.20412048326812024  1.0000
  H   H13       1.0  0.7561813340160198  0.8641234113745071  0.8172709030409209  1.0000
  H   H14       1.0  0.2438060514891589  0.13588094866150158  0.1827245369587516  1.0000
  H   H15       1.0  0.2827242370038121  0.2036389738584958  0.7649219369966858  1.0000
  H   H16       1.0  0.717280396098495  0.7963647881327134  0.23508108692190174  1.0000
  H   H17       1.0  0.9938773827007666  0.7512878163219482  0.6657802883802191  1.0000
  H   H18       1.0  0.0061236785802592  0.2487055751436458  0.3342236302279957  1.0000
  H   H19       1.0  0.21959619504845312  0.7586584773830225  0.7513806916586105  1.0000
  H   H20       1.0  0.7804059435273486  0.24133804785493848  0.24862359113376445  1.0000
  H   H21       1.0  0.704191917460392  0.7378867109393424  0.5507382334002955  1.0000
  H   H22       1.0  0.295811593058815  0.2621024953019386  0.4492639442098891  1.0000
  H   H23       1.0  0.4886350360806517  0.7223576040221147  0.6236203689528921  1.0000
  H   H24       1.0  0.5113660060390757  0.2776357120611834  0.376381441018502  1.0000
  C   C1        1.0  0.9132069155388862  0.328721020757925  0.7009146303777455  1.0000
  C   C2        1.0  0.08678899078212514  0.6712742942889633  0.2990864939960716  1.0000
  C   C3        1.0  0.7211800641627946  0.40591208175222687  0.6799884259512153  1.0000
  C   C4        1.0  0.2788105201339732  0.594079061792648  0.3200134682628786  1.0000
  C   C5        1.0  0.6551042557299454  0.5031352399985849  0.7513586149693837  1.0000
  C   C6        1.0  0.34489818446020604  0.4968621036832987  0.24863946330726353  1.0000
  C   C7        1.0  0.7865419466704539  0.5261597690507074  0.8448674981861188  1.0000
  C   C8        1.0  0.2134715094406587  0.4738470124808528  0.1551305675625514  1.0000
  C   C9        1.0  0.9780829210180784  0.4508334006514828  0.8667865922897277  1.0000
  C   C10       1.0  0.021933927075870902  0.5491776060675235  0.1332127370861187  1.0000
  C   C11       1.0  0.04184899840884532  0.3505761587278187  0.795830618944521  1.0000
  C   C12       1.0  0.958159860261631  0.6494285656107408  0.20416916231280877  1.0000
  C   C13       1.0  0.5000822526985829  0.20717342557248483  0.9341492823272972  1.0000
  C   C14       1.0  0.4999219893699661  0.792829166190785  0.06585010580187863  1.0000
  C   C15       1.0  0.5813694126206103  0.22617607223828876  0.034110153039698284  1.0000
  C   C16       1.0  0.4186313412375782  0.7738277217414975  0.9658948291769819  1.0000
  C   C17       1.0  0.6115641207910727  0.10968514301335117  0.8680123220078357  1.0000
  C   C18       1.0  0.38843910204521853  0.8903257872099672  0.1319885898193078  1.0000
  C   C19       1.0  0.9097370086274238  0.9552942909009371  0.8515896747657266  1.0000
  C   C20       1.0  0.0902558653876255  0.04470908963484989  0.1484058693473145  1.0000
  S   S1        1.0  0.9833983737335502  0.2106340400439564  0.6013780180007942  1.0000
  S   S2        1.0  0.016591005105425445  0.789359271495364  0.3986268553491358  1.0000
  N   N1        1.0  0.23046634725714907  0.2720539039187954  0.8202481117911944  1.0000
  N   N2        1.0  0.769544819714298  0.7279518867074088  0.17975186603021598  1.0000
  N   N3        1.0  0.3239290975787483  0.28151123253176985  0.9092266215926728  1.0000
  N   N4        1.0  0.676075003552576  0.7184966107434576  0.09077470409861378  1.0000
  N   N5        1.0  0.6486928904951837  0.240033485113095  0.1163742674175055  1.0000
  N   N6        1.0  0.3513120569956741  0.7599711455768983  0.8836239577432251  1.0000
  O   O1        1.0  0.14125741842359932  0.1199036613919517  0.6422268208421613  1.0000
  O   O2        1.0  0.8587189761304046  0.8800801152185546  0.3577758812295571  1.0000
  O   O3        1.0  0.12804722759150175  0.30245204830315947  0.5458039816239335  1.0000
  O   O4        1.0  0.8719520445853349  0.6975361453359099  0.4542000328896236  1.0000
  O   O5        1.0  0.7245218261110509  0.13204512157834358  0.5504567983574944  1.0000
  O   O6        1.0  0.2754650715542368  0.8679522495481463  0.4495463015957739  1.0000
  O   O7        1.0  0.5445978828788967  0.08327921706867868  0.7804870273807724  1.0000
  O   O8        1.0  0.4554083217451678  0.9167346927318506  0.2195094036473151  1.0000
  O   O9        1.0  0.18827886737132363  0.7665220758057387  0.6837713704614146  1.0000
  O   O10       1.0  0.8117195137362786  0.2334691545265599  0.3162308244301286  1.0000
  O   O11       1.0  0.6671523994612159  0.7703847629909005  0.6166572832346802  1.0000
  O   O12       1.0  0.3328486362714074  0.2296085279649702  0.3833438238577784  1.0000
  O   O13       1.0  0.7944552760481685  0.05415169777402439  0.9132931426126945  1.0000
  O   O14       1.0  0.2055438046732617  0.9458527924431119  0.08670274840314104  1.0000
