data_image0
_chemical_formula_structural       Cu4H28C32N12O8
_chemical_formula_sum              "Cu4 H28 C32 N12 O8"
_cell_length_a       4.960566682075655
_cell_length_b       6.350031761007651
_cell_length_c       27.12496619247123
_cell_angle_alpha    89.9998536282802
_cell_angle_beta     89.99205271565727
_cell_angle_gamma    90.00009525914408

_space_group_name_H-M_alt    "P 1"
_space_group_IT_number       1

loop_
  _space_group_symop_operation_xyz
  'x, y, z'

loop_
  _atom_site_type_symbol
  _atom_site_label
  _atom_site_symmetry_multiplicity
  _atom_site_fract_x
  _atom_site_fract_y
  _atom_site_fract_z
  _atom_site_occupancy
  Cu  Cu1       1.0  0.99845500298283  0.630441770918111  0.2518203800668104  1.0000
  Cu  Cu2       1.0  0.5017020109037773  0.3694069888937506  0.7518019836231032  1.0000
  Cu  Cu3       1.0  0.0015556001343526005  0.13044052367296644  0.2481797899493543  1.0000
  Cu  Cu4       1.0  0.49828899354941575  0.8694092298413024  0.7481967107982612  1.0000
  H   H1        1.0  0.9053996111199328  0.3397193305688901  0.4367922085355218  1.0000
  H   H2        1.0  0.5946703481952512  0.6602723058595856  0.9368261942868799  1.0000
  H   H3        1.0  0.09459533049394513  0.8397136264423042  0.0632074669650109  1.0000
  H   H4        1.0  0.4053080947907406  0.1602688396006116  0.5631748382475124  1.0000
  H   H5        1.0  0.8108071888881769  0.35026129313167326  0.37372605246607543  1.0000
  H   H6        1.0  0.6892760474414034  0.6496696096601724  0.8737535751794921  1.0000
  H   H7        1.0  0.18919382373537275  0.8502565977902067  0.1262739852710766  1.0000
  H   H8        1.0  0.31070237196252043  0.14967006704089408  0.6262474637402704  1.0000
  H   H9        1.0  0.07778102294718542  0.18542534327661286  0.3920469988672934  1.0000
  H   H10       1.0  0.4223280453988779  0.814534661936406  0.8920817472004074  1.0000
  H   H11       1.0  0.9222236544993054  0.6854138816468094  0.1079538754377793  1.0000
  H   H12       1.0  0.5776547725498846  0.3145293498270476  0.6079191923628998  1.0000
  H   H13       1.0  0.15387258183741892  0.6287866766046832  0.4429572944229037  1.0000
  H   H14       1.0  0.3460852588660757  0.3713649025346797  0.9428773869723273  1.0000
  H   H15       1.0  0.8461460812032869  0.12879484709938543  0.05704287648448769  1.0000
  H   H16       1.0  0.6539178454747444  0.8713678320535861  0.5571209374510815  1.0000
  H   H17       1.0  0.23075707911777954  0.9209455714820579  0.5022864377534759  1.0000
  H   H18       1.0  0.2694220930968926  0.07924542789427852  0.0022365412006167  1.0000
  H   H19       1.0  0.7692541987006224  0.4209520214400868  0.9977129626931571  1.0000
  H   H20       1.0  0.7305763010207045  0.5792484024347857  0.4977629224787066  1.0000
  H   H21       1.0  0.41929493416027713  0.6142818230892858  0.3652218334618452  1.0000
  H   H22       1.0  0.08047958824614912  0.3857005201234216  0.8651796608364961  1.0000
  H   H23       1.0  0.580719664950074  0.11428567250626998  0.134777977571261  1.0000
  H   H24       1.0  0.9195154841153371  0.8857060867849141  0.6348193923820418  1.0000
  H   H25       1.0  0.5681302251574679  0.1994392574681925  0.4830528331810057  1.0000
  H   H26       1.0  0.9321205702327833  0.8006369169200269  0.9830596920259893  1.0000
  H   H27       1.0  0.4318724678575877  0.6994407720873355  0.0169472953764682  1.0000
  H   H28       1.0  0.0678642327003516  0.30063353307316726  0.5169412558823439  1.0000
  C   C1        1.0  0.6822704977661332  0.0703962591732861  0.4129171345265092  1.0000
  C   C2        1.0  0.8178134377928931  0.9295877621068058  0.912927567910053  1.0000
  C   C3        1.0  0.3177419876711697  0.5703921479072633  0.087083071633316  1.0000
  C   C4        1.0  0.18217568394137373  0.4295884845299085  0.5870729336077787  1.0000
  C   C5        1.0  0.7808290744630428  0.8865249617750877  0.33168751130138924  1.0000
  C   C6        1.0  0.7191064459303932  0.11334340470739332  0.8316972666916554  1.0000
  C   C7        1.0  0.21918008215364895  0.386524849827282  0.1683132418161222  1.0000
  C   C8        1.0  0.280879956667306  0.6133367929080791  0.6683026880163326  1.0000
  C   C9        1.0  0.6384158115281765  0.9003843842654078  0.3801199838259777  1.0000
  C   C10       1.0  0.8615013456761889  0.09956849646540179  0.8801128415809742  1.0000
  C   C11       1.0  0.3615994237504482  0.4003802493505759  0.1198803922032781  1.0000
  C   C12       1.0  0.138480994625418  0.5995669570311719  0.6198867528102099  1.0000
  C   C13       1.0  0.8795481520678765  0.24524595279509506  0.40329501349239644  1.0000
  C   C14       1.0  0.6205531087872842  0.7547161255020072  0.9033271762465772  1.0000
  C   C15       1.0  0.12045665873945671  0.7452414925818686  0.09670508744940781  1.0000
  C   C16       1.0  0.3794275604735376  0.2547138389720942  0.5966730620452267  1.0000
  C   C17       1.0  0.3027135714720046  0.749943686643128  0.4349439202009151  1.0000
  C   C18       1.0  0.197262394860836  0.2501591605239142  0.9348929529822242  1.0000
  C   C19       1.0  0.6973013292931542  0.24995158570042256  0.0650561777788639  1.0000
  C   C20       1.0  0.8027323759818759  0.7501669124922684  0.56510618187923  1.0000
  C   C21       1.0  0.34577299215447976  0.9149490082391907  0.4679855743272796  1.0000
  C   C22       1.0  0.15435142641220523  0.0851723784731675  0.967948706683316  1.0000
  C   C23       1.0  0.6542362277009915  0.4149556371008956  0.0320151616669264  1.0000
  C   C24       1.0  0.8456449931591267  0.5851742426481792  0.5320508961983137  1.0000
  C   C25       1.0  0.4511444631506337  0.7418763382910852  0.39142271168766024  1.0000
  C   C26       1.0  0.04876351121627211  0.25814036655332023  0.8913906435812038  1.0000
  C   C27       1.0  0.5488684032040683  0.24187570770067174  0.1085788658360158  1.0000
  C   C28       1.0  0.9512312773756122  0.7581431069632101  0.6086084864742604  1.0000
  C   C29       1.0  0.5341720174134964  0.0711801766643063  0.45697917116024195  1.0000
  C   C30       1.0  0.9659815177000158  0.9288647843470413  0.9569721841707732  1.0000
  C   C31       1.0  0.4658384542918484  0.5711814508986137  0.0430199285593176  1.0000
  C   C32       1.0  0.03400558653103761  0.4288689498184368  0.5430283178072344  1.0000
  N   N1        1.0  0.2494511476123692  0.8816526340214992  0.2544658094287939  1.0000
  N   N2        1.0  0.25027184841889755  0.1183088626813031  0.7543147636256791  1.0000
  N   N3        1.0  0.7505761423638406  0.3816507696640911  0.24553199708014256  1.0000
  N   N4        1.0  0.7497185977238133  0.6183082931186946  0.7456833447178112  1.0000
  N   N5        1.0  0.4514455644006362  0.8793552685353276  0.2294456899820858  1.0000
  N   N6        1.0  0.047391044970787305  0.12067263852792108  0.7295881041310892  1.0000
  N   N7        1.0  0.5485434161650177  0.3793528824882129  0.2705580170244559  1.0000
  N   N8        1.0  0.9525994062948303  0.6206752022698866  0.7704103714516818  1.0000
  N   N9        1.0  0.6531324073722758  0.8776468596491328  0.2074972831874291  1.0000
  N   N10       1.0  0.8450097446671452  0.12245906901453908  0.7078072078296741  1.0000
  N   N11       1.0  0.34690293645105197  0.3776424108856631  0.2925027376166298  1.0000
  N   N12       1.0  0.1549786948131384  0.6224619822582369  0.7921908980385979  1.0000
  O   O1        1.0  0.8313173825650678  0.7026882089631813  0.31477040363282777  1.0000
  O   O2        1.0  0.6687256564308371  0.29715199482694027  0.8147330403653328  1.0000
  O   O3        1.0  0.16868733384858817  0.20268470150777065  0.1852289856153035  1.0000
  O   O4        1.0  0.33126921893634187  0.7971468365093415  0.6852660661937976  1.0000
  O   O5        1.0  0.8326749686086008  0.06102057610691251  0.31052615029289393  1.0000
  O   O6        1.0  0.6671918390253637  0.9388669171877455  0.810531571107468  1.0000
  O   O7        1.0  0.16734757518786847  0.5610167436614049  0.1894747987138103  1.0000
  O   O8        1.0  0.332787224130783  0.4388635673520866  0.6894681876227722  1.0000
