data_image0
_chemical_formula_structural       Cu2P4H36C40N4O12
_chemical_formula_sum              "Cu2 P4 H36 C40 N4 O12"
_cell_length_a       9.723295629574856
_cell_length_b       11.29638277282782
_cell_length_c       11.282703833573144
_cell_angle_alpha    116.23402393608528
_cell_angle_beta     111.63305904587865
_cell_angle_gamma    92.96405535073335

_space_group_name_H-M_alt    "P 1"
_space_group_IT_number       1

loop_
  _space_group_symop_operation_xyz
  'x, y, z'

loop_
  _atom_site_type_symbol
  _atom_site_label
  _atom_site_symmetry_multiplicity
  _atom_site_fract_x
  _atom_site_fract_y
  _atom_site_fract_z
  _atom_site_occupancy
  Cu  Cu1       1.0  0.6356934930859309  0.8746207771644947  0.8877107817399756  1.0000
  Cu  Cu2       1.0  0.3643047491159521  0.12538045964419808  0.11229066698610521  1.0000
  P   P1        1.0  0.6719381934378036  0.0233689374810666  0.21395746667368334  1.0000
  P   P2        1.0  0.3280619463706174  0.9766312781319827  0.7860414631743989  1.0000
  P   P3        1.0  0.25449770335176686  0.7993115875239881  0.006449889424366928  1.0000
  P   P4        1.0  0.7455010292180332  0.2006876022121347  0.9935472608046819  1.0000
  H   H1        1.0  0.5173402621659378  0.896099036238624  0.2369624417856853  1.0000
  H   H2        1.0  0.4826584870167778  0.1039001570971152  0.7630364878925986  1.0000
  H   H3        1.0  0.3213374900896255  0.7666815868440223  0.829434562566277  1.0000
  H   H4        1.0  0.678660427106955  0.23331862144861756  0.17056278409700804  1.0000
  H   H5        1.0  0.6688946158001414  0.9882056869229031  0.6902340707857844  1.0000
  H   H6        1.0  0.33110665608034395  0.0117945368498695  0.3097678749662335  1.0000
  H   H7        1.0  0.7135378785829259  0.887876503939772  0.46440625947441555  1.0000
  H   H8        1.0  0.2864633932975664  0.11212371983300068  0.5355956862776096  1.0000
  H   H9        1.0  0.752885262482934  0.6512531919557388  0.36594176094521197  1.0000
  H   H10       1.0  0.24711630117703007  0.3487480531338534  0.6340607279711392  1.0000
  H   H11       1.0  0.7554288709253285  0.43213165549968124  0.3860733227302617  1.0000
  H   H12       1.0  0.2445727010410863  0.5678695913897159  0.6139300559107069  1.0000
  H   H13       1.0  0.7140643361591046  0.3056406044354034  0.504700628114918  1.0000
  H   H14       1.0  0.2859375026674087  0.6943616583713846  0.495300624516531  1.0000
  H   H15       1.0  0.6550394540387926  0.3046248874278916  0.714106914272939  1.0000
  H   H16       1.0  0.3449618012287842  0.6953753327452716  0.28589325202985066  1.0000
  H   H17       1.0  0.5951322561315706  0.4313527756661557  0.9221595615828376  1.0000
  H   H18       1.0  0.40486648474468717  0.5686464158697788  0.07783847837082901  1.0000
  H   H19       1.0  0.5787530828173287  0.6779667279981609  0.9986470066282603  1.0000
  H   H20       1.0  0.42124536627945736  0.3220314422209611  0.0013504901610729859  1.0000
  H   H21       1.0  0.9151420159004642  0.12267110931339428  0.25131032256552993  1.0000
  H   H22       1.0  0.08485814052087907  0.8773291098992786  0.7486903867317876  1.0000
  H   H23       1.0  0.923307705552709  0.120110726205354  0.4105088797588863  1.0000
  H   H24       1.0  0.07669023656324465  0.8798894874867143  0.5894911360782513  1.0000
  H   H25       1.0  0.9723765887733008  0.9431804828630702  0.07390923882343943  1.0000
  H   H26       1.0  0.0276249582737478  0.0568207586269054  0.9260914706436835  1.0000
  H   H27       1.0  0.05649450546415841  0.5899341369836221  0.11495555139747173  1.0000
  H   H28       1.0  0.9435061579380174  0.41006403875609715  0.8850426388520345  1.0000
  H   H29       1.0  0.9846673653088086  0.6710253394541539  0.3219750569061899  1.0000
  H   H30       1.0  0.015332207553584016  0.3289728371248799  0.6780245660624684  1.0000
  H   H31       1.0  0.9037433797754202  0.8888339126834377  0.403404604999167  1.0000
  H   H32       1.0  0.0962553694072952  0.11116528065230821  0.596594324679117  1.0000
  H   H33       1.0  0.059516215262689805  0.6004418086888633  0.9103309413780775  1.0000
  H   H34       1.0  0.9404836410727169  0.3995573874071781  0.08966833503028938  1.0000
  H   H35       1.0  0.9852588820064836  0.7221881934295807  0.864063383399866  1.0000
  H   H36       1.0  0.014738751717082695  0.27781099534605147  0.13593430982371044  1.0000
  C   C1        1.0  0.6822518566716836  0.884496047406607  0.6423755492800111  1.0000
  C   C2        1.0  0.31774969868182273  0.1155051958831734  0.35762604991172947  1.0000
  C   C3        1.0  0.7104554124420802  0.8277053596710005  0.5172848231819244  1.0000
  C   C4        1.0  0.28954645130381357  0.17229690853520907  0.48271909862337026  1.0000
  C   C5        1.0  0.7309242487266231  0.6969189740007449  0.4627749476415486  1.0000
  C   C6        1.0  0.26907731493334097  0.30308227108884717  0.5372275412748022  1.0000
  C   C7        1.0  0.7192103389651479  0.6201466283082269  0.5309300730016132  1.0000
  C   C8        1.0  0.2807909329153446  0.3798535954645459  0.46907187275041184  1.0000
  C   C9        1.0  0.7321258608160619  0.4822769132872367  0.4816157676373293  1.0000
  C   C10       1.0  0.2678740305651672  0.517726359916338  0.5183826655244201  1.0000
  C   C11       1.0  0.7100440780283677  0.4121916872334594  0.5487537414704703  1.0000
  C   C12       1.0  0.28995719385212476  0.5878085365393132  0.4512482042815477  1.0000
  C   C13       1.0  0.6748768241329728  0.4745179220456138  0.6720291087264912  1.0000
  C   C14       1.0  0.3251244311346043  0.5254822981275425  0.327971057576299  1.0000
  C   C15       1.0  0.6483809623808341  0.4096869106383069  0.746724886918585  1.0000
  C   C16       1.0  0.35162027627382025  0.5903133059352399  0.2532734999349698  1.0000
  C   C17       1.0  0.6142435824180409  0.48111296397320297  0.864040029419314  1.0000
  C   C18       1.0  0.38575515845821673  0.5188862275627315  0.13595801053434534  1.0000
  C   C19       1.0  0.6053272419359319  0.6167259060990987  0.9074947186764035  1.0000
  C   C20       1.0  0.3946714989403261  0.38327328543683586  0.09250332127726314  1.0000
  C   C21       1.0  0.6636032544063893  0.6110856634281135  0.7234563091015359  1.0000
  C   C22       1.0  0.3363955030827839  0.38891353170743764  0.27654351030135865  1.0000
  C   C23       1.0  0.6858519420678277  0.6839720303531253  0.6531477091626954  1.0000
  C   C24       1.0  0.3141485061329803  0.31602921017636015  0.34685354329895535  1.0000
  C   C25       1.0  0.8799692395905083  0.058780871149835365  0.2906606407720531  1.0000
  C   C26       1.0  0.1200312003038419  0.9412203675798305  0.70933972196498  1.0000
  C   C27       1.0  0.9341727989934937  0.9307134924464151  0.24502461850080678  1.0000
  C   C28       1.0  0.06582846458054088  0.06928672952655289  0.7549764375266006  1.0000
  C   C29       1.0  0.9749846909207276  0.8831685540878239  0.1281776706860994  1.0000
  C   C30       1.0  0.025016864432778594  0.11683268920196348  0.8718239285056412  1.0000
  C   C31       1.0  0.018125465548436654  0.7600255531988012  0.07949622542060546  1.0000
  C   C32       1.0  0.9818755062461264  0.23997364745734728  0.9205042874424689  1.0000
  C   C33       1.0  0.0213868822695176  0.6848580130742972  0.15092383971787612  1.0000
  C   C34       1.0  0.9786143813045098  0.3151422088986706  0.849077216309524  1.0000
  C   C35       1.0  0.9814289248946294  0.7310133540385664  0.2675542825844133  1.0000
  C   C36       1.0  0.01857175512045473  0.2689848253007767  0.7324456871143352  1.0000
  C   C37       1.0  0.9375079325961693  0.8529991008134913  0.3139996995975307  1.0000
  C   C38       1.0  0.06249251560463882  0.14700213971599402  0.6860015528641127  1.0000
  C   C39       1.0  0.06265315778117748  0.7094319611652009  0.9548397591246451  1.0000
  C   C40       1.0  0.9373469903337082  0.2905682562476528  0.04516006044805467  1.0000
  N   N1        1.0  0.6297046758841277  0.6791605157422681  0.8382554560231837  1.0000
  N   N2        1.0  0.3702951804512793  0.32083868035378055  0.16174382038519036  1.0000
  N   N3        1.0  0.6705236784962595  0.8139152536569796  0.7080190585729156  1.0000
  N   N4        1.0  0.329477593384226  0.1860849701157932  0.2919828871791025  1.0000
  O   O1        1.0  0.2418023840126225  0.9394793035058484  0.021819529302256082  1.0000
  O   O2        1.0  0.7581974723227914  0.0605198925901931  0.9781797471061181  1.0000
  O   O3        1.0  0.6001511322151885  0.9055820477532633  0.05518563509437517  1.0000
  O   O4        1.0  0.3998490325126056  0.0944181732592142  0.9448159639275527  1.0000
  O   O5        1.0  0.6283981943200699  0.15757873839162778  0.23772185459201708  1.0000
  O   O6        1.0  0.3716033444205209  0.8424225012985359  0.7622779651504884  1.0000
  O   O7        1.0  0.6244158677191008  0.9693872717129323  0.3049296052788221  1.0000
  O   O8        1.0  0.37558317324308627  0.030612942939626495  0.6950698675637881  1.0000
  O   O9        1.0  0.3666929957485436  0.7991697091403012  0.14253422016591333  1.0000
  O   O10       1.0  0.6333059852484482  0.20082642300529588  0.8574634267494684  1.0000
  O   O11       1.0  0.2802868849167268  0.7089534095297125  0.865156282526861  1.0000
  O   O12       1.0  0.7197096333476832  0.29104577468581266  0.1348401742420079  1.0000
