data_image0
_chemical_formula_structural       Al2H17C18S2NO10
_chemical_formula_sum              "Al2 H17 C18 S2 N1 O10"
_cell_length_a       6.655771312601276
_cell_length_b       10.981579054504781
_cell_length_c       12.60202893057876
_cell_angle_alpha    84.81398309394052
_cell_angle_beta     77.20786275604311
_cell_angle_gamma    72.42113695770614

_space_group_name_H-M_alt    "P 1"
_space_group_IT_number       1

loop_
  _space_group_symop_operation_xyz
  'x, y, z'

loop_
  _atom_site_type_symbol
  _atom_site_label
  _atom_site_symmetry_multiplicity
  _atom_site_fract_x
  _atom_site_fract_y
  _atom_site_fract_z
  _atom_site_occupancy
  Al  Al1       1.0  0.49950304774954185  0.497231229507321  0.4991349083332466  1.0000
  Al  Al2       1.0  0.9950389571350017  0.5011507383376994  0.5020022865014155  1.0000
  H   H1        1.0  0.2866114453079475  0.3547856777026582  0.5739174004795728  1.0000
  H   H2        1.0  0.7032342428969615  0.6442025967129935  0.42634499308282875  1.0000
  H   H3        1.0  0.7477185652510272  0.42390917627437136  0.15759705569585947  1.0000
  H   H4        1.0  0.06586112741316445  0.8872567032785383  0.3285567979833459  1.0000
  H   H5        1.0  0.8103666958103376  0.8976681333131182  0.4124981673048468  1.0000
  H   H6        1.0  0.7302344620984227  0.12044602548832732  0.3947533106932539  1.0000
  H   H7        1.0  0.9969283517288758  0.10850378234881222  0.32494078791410896  1.0000
  H   H8        1.0  0.6453889381118572  0.10696316969595902  0.5992983441765247  1.0000
  H   H9        1.0  0.8354404152025977  0.11252557317654781  0.6753268003342613  1.0000
  H   H10       1.0  0.7621174576795298  0.8837597407512945  0.6158234248950906  1.0000
  H   H11       1.0  0.971743532700792  0.8902304190196234  0.6780343821492139  1.0000
  H   H12       1.0  0.3720918817066449  0.8921151547645818  0.4165985256098211  1.0000
  H   H13       1.0  0.3448703182053308  0.8785653797037513  0.558889835368781  1.0000
  H   H14       1.0  0.2185330235456249  0.10062422834486283  0.5744309238028151  1.0000
  H   H15       1.0  0.2788502555389983  0.11355921342591561  0.43149852157218765  1.0000
  H   H16       1.0  0.057192100344870773  0.5636572854442505  0.8836241315931803  1.0000
  H   H17       1.0  0.219223213049304  0.5633444160573547  0.7555858983570829  1.0000
  C   C1        1.0  0.8733092491707597  0.2690256711344361  0.4986175370282027  1.0000
  C   C2        1.0  0.6493522282683059  0.5058568931032994  0.6973257309646074  1.0000
  C   C3        1.0  0.12617676900013913  0.7294074726986325  0.5020131234334286  1.0000
  C   C4        1.0  0.3447575265906976  0.4841534638149057  0.30534220023023556  1.0000
  C   C5        1.0  0.3810333900584624  0.5260227328373545  0.8778728295985944  1.0000
  C   C6        1.0  0.6048986773839431  0.4508345170327175  0.12225170024800758  1.0000
  C   C7        1.0  0.5916567751932861  0.49766885957911466  0.8146195307715518  1.0000
  C   C8        1.0  0.39922348910932454  0.4810469564011584  0.18584356159528437  1.0000
  C   C9        1.0  0.5987802134199569  0.4640328668579698  0.01062326722147592  1.0000
  C   C10       1.0  0.3887843252648367  0.5058686888071194  0.9906942639887009  1.0000
  C   C11       1.0  0.9558258305435957  0.9284518313253968  0.4038400229417577  1.0000
  C   C12       1.0  0.9004130753187952  0.07625091699048171  0.398429191286077  1.0000
  C   C13       1.0  0.9459418020266526  0.12393775073856972  0.5000590403525252  1.0000
  C   C14       1.0  0.8170791650439353  0.072445710403251  0.6023080082909474  1.0000
  C   C15       1.0  0.8966558376379719  0.9245769750943753  0.607251975272867  1.0000
  C   C16       1.0  0.0624838120613519  0.8744966642990092  0.5023538393583777  1.0000
  C   C17       1.0  0.25915629503729337  0.9233833446880195  0.49372545438529164  1.0000
  C   C18       1.0  0.18765399631902827  0.0705896830448651  0.5000989271115017  1.0000
  S   S1        1.0  0.7916830640552418  0.44513530997141254  0.8918759867233278  1.0000
  S   S2        1.0  0.19777472457159462  0.5260943228325133  0.1102615227868569  1.0000
  N   N1        1.0  0.1987255679037716  0.5717273303003481  0.837523335379146  1.0000
  O   O1        1.0  0.6712864971180253  0.324269824865091  0.5140117448020264  1.0000
  O   O2        1.0  0.8485056879964504  0.4863854509554955  0.6517874205687452  1.0000
  O   O3        1.0  0.9752465245729733  0.6763906151258966  0.5196404540949048  1.0000
  O   O4        1.0  0.5037255359271455  0.4626000291581959  0.35231036659753573  1.0000
  O   O5        1.0  0.32612309562157543  0.6696587106406043  0.4823323191923522  1.0000
  O   O6        1.0  0.14591653915560007  0.5105163751009272  0.35115973138155  1.0000
  O   O7        1.0  0.017656248534308465  0.32634202477284896  0.48296973172249846  1.0000
  O   O8        1.0  0.49286941923486444  0.531201053024141  0.6464642076191254  1.0000
  O   O9        1.0  0.2534080648922057  0.4440444853928653  0.5507551655452971  1.0000
  O   O10       1.0  0.7403958888733868  0.5554700100096853  0.4508391101332947  1.0000
