data_image0
_chemical_formula_structural       Cu2P4H48C56O16
_chemical_formula_sum              "Cu2 P4 H48 C56 O16"
_cell_length_a       8.849599062237433
_cell_length_b       10.557466327588003
_cell_length_c       16.33177622115534
_cell_angle_alpha    103.21444070432497
_cell_angle_beta     96.64033596239588
_cell_angle_gamma    113.66943228111569

_space_group_name_H-M_alt    "P 1"
_space_group_IT_number       1

loop_
  _space_group_symop_operation_xyz
  'x, y, z'

loop_
  _atom_site_type_symbol
  _atom_site_label
  _atom_site_symmetry_multiplicity
  _atom_site_fract_x
  _atom_site_fract_y
  _atom_site_fract_z
  _atom_site_occupancy
  Cu  Cu1       1.0  0.12225157995415979  0.9521578220937387  0.9540421823273562  1.0000
  Cu  Cu2       1.0  0.8777596431692986  0.04790145627418949  0.0459815518408249  1.0000
  P   P1        1.0  0.0528449400490132  0.05346092372232649  0.23224998582176684  1.0000
  P   P2        1.0  0.9471667528192782  0.9465398593269465  0.7677557808596944  1.0000
  P   P3        1.0  0.5289639999794176  0.8220212692113336  0.07292434281495021  1.0000
  P   P4        1.0  0.4710367272174239  0.17799359206092188  0.9270810542843364  1.0000
  H   H1        1.0  0.5590389484103825  0.5977998708846285  0.058374765802298605  1.0000
  H   H2        1.0  0.4409657399162228  0.402207453482326  0.9416187103317528  1.0000
  H   H3        1.0  0.6255351563210424  0.7098444254870981  0.16736078603518217  1.0000
  H   H4        1.0  0.37447705066547604  0.290150987014421  0.8326319560421709  1.0000
  H   H5        1.0  0.8956922844549242  0.6316596643338456  0.9727610405044871  1.0000
  H   H6        1.0  0.1043045677548307  0.36837482583437964  0.027215241980066175  1.0000
  H   H7        1.0  0.3977375719437148  0.9727155305661127  0.13364348496214254  1.0000
  H   H8        1.0  0.6022956674611423  0.0273026011911313  0.8663747506071999  1.0000
  H   H9        1.0  0.14933367053616556  0.7611063830394542  0.8035999264594551  1.0000
  H   H10       1.0  0.8506180965831759  0.23892997313819808  0.1964296723673229  1.0000
  H   H11       1.0  0.882152165510533  0.46404663661125767  0.059714318875371854  1.0000
  H   H12       1.0  0.1179111553050944  0.5359848031516775  0.9402452567882806  1.0000
  H   H13       1.0  0.2559374282191058  0.7854341821696663  0.11124516584569476  1.0000
  H   H14       1.0  0.7440627450424344  0.214592543533378  0.8887766808740594  1.0000
  H   H15       1.0  0.31489717756618757  0.6798985930103141  0.7094098476319175  1.0000
  H   H16       1.0  0.6849783788448535  0.3200671726488764  0.2906033547115001  1.0000
  H   H17       1.0  0.9370567361423597  0.5534280187480788  0.22017920239874658  1.0000
  H   H18       1.0  0.06301098002451519  0.44656762561722024  0.779783815859993  1.0000
  H   H19       1.0  0.564438864180822  0.6497443280875571  0.7741868453479483  1.0000
  H   H20       1.0  0.43541244364272563  0.3501813526530739  0.2258023424761006  1.0000
  H   H21       1.0  0.008875697081606264  0.8099361207776068  0.2929223584737811  1.0000
  H   H22       1.0  0.9911780379370543  0.19005398676851118  0.7070622610274739  1.0000
  H   H23       1.0  0.6534377989924494  0.7108017793119925  0.9325344126812709  1.0000
  H   H24       1.0  0.346499408611976  0.28918047400000546  0.06745555406245532  1.0000
  H   H25       1.0  0.31297873611264754  0.2379546060613932  0.3332169245091805  1.0000
  H   H26       1.0  0.6870481293706803  0.7620158161985982  0.6667949698944611  1.0000
  H   H27       1.0  0.3345763739088953  0.07620814329352038  0.2885258735286769  1.0000
  H   H28       1.0  0.6654180421459657  0.9237568214665757  0.7114777552486089  1.0000
  H   H29       1.0  0.7825722277948302  0.027213239566762592  0.2618541730299029  1.0000
  H   H30       1.0  0.21742100270749617  0.9727539029238197  0.7381466515748443  1.0000
  H   H31       1.0  0.8824359173718861  0.9646775801108515  0.3345693471567586  1.0000
  H   H32       1.0  0.11756010811089372  0.035292828934352385  0.6654296866825931  1.0000
  H   H33       1.0  0.9686261891530278  0.35939978773926373  0.5002630520471669  1.0000
  H   H34       1.0  0.0313739140859751  0.6405759834173705  0.49975356483313493  1.0000
  H   H35       1.0  0.3820952209103083  0.8938729987384588  0.3710906122441244  1.0000
  H   H36       1.0  0.6179257406453685  0.10611477727344719  0.6289180335478335  1.0000
  H   H37       1.0  0.1461360114405679  0.42982428415674423  0.6486977480310331  1.0000
  H   H38       1.0  0.8538861807890612  0.5701548178429975  0.3513108891866423  1.0000
  H   H39       1.0  0.24332246785866815  0.6876397772550429  0.42910793087484217  1.0000
  H   H40       1.0  0.7566973930829732  0.31233718632263663  0.5708916729813893  1.0000
  H   H41       1.0  0.3511467083574474  0.32524976354867613  0.6721518680672318  1.0000
  H   H42       1.0  0.6488811490354607  0.6747250444241786  0.3278484997082955  1.0000
  H   H43       1.0  0.1445640199737993  0.4316637080627784  0.3342590837026194  1.0000
  H   H44       1.0  0.8554379769105508  0.5683208752963151  0.6657240713390564  1.0000
  H   H45       1.0  0.37599955327668516  0.15554397493449557  0.5464048586177344  1.0000
  H   H46       1.0  0.6240038661794783  0.8444210545064192  0.4535870698684549  1.0000
  H   H47       1.0  0.20470007328655979  0.3893090639627345  0.18919732888902976  1.0000
  H   H48       1.0  0.7952641311573743  0.6106928170682336  0.8107800574215674  1.0000
  C   C1        1.0  0.9936818483475561  0.8675914977428576  0.17409153182396145  1.0000
  C   C2        1.0  0.006336499779443684  0.13241801231635006  0.8259049240813923  1.0000
  C   C3        1.0  0.4515312752361638  0.7705356087485667  0.9586794021267765  1.0000
  C   C4        1.0  0.5484578315714472  0.22950524075145745  0.041330441889307686  1.0000
  C   C5        1.0  0.96043847780399  0.8161429298138997  0.0823817432871934  1.0000
  C   C6        1.0  0.0395580920024798  0.1838795571130163  0.9176129208038832  1.0000
  C   C7        1.0  0.30690467567058727  0.785444201957773  0.9225723690393082  1.0000
  C   C8        1.0  0.693104189574136  0.21462590176786017  0.0774553044957003  1.0000
  C   C9        1.0  0.9196684958680805  0.6694496159319242  0.04283545805280652  1.0000
  C   C10       1.0  0.08035350559883629  0.33057839991584353  0.9571456334053253  1.0000
  C   C11       1.0  0.26016687016193174  0.7504648139832425  0.8312266537598917  1.0000
  C   C12       1.0  0.739793784466727  0.24958676966307533  0.16879658331259859  1.0000
  C   C13       1.0  0.9118616917161049  0.5764691302509135  0.09190415572859216  1.0000
  C   C14       1.0  0.08819493315119327  0.4235579181537972  0.9080653813365984  1.0000
  C   C15       1.0  0.35295460356952196  0.7043585486118502  0.779417584569906  1.0000
  C   C16       1.0  0.6469750268891657  0.2956615465237603  0.22059844941749418  1.0000
  C   C17       1.0  0.942231670397476  0.6264742740252132  0.18206627300811823  1.0000
  C   C18       1.0  0.057828632323747756  0.37353107600156216  0.8179069503074388  1.0000
  C   C19       1.0  0.4935449109439105  0.6878688137838438  0.815288526611063  1.0000
  C   C20       1.0  0.5063717940663041  0.312124197888636  0.18471286107331514  1.0000
  C   C21       1.0  0.9826936391012424  0.7709704339588724  0.22250382022270537  1.0000
  C   C22       1.0  0.017345719492261904  0.2290337431460188  0.7774808375534407  1.0000
  C   C23       1.0  0.5422100849812992  0.721003629898412  0.9045430260216136  1.0000
  C   C24       1.0  0.45774573975656097  0.2790014008566785  0.09545637893075559  1.0000
  C   C25       1.0  0.24996279865850107  0.11858837433712205  0.3152787532142228  1.0000
  C   C26       1.0  0.7500355934975573  0.8813798398770699  0.6847280510915823  1.0000
  C   C27       1.0  0.5269393106882846  0.6670482247050273  0.107240496109732  1.0000
  C   C28       1.0  0.473072805182845  0.33295802212851555  0.892755097070328  1.0000
  C   C29       1.0  0.9034924126439635  0.0490155149362295  0.30225320641233827  1.0000
  C   C30       1.0  0.09650587073858223  0.9509592243432082  0.6977490634056593  1.0000
  C   C31       1.0  0.3885873651287142  0.8667265398776819  0.13546312732846388  1.0000
  C   C32       1.0  0.6114203135664057  0.13328180406320203  0.8645484376227017  1.0000
  C   C33       1.0  0.18899042049517334  0.16281301895104866  0.4548906896541425  1.0000
  C   C34       1.0  0.8109989391202178  0.8371486678814859  0.5451164304222118  1.0000
  C   C35       1.0  0.33331607088727816  0.6159853481678323  0.19971445080567918  1.0000
  C   C36       1.0  0.6666926236214722  0.3840208947987661  0.8002803256923414  1.0000
  C   C37       1.0  0.07093322091723311  0.21910327395568166  0.4419175081262168  1.0000
  C   C38       1.0  0.9290560927041867  0.7808627509271985  0.5580896503060231  1.0000
  C   C39       1.0  0.37912890384629355  0.7590852935957527  0.2505001485817147  1.0000
  C   C40       1.0  0.6208964223006959  0.24091768713892492  0.7495055365232872  1.0000
  C   C41       1.0  0.05960327710942441  0.3164900952064471  0.512383333981454  1.0000
  C   C42       1.0  0.9403979215083214  0.6834835389964339  0.4876256784889891  1.0000
  C   C43       1.0  0.3474230492106969  0.7826448525236528  0.3332007724542194  1.0000
  C   C44       1.0  0.6525973213483384  0.2173418529228499  0.6668040029953133  1.0000
  C   C45       1.0  0.158601311104384  0.3548468159943852  0.5948427434500586  1.0000
  C   C46       1.0  0.8414128784970956  0.645132285777478  0.405161743187847  1.0000
  C   C47       1.0  0.2665912672606083  0.6664634735847982  0.3644550119941812  1.0000
  C   C48       1.0  0.7334193913324256  0.33351999115404135  0.6355413490829492  1.0000
  C   C49       1.0  0.271237617145026  0.2951827794209763  0.6081886852299689  1.0000
  C   C50       1.0  0.7287878664561231  0.7048028611054844  0.3918137851037216  1.0000
  C   C51       1.0  0.2125016025101161  0.5243958266128388  0.3121273904558919  1.0000
  C   C52       1.0  0.7874844332977559  0.4755930535641111  0.6878579103645137  1.0000
  C   C53       1.0  0.28531845300796027  0.1998821523718135  0.5382009381093981  1.0000
  C   C54       1.0  0.7146844514574299  0.8000860893855232  0.4618012405899634  1.0000
  C   C55       1.0  0.24598134425162502  0.4999629582906805  0.23014178414437939  1.0000
  C   C56       1.0  0.7539942947915321  0.5000389220378452  0.7698417939671387  1.0000
  O   O1        1.0  0.07279331354979489  0.15708585807826833  0.1798095662787986  1.0000
  O   O2        1.0  0.9272336033563634  0.8429420030166597  0.8202134320588784  1.0000
  O   O3        1.0  0.7099530838397141  0.9429008514619495  0.10568421525355373  1.0000
  O   O4        1.0  0.2900350027915195  0.05713130785570539  0.8943285452610255  1.0000
  O   O5        1.0  0.9674559882753472  0.9016991659444283  0.03243310911167182  1.0000
  O   O6        1.0  0.0325302802445293  0.098336277958694  0.96757085312246  1.0000
  O   O7        1.0  0.22073464519210254  0.8275791781351386  0.9738963845796249  1.0000
  O   O8        1.0  0.7793119940868892  0.17252893970444205  0.026137427725373582  1.0000
  O   O9        1.0  0.21673382354936171  0.07013922872610577  0.38960808624270277  1.0000
  O   O10       1.0  0.7832651436903147  0.9298300632493761  0.6104007515968631  1.0000
  O   O11       1.0  0.36273916120099864  0.5799023894238855  0.11797290871497519  1.0000
  O   O12       1.0  0.6372745401940065  0.42011578838191344  0.8820233513521815  1.0000
  O   O13       1.0  0.9661014186355601  0.19050559833969768  0.3638908540521157  1.0000
  O   O14       1.0  0.03388161848113205  0.8094658178305136  0.6361210287925658  1.0000
  O   O15       1.0  0.4548083882668907  0.8810694059931946  0.2241862039906906  1.0000
  O   O16       1.0  0.54521291927513  0.11894329626305478  0.775827441505399  1.0000
