data_image0
_chemical_formula_structural       Sm4H16C24N8O28
_chemical_formula_sum              "Sm4 H16 C24 N8 O28"
_cell_length_a       6.76391908099205
_cell_length_b       11.371735630041776
_cell_length_c       13.276075499158601
_cell_angle_alpha    106.18969484853704
_cell_angle_beta     89.99620401738153
_cell_angle_gamma    107.2879410881277

_space_group_name_H-M_alt    "P 1"
_space_group_IT_number       1

loop_
  _space_group_symop_operation_xyz
  'x, y, z'

loop_
  _atom_site_type_symbol
  _atom_site_label
  _atom_site_symmetry_multiplicity
  _atom_site_fract_x
  _atom_site_fract_y
  _atom_site_fract_z
  _atom_site_occupancy
  Sm  Sm1       1.0  0.776815088505515  0.701335227014404  0.8818664078869674  1.0000
  Sm  Sm2       1.0  0.075850507699613  0.2987275072658448  0.6180931595914814  1.0000
  Sm  Sm3       1.0  0.2231814330658111  0.2986671210635308  0.11813802800290316  1.0000
  Sm  Sm4       1.0  0.9241515561352786  0.7012652227259935  0.381904443907146  1.0000
  H   H1        1.0  0.36816595680869557  0.8735504106950952  0.8092826206037953  1.0000
  H   H2        1.0  0.4949865128568831  0.12630006070458677  0.6907959505446541  1.0000
  H   H3        1.0  0.6318345271176115  0.1264509903589044  0.1907155615934144  1.0000
  H   H4        1.0  0.5050164151744738  0.873703272217675  0.3092004364598323  1.0000
  H   H5        1.0  0.25266705497608644  0.8368072373227163  0.6157026919919133  1.0000
  H   H6        1.0  0.4163102721673226  0.1630388181503122  0.8844008317453387  1.0000
  H   H7        1.0  0.7473383830786561  0.1631922434488615  0.38429276863589473  1.0000
  H   H8        1.0  0.5837014925851846  0.8369674049936862  0.11559549688328725  1.0000
  H   H9        1.0  0.4772406292887865  0.43447815357627917  0.8237245402246529  1.0000
  H   H10       1.0  0.04254955197198736  0.5655631875886442  0.6762990131425396  1.0000
  H   H11       1.0  0.5227578971278036  0.5655222887398139  0.17627190498519238  1.0000
  H   H12       1.0  0.9574490424927689  0.43443147478402716  0.3236967953906954  1.0000
  H   H13       1.0  0.6056145443848351  0.43561732663067687  0.728775848808972  1.0000
  H   H14       1.0  0.16966927033503512  0.564319964163623  0.7712370177325097  1.0000
  H   H15       1.0  0.39438745246680906  0.5643811853423486  0.2712216386199344  1.0000
  H   H16       1.0  0.8303317336782357  0.43567951903013824  0.22875769031947601  1.0000
  C   C1        1.0  0.4391305540536692  0.8275033990055434  0.7425585237281352  1.0000
  C   C2        1.0  0.6120088058459957  0.1723760891029542  0.7575048857111852  1.0000
  C   C3        1.0  0.5608714071765136  0.17249799988255887  0.2574404111585693  1.0000
  C   C4        1.0  0.387995118218491  0.8276262787118396  0.24249202243125  1.0000
  C   C5        1.0  0.6300307500278564  0.7290555478690521  0.642698184509612  1.0000
  C   C6        1.0  0.9012407269267018  0.27092887174495667  0.8573172295133915  1.0000
  C   C7        1.0  0.36998007822035106  0.2709458441369179  0.35730300827506767  1.0000
  C   C8        1.0  0.09876371190016194  0.7290715680208137  0.1426799682154467  1.0000
  C   C9        1.0  0.48691699033728514  0.7447661716447272  0.5757701066452369  1.0000
  C   C10       1.0  0.742505709313612  0.2551884691209381  0.9242766012271844  1.0000
  C   C11       1.0  0.513095321604304  0.2552352304218886  0.4242273223509797  1.0000
  C   C12       1.0  0.2574967342522357  0.7448138947464856  0.07572181246474229  1.0000
  C   C13       1.0  0.7906895984573482  0.6630430878057965  0.6216578057786251  1.0000
  C   C14       1.0  0.12787645769807202  0.33690883463532373  0.8783236683857751  1.0000
  C   C15       1.0  0.2093153024717367  0.33695827822189267  0.3783531729356396  1.0000
  C   C16       1.0  0.8721275365444117  0.6630877573115654  0.12167109758740219  1.0000
  C   C17       1.0  0.42798777580577513  0.694725440873583  0.46072215998922417  1.0000
  C   C18       1.0  0.733655387366497  0.30537043863831304  0.039320217460989695  1.0000
  C   C19       1.0  0.5720196144340833  0.3052749884471098  0.5392788013575823  1.0000
  C   C20       1.0  0.2663426242877236  0.6946319317268106  0.9606759381624526  1.0000
  C   C21       1.0  0.07171478089277632  0.0033192131872468  0.9542705780709537  1.0000
  C   C22       1.0  0.0681761915321673  0.996607516904902  0.5458074243026301  1.0000
  C   C23       1.0  0.9282619847585424  0.9966850218126594  0.04574937664420984  1.0000
  C   C24       1.0  0.9318359997011144  0.0034025194160989002  0.4542041327692203  1.0000
  N   N1        1.0  0.5961432234640256  0.7799364268021164  0.746172193134164  1.0000
  N   N2        1.0  0.8165229125552075  0.21999565907212565  0.7538402558842705  1.0000
  N   N3        1.0  0.4038567781266097  0.22006400927256925  0.2538265102578308  1.0000
  N   N4        1.0  0.1834780871983952  0.780003815970602  0.24615746315301826  1.0000
  N   N5        1.0  0.3698450235642242  0.8078256348208797  0.6418685058022717  1.0000
  N   N6        1.0  0.5624015077861985  0.19210075008537328  0.8582090266826723  1.0000
  N   N7        1.0  0.6301549822860864  0.19217480940483259  0.3581271866044204  1.0000
  N   N8        1.0  0.4375994260490685  0.8079045089763067  0.1417878235385713  1.0000
  O   O1        1.0  0.24693847095250732  0.6877191423702698  0.42946696636219167  1.0000
  O   O2        1.0  0.5597028107536844  0.3125057182583149  0.0706179479151956  1.0000
  O   O3        1.0  0.7530665150634308  0.31227647631811817  0.5705313317342373  1.0000
  O   O4        1.0  0.4402922462927775  0.6874966564386114  0.9293767023292573  1.0000
  O   O5        1.0  0.5558802673677407  0.6593323963717523  0.39811597631140216  1.0000
  O   O6        1.0  0.8969937450911445  0.340820235868911  0.10188219646584427  1.0000
  O   O7        1.0  0.44412227880282273  0.3406612985994144  0.6018811059924473  1.0000
  O   O8        1.0  0.10301155580234682  0.659190802751759  0.8981152902615007  1.0000
  O   O9        1.0  0.8462057638300706  0.6259375387822175  0.5308233164092826  1.0000
  O   O10       1.0  0.2205932118245428  0.3737675199019392  0.9690999513965862  1.0000
  O   O11       1.0  0.1537909023569242  0.37405326571092706  0.4691738241567619  1.0000
  O   O12       1.0  0.7794122900186906  0.6262261727751762  0.03089788353992155  1.0000
  O   O13       1.0  0.8689589174134441  0.6462715362899161  0.7027639100774792  1.0000
  O   O14       1.0  0.2227805757726742  0.35385227801802427  0.797224968712669  1.0000
  O   O15       1.0  0.13104207595065284  0.3537279265262682  0.29723832543776746  1.0000
  O   O16       1.0  0.7772228983828527  0.6461462317891035  0.20277327140573218  1.0000
  O   O17       1.0  0.6205335159132517  0.47541816892130123  0.8059344509689836  1.0000
  O   O18       1.0  0.1448956952928739  0.5245884151187425  0.694070395262244  1.0000
  O   O19       1.0  0.37946548964425375  0.5245832322608449  0.19406373128506252  1.0000
  O   O20       1.0  0.8551019010089148  0.4754072082858728  0.30592639762570434  1.0000
  O   O21       1.0  0.20119646339758657  0.1131875369506972  0.9620813042212788  1.0000
  O   O22       1.0  0.0868839679254875  0.8865503516948435  0.5382198441688429  1.0000
  O   O23       1.0  0.7987926115397742  0.886817662003388  0.037938128844437785  1.0000
  O   O24       1.0  0.9131157134630145  0.11343465425876788  0.4617834343238626  1.0000
  O   O25       1.0  0.049845830736870746  0.9010386788131228  0.8809448449150706  1.0000
  O   O26       1.0  0.14915329513596023  0.09894504991534352  0.6189642937716824  1.0000
  O   O27       1.0  0.9501239291909372  0.09897520292962982  0.1190714037995946  1.0000
  O   O28       1.0  0.8508404488699881  0.9010428658812513  0.38103215219656034  1.0000
