data_image0
_chemical_formula_structural       Zn8H22C46O26F2
_chemical_formula_sum              "Zn8 H22 C46 O26 F2"
_cell_length_a       18.459152849018604
_cell_length_b       18.398529194741524
_cell_length_c       18.476222605436643
_cell_angle_alpha    119.86138196942125
_cell_angle_beta     119.84577246754993
_cell_angle_gamma    90.00024658763945

_space_group_name_H-M_alt    "P 1"
_space_group_IT_number       1

loop_
  _space_group_symop_operation_xyz
  'x, y, z'

loop_
  _atom_site_type_symbol
  _atom_site_label
  _atom_site_symmetry_multiplicity
  _atom_site_fract_x
  _atom_site_fract_y
  _atom_site_fract_z
  _atom_site_occupancy
  Zn  Zn1       1.0  0.7080869063626662  0.7960985336999257  0.4175574377932917  1.0000
  Zn  Zn2       1.0  0.117964376752937  0.2049009331069911  0.4104433694410332  1.0000
  Zn  Zn3       1.0  0.882037982568633  0.794456107245786  0.5895574299462966  1.0000
  Zn  Zn4       1.0  0.29226969403573827  0.20529907175217227  0.4098799745470671  1.0000
  Zn  Zn5       1.0  0.7103248446651591  0.6216910668838904  0.41853848477526157  1.0000
  Zn  Zn6       1.0  0.28967310122877166  0.2031528751654718  0.5814572437724265  1.0000
  Zn  Zn7       1.0  0.2919149426134168  0.37854518019350536  0.5824476798879417  1.0000
  Zn  Zn8       1.0  0.7077293694812994  0.7954204594692271  0.5901169354068898  1.0000
  H   H1        1.0  0.46662647938525476  0.5597292760653828  0.9058661416851734  1.0000
  H   H2        1.0  0.45325105265983023  0.3355494505609755  0.3833258289293084  1.0000
  H   H3        1.0  0.5467481392458424  0.9522255198548208  0.6166765462153948  1.0000
  H   H4        1.0  0.9319484200177826  0.3357881573309668  0.3841385652825976  1.0000
  H   H5        1.0  0.16313250296464327  0.0472134355394616  0.6136355415604768  1.0000
  H   H6        1.0  0.5499827161980235  0.43308929039887534  0.3847559217647074  1.0000
  H   H7        1.0  0.45001700155567176  0.048333994861870636  0.6152451732111643  1.0000
  H   H8        1.0  0.8368669252679554  0.4335744756118275  0.3863621633900821  1.0000
  H   H9        1.0  0.533368843578188  0.6538694550867207  0.09413513487812958  1.0000
  H   H10       1.0  0.9301364341083059  0.04773526318236788  0.3831886236841201  1.0000
  H   H11       1.0  0.5473649890881731  0.6643477611998492  0.615812715778013  1.0000
  H   H12       1.0  0.45264004482295656  0.0485373314618656  0.38419463524219566  1.0000
  H   H13       1.0  0.06986202527040317  0.6645487730716936  0.6168117527677239  1.0000
  H   H14       1.0  0.8350284727583103  0.9518191791617382  0.38507833808815656  1.0000
  H   H15       1.0  0.45030273730677106  0.5667810687933182  0.6139826996205215  1.0000
  H   H16       1.0  0.5497016727253268  0.952799322447092  0.38602163898980296  1.0000
  H   H17       1.0  0.16497051028712664  0.5667444969503348  0.6149224549557886  1.0000
  H   H18       1.0  0.06827593813471824  0.9520046376412735  0.903884717265214  1.0000
  H   H19       1.0  0.16397461457825097  0.04775562863353847  0.09529534929055927  1.0000
  H   H20       1.0  0.8360277712532422  0.952460285731398  0.9047048410374146  1.0000
  H   H21       1.0  0.9317246128881536  0.04811372780889655  0.09611438819398178  1.0000
  H   H22       1.0  0.0680530960295158  0.9516523200623794  0.6158612746126408  1.0000
  C   C1        1.0  0.6113487820634302  0.612221561051065  0.500855991036495  1.0000
  C   C2        1.0  0.526266085368796  0.5923065551651873  0.5651806580727906  1.0000
  C   C3        1.0  0.473735750638113  0.027125878436272934  0.43482239772164644  1.0000
  C   C4        1.0  0.040493926790532035  0.5925226293804258  0.5663756444917213  1.0000
  C   C5        1.0  0.9595049126127151  0.026145124001374195  0.4336244375379935  1.0000
  C   C6        1.0  0.9069020669350671  0.9731633793348279  0.43471057642471295  1.0000
  C   C7        1.0  0.4725951175859606  0.5383367426437289  0.5642217874821895  1.0000
  C   C8        1.0  0.5274072833669546  0.974114433293323  0.43578068056381614  1.0000
  C   C9        1.0  0.10869163338989546  0.10851010911111558  0.4961326634901297  1.0000
  C   C10       1.0  0.09309812843557098  0.5384560712915061  0.5652903871112755  1.0000
  C   C11       1.0  0.9461961148046992  0.9461681159046194  0.5003360050487727  1.0000
  C   C12       1.0  0.446171153497893  0.44567193434152574  0.49841895181617685  1.0000
  C   C13       1.0  0.5538307641886391  0.9472540740165414  0.5015832805414819  1.0000
  C   C14       1.0  0.053805250871249696  0.44583386123445484  0.499666209335473  1.0000
  C   C15       1.0  0.8913056969361649  0.6123735651781176  0.5038645304480768  1.0000
  C   C16       1.0  0.039125898355294425  0.9734350341938693  0.9467689579773477  1.0000
  C   C17       1.0  0.09212189962816808  0.0264444067401399  0.0527406224743459  1.0000
  C   C18       1.0  0.9078802491066897  0.9737030739614666  0.947260316805547  1.0000
  C   C19       1.0  0.9608743811079279  0.026662884883400427  0.05322965983834393  1.0000
  C   C20       1.0  0.3886500685439599  0.11136282000526167  0.4991450309181289  1.0000
  C   C21       1.0  0.053325917209441784  0.053344219311981085  0.1066246507660367  1.0000
  C   C22       1.0  0.9466736793604724  0.9467199944449406  0.8933721987586197  1.0000
  C   C23       1.0  0.8895520750679676  0.8890425326451703  0.5012493323440378  1.0000
  C   C24       1.0  0.3880311095275175  0.3878180128630718  0.49714676025958243  1.0000
  C   C25       1.0  0.6119677128348114  0.8906700857624655  0.5028527838356354  1.0000
  C   C26       1.0  0.11044942928695176  0.3877964134863845  0.4987508399672578  1.0000
  C   C27       1.0  0.8896352498972745  0.889615820138772  0.7793408616886667  1.0000
  C   C28       1.0  0.11036501767480193  0.11026972409668895  0.22065692868199696  1.0000
  C   C29       1.0  0.6229203945575887  0.6162440329162351  0.23021566506334062  1.0000
  C   C30       1.0  0.37707975238564007  0.3860242213499276  0.7697879309506774  1.0000
  C   C31       1.0  0.4732995951201599  0.5286643734481373  0.9450892628456842  1.0000
  C   C32       1.0  0.5266966040079453  0.5835790671983007  0.05491405473644305  1.0000
  C   C33       1.0  0.42644451731747063  0.4412457201704924  0.8830005920446382  1.0000
  C   C34       1.0  0.5735551565363153  0.5582514069265513  0.11699993263706432  1.0000
  C   C35       1.0  0.03864411588802598  0.972961461947257  0.5651519368188787  1.0000
  C   C36       1.0  0.47423933408552443  0.4075872256634625  0.43380863551532667  1.0000
  C   C37       1.0  0.5257617748130343  0.9737796077743043  0.5661935618723534  1.0000
  C   C38       1.0  0.9613566570733031  0.407809052803721  0.4348480043191929  1.0000
  C   C39       1.0  0.09126015594317484  0.025785342698164015  0.5639249554557536  1.0000
  C   C40       1.0  0.5277941586746874  0.4615516439045847  0.43462227248743796  1.0000
  C   C41       1.0  0.47220483779145167  0.026929011339170437  0.5653780424337286  1.0000
  C   C42       1.0  0.9087406748640702  0.46185730378888223  0.43607222899237297  1.0000
  C   C43       1.0  0.051925650707943284  0.05244063903223396  0.49795194454229363  1.0000
  C   C44       1.0  0.5539937753058267  0.5542105581509701  0.5002184511618707  1.0000
  C   C45       1.0  0.4460079042462013  0.05399158920656084  0.499784830438685  1.0000
  C   C46       1.0  0.9480734588071371  0.5544876390391381  0.5020467534257237  1.0000
  O   O1        1.0  0.7518853668287093  0.7521435405380573  0.5038725613531058  1.0000
  O   O2        1.0  0.19213044708569527  0.12699888039115587  0.5538298958819539  1.0000
  O   O3        1.0  0.8078628351417263  0.5731599342922138  0.4461579152099447  1.0000
  O   O4        1.0  0.3676018668980489  0.1350571549112586  0.5619663472135271  1.0000
  O   O5        1.0  0.8059105964571175  0.8661071971196251  0.4392457752485371  1.0000
  O   O6        1.0  0.36417477591690767  0.42717290152890536  0.5570768169763767  1.0000
  O   O7        1.0  0.6358114907868782  0.8700820037999721  0.4429093092588376  1.0000
  O   O8        1.0  0.19408829554861742  0.4268649534504547  0.5607596097750901  1.0000
  O   O9        1.0  0.24811595936354539  0.24827378774251938  0.496127477845981  1.0000
  O   O10       1.0  0.6331887436816217  0.8676321828268667  0.5636547544381898  1.0000
  O   O11       1.0  0.07076669318336569  0.30407978123012913  0.4362673353982344  1.0000
  O   O12       1.0  0.9292343072290095  0.8678063421499759  0.563726319189776  1.0000
  O   O13       1.0  0.36681672383663516  0.30397602370038623  0.4363503240011611  1.0000
  O   O14       1.0  0.9306499681434559  0.6962103097667695  0.5630897446230351  1.0000
  O   O15       1.0  0.3654348846857757  0.13202565705993408  0.43608742944888224  1.0000
  O   O16       1.0  0.6345648606680002  0.6959409077608427  0.5639136095216202  1.0000
  O   O17       1.0  0.06934845536630965  0.1331337828866026  0.4369170904087412  1.0000
  O   O18       1.0  0.8060015313745554  0.8680524691690082  0.7355030692367424  1.0000
  O   O19       1.0  0.0708007222369886  0.1319446586816895  0.26492316918427156  1.0000
  O   O20       1.0  0.929200685075287  0.8670308347018788  0.7350785920273921  1.0000
  O   O21       1.0  0.1940001181514859  0.13254590161415078  0.2644957410377202  1.0000
  O   O22       1.0  0.6499633077799132  0.5770099495707227  0.2743189040335281  1.0000
  O   O23       1.0  0.3500340956835116  0.30268493859686163  0.725680391044321  1.0000
  O   O24       1.0  0.6321563529579776  0.6986260706006461  0.27101140221821396  1.0000
  O   O25       1.0  0.6323950481016997  0.5730900010636333  0.43803159852492274  1.0000
  O   O26       1.0  0.36784436933068326  0.4276069641488506  0.7289909316855799  1.0000
  F   F1        1.0  0.4204566847645736  0.3957215737527165  0.9198472977244024  1.0000
  F   F2        1.0  0.5795405847702356  0.47587790385401973  0.08015117975088516  1.0000
