data_image0
_chemical_formula_structural       Cd2H16C28S4N12
_chemical_formula_sum              "Cd2 H16 C28 S4 N12"
_cell_length_a       5.673082670930332
_cell_length_b       8.853385675366626
_cell_length_c       17.731327076665366
_cell_angle_alpha    90.00155174498057
_cell_angle_beta     89.9993027539933
_cell_angle_gamma    112.14232886311783

_space_group_name_H-M_alt    "P 1"
_space_group_IT_number       1

loop_
  _space_group_symop_operation_xyz
  'x, y, z'

loop_
  _atom_site_type_symbol
  _atom_site_label
  _atom_site_symmetry_multiplicity
  _atom_site_fract_x
  _atom_site_fract_y
  _atom_site_fract_z
  _atom_site_occupancy
  Cd  Cd1       1.0  3.6420994359936637e-06  0.9999984491731193  2.2026381003999986e-06  1.0000
  Cd  Cd2       1.0  0.5000110692957307  0.500004579459585  0.5000011103051777  1.0000
  H   H1        1.0  0.29509457070688666  0.20693030477504945  0.8616509610093959  1.0000
  H   H2        1.0  0.795071622281611  0.7069380306859968  0.6383474960694002  1.0000
  H   H3        1.0  0.7049144773270938  0.7930677309242498  0.1383473117352878  1.0000
  H   H4        1.0  0.20491773538765998  0.29306921838149685  0.3616535966412613  1.0000
  H   H5        1.0  0.3215458609848055  0.43430126981022  0.7749477048956949  1.0000
  H   H6        1.0  0.8214955361776999  0.9343165780275982  0.7250537083383861  1.0000
  H   H7        1.0  0.6784732321096454  0.5656957773904807  0.22505113179746422  1.0000
  H   H8        1.0  0.17847551578690704  0.06569268642495982  0.2749462564723046  1.0000
  H   H9        1.0  0.7474434576042056  0.5137911647590628  0.9130093156342126  1.0000
  H   H10       1.0  0.2474103624883667  0.013794297830074199  0.5869929267538581  1.0000
  H   H11       1.0  0.25256320634358786  0.4861959781952124  0.0869906489624626  1.0000
  H   H12       1.0  0.7525688120135353  0.9862006859970123  0.4130059099988515  1.0000
  H   H13       1.0  0.7466309108252814  0.282308564383996  0.99409870398177  1.0000
  H   H14       1.0  0.24658952459463265  0.7823020136910016  0.5059009435256244  1.0000
  H   H15       1.0  0.25337998339485773  0.7176798741570423  0.0059001326686641  1.0000
  H   H16       1.0  0.7533776205537208  0.2176903020539385  0.4940950733633969  1.0000
  C   C1        1.0  0.45575898199193415  0.9141627138410087  0.9083394552194265  1.0000
  C   C2        1.0  0.9557673311818531  0.414181129873441  0.5916645777086134  1.0000
  C   C3        1.0  0.5442460356649333  0.08583764436104961  0.0916582535746926  1.0000
  C   C4        1.0  0.04427265156706992  0.5858284129539231  0.4083387708186663  1.0000
  C   C5        1.0  0.17927568482215145  0.27928266827105114  0.8714287057746973  1.0000
  C   C6        1.0  0.6792489972291449  0.7792958229810624  0.6285745327706351  1.0000
  C   C7        1.0  0.8207309173504809  0.7207141102588821  0.12857182286036556  1.0000
  C   C8        1.0  0.3207241008063305  0.2207074624618173  0.3714265599433091  1.0000
  C   C9        1.0  0.19395124398365474  0.40624873494808605  0.8232650596560731  1.0000
  C   C10       1.0  0.6938960173244338  0.9062613980347509  0.6767364461348179  1.0000
  C   C11       1.0  0.8060602499011296  0.5937505579796394  0.17673321309256101  1.0000
  C   C12       1.0  0.30607345011387116  0.09375144614899261  0.32326295472924477  1.0000
  C   C13       1.0  0.03728618560388947  0.4930632378760649  0.8380944879923007  1.0000
  C   C14       1.0  0.5372409426643897  0.993070517810864  0.6619065038699646  1.0000
  C   C15       1.0  0.9627199550215406  0.5069359399471266  0.1619060406597157  1.0000
  C   C16       1.0  0.46272607890730194  0.0069410692330436  0.33809628083162835  1.0000
  C   C17       1.0  0.8727692407489653  0.44940937261506514  0.9002792052154192  1.0000
  C   C18       1.0  0.37274165310280677  0.9494152779730101  0.599726170219455  1.0000
  C   C19       1.0  0.12724006894224257  0.5505826456719234  0.0997196314619657  1.0000
  C   C20       1.0  0.6272457202628557  0.05058831457279919  0.4002749224703024  1.0000
  C   C21       1.0  0.8721832195449649  0.32076354094390064  0.9453635184012796  1.0000
  C   C22       1.0  0.37214871555003254  0.8207633138740036  0.554639567616455  1.0000
  C   C23       1.0  0.12782384417222653  0.6792308383075466  0.0546375741904015  1.0000
  C   C24       1.0  0.6278228597343015  0.1792339157244029  0.4453603971124664  1.0000
  C   C25       1.0  0.04493782010221965  0.6241606004158552  0.7902179450816363  1.0000
  C   C26       1.0  0.5449032246431215  0.12416984597959409  0.7097848323631908  1.0000
  C   C27       1.0  0.9550794885785905  0.375836408382213  0.2097803276409635  1.0000
  C   C28       1.0  0.45510153134333803  0.8758365297086002  0.2902151323661286  1.0000
  S   S1        1.0  0.6575570299839909  0.829615157643488  0.8876564773254645  1.0000
  S   S2        1.0  0.15757841522653132  0.32960995401371207  0.612352028585164  1.0000
  S   S3        1.0  0.3424452801279542  0.1703899609491657  0.1123485631621222  1.0000
  S   S4        1.0  0.8424668444236614  0.6703768147511723  0.3876524477266586  1.0000
  N   N1        1.0  0.3101443787982274  0.976785425128554  0.923065493634958  1.0000
  N   N2        1.0  0.8101256377871449  0.4768048934765901  0.576935404070241  1.0000
  N   N3        1.0  0.6898609004895205  0.023208915808851295  0.0769384188276447  1.0000
  N   N4        1.0  0.18988044106838936  0.5232039198927227  0.4230645606730121  1.0000
  N   N5        1.0  0.023055190209468866  0.23773853098994377  0.9315776243125884  1.0000
  N   N6        1.0  0.5230174967258563  0.7377434689255224  0.5684261948427718  1.0000
  N   N7        1.0  0.9769529964815574  0.7622546678530995  0.0684251601898467  1.0000
  N   N8        1.0  0.47695830884927654  0.26225505615629885  0.4315686941248558  1.0000
  N   N9        1.0  0.05213644438109092  0.7325523828372835  0.7516823449461683  1.0000
  N   N10       1.0  0.5521306392461226  0.23257511470974626  0.7483173498529041  1.0000
  N   N11       1.0  0.9478527751733733  0.2674416125354994  0.24831874767575357  1.0000
  N   N12       1.0  0.4478575954782967  0.7674333146037284  0.2516758472376281  1.0000
