data_image0
_chemical_formula_structural       Li2H8C2N8O6
_chemical_formula_sum              "Li2 H8 C2 N8 O6"
_cell_length_a       5.213378717784129
_cell_length_b       6.438610174417007
_cell_length_c       8.213166826117519
_cell_angle_alpha    106.04869582442817
_cell_angle_beta     99.03699543754462
_cell_angle_gamma    111.76834823069773

_space_group_name_H-M_alt    "P 1"
_space_group_IT_number       1

loop_
  _space_group_symop_operation_xyz
  'x, y, z'

loop_
  _atom_site_type_symbol
  _atom_site_label
  _atom_site_symmetry_multiplicity
  _atom_site_fract_x
  _atom_site_fract_y
  _atom_site_fract_z
  _atom_site_occupancy
  Li  Li1       1.0  0.6638263913097122  0.863695300365571  0.9102055676922308  1.0000
  Li  Li2       1.0  0.33617810713180063  0.13630859757432753  0.08979020242096422  1.0000
  H   H1        1.0  0.12381236971601353  0.9712591564079536  0.736951919280685  1.0000
  H   H2        1.0  0.8761865103410857  0.02873753321031811  0.2630417793690897  1.0000
  H   H3        1.0  0.994230213809452  0.15106208895998927  0.7866709077648013  1.0000
  H   H4        1.0  0.005767693364667502  0.8489327763537421  0.2133198730175253  1.0000
  H   H5        1.0  0.3242153097123435  0.6718334718647443  0.07297290768362796  1.0000
  H   H6        1.0  0.6757855249517776  0.32816324186335794  0.9270209777420464  1.0000
  H   H7        1.0  0.109654413146238  0.6866675556098658  0.9268762847247773  1.0000
  H   H8        1.0  0.8903484330635296  0.3133292104796582  0.07312023417235741  1.0000
  C   C1        1.0  0.42899921090865695  0.5751393473640437  0.496580908032911  1.0000
  C   C2        1.0  0.5710015099007678  0.42483056608706715  0.5034047705502618  1.0000
  N   N1        1.0  0.40163814722655655  0.7281539092940368  0.633633501800553  1.0000
  N   N2        1.0  0.5983481815469744  0.27182636986690073  0.3663384558815253  1.0000
  N   N3        1.0  0.24432010575745275  0.8231085576075333  0.5636123012260371  1.0000
  N   N4        1.0  0.7556701980098242  0.17686817352540637  0.43635682774439744  1.0000
  N   N5        1.0  0.17341858882029015  0.7377380169550208  0.38923599501102063  1.0000
  N   N6        1.0  0.8265629521052419  0.2622368075598517  0.6107306923361691  1.0000
  N   N7        1.0  0.29029135036140735  0.5825660557596423  0.34484865872830994  1.0000
  N   N8        1.0  0.7096981483134215  0.41747196696721295  0.6551883655461312  1.0000
  O   O1        1.0  0.26432737045628596  0.4658922418090089  0.18072459716832168  1.0000
  O   O2        1.0  0.7356847961150735  0.5341733690574203  0.8193679523515061  1.0000
  O   O3        1.0  0.06099745185557741  0.049772900640576316  0.8346037795320671  1.0000
  O   O4        1.0  0.9389985861194606  0.9502219829407115  0.16539048451771537  1.0000
  O   O5        1.0  0.3130323908422312  0.7728790388716223  0.002655857190347997  1.0000
  O   O6        1.0  0.6869724757542601  0.22711415508008073  0.9973376462192509  1.0000
