data_image0
_chemical_formula_structural       Ag2H32C30S2N4O6F6
_chemical_formula_sum              "Ag2 H32 C30 S2 N4 O6 F6"
_cell_length_a       9.172437135228304
_cell_length_b       9.184791967025136
_cell_length_c       11.102246819797209
_cell_angle_alpha    101.49087030661198
_cell_angle_beta     103.87078626983839
_cell_angle_gamma    106.1617535983515

_space_group_name_H-M_alt    "P 1"
_space_group_IT_number       1

loop_
  _space_group_symop_operation_xyz
  'x, y, z'

loop_
  _atom_site_type_symbol
  _atom_site_label
  _atom_site_symmetry_multiplicity
  _atom_site_fract_x
  _atom_site_fract_y
  _atom_site_fract_z
  _atom_site_occupancy
  Ag  Ag1       1.0  0.3384534928853355  0.6946920419014692  0.43369318449873623  1.0000
  Ag  Ag2       1.0  0.6615442519861856  0.30530842548103737  0.566305978082859  1.0000
  H   H1        1.0  0.17461477405096568  0.9945232392292244  0.7646710639066329  1.0000
  H   H2        1.0  0.8253840879096968  0.005477218636130501  0.235330120816883  1.0000
  H   H3        1.0  0.32616453267519313  0.16964388137736822  0.7768397160778805  1.0000
  H   H4        1.0  0.673833214755888  0.8303565896684265  0.22315854690072712  1.0000
  H   H5        1.0  0.18448137360592656  0.7384672663642536  0.7343959964737296  1.0000
  H   H6        1.0  0.815517488354743  0.26153319150110116  0.2656051882497864  1.0000
  H   H7        1.0  0.09610058477616701  0.7727483243789525  0.8577170778674985  1.0000
  H   H8        1.0  0.9038989850124108  0.22725094496646397  0.14228495012626752  1.0000
  H   H9        1.0  0.1982308069661727  0.6345182589117969  0.8500943167430395  1.0000
  H   H10       1.0  0.8017702994110606  0.36548219457238673  0.1499073138524025  1.0000
  H   H11       1.0  0.5604911056728952  0.2742083154791219  0.8235903774427912  1.0000
  H   H12       1.0  0.4395091847414251  0.7257897836627908  0.1764079958063293  1.0000
  H   H13       1.0  0.5970346838199418  0.38926613044488095  0.982857955021885  1.0000
  H   H14       1.0  0.4029657198485239  0.6107355188858037  0.017141033097352862  1.0000
  H   H15       1.0  0.7456371225477484  0.32031105492616524  0.9422404518779645  1.0000
  H   H16       1.0  0.2543635771278119  0.6796882232185268  0.05775910024282637  1.0000
  H   H17       1.0  0.39118486228601773  0.25589154335555264  0.1421432218703629  1.0000
  H   H18       1.0  0.6088151270020672  0.7441089196457896  0.8578563865831584  1.0000
  H   H19       1.0  0.30787443622131144  0.32851774336263173  0.016867320843260834  1.0000
  H   H20       1.0  0.6921266727154959  0.6714827137848406  0.9831334101492076  1.0000
  H   H21       1.0  0.12533150738054394  0.28341602801177157  0.8398061068152816  1.0000
  H   H22       1.0  0.8746696041158303  0.716584432798982  0.1601937245742065  1.0000
  H   H23       1.0  0.04215530327114443  0.36527260769172903  0.952163082157469  1.0000
  H   H24       1.0  0.9578427401670382  0.6347254921680732  0.04783574482269881  1.0000
  H   H25       1.0  0.9160951219424119  0.23543388152884864  0.7997744504180773  1.0000
  H   H26       1.0  0.0839051684719081  0.7645642176130638  0.20022392283104304  1.0000
  H   H27       1.0  0.3150031004390073  0.1717372217584625  0.2907210690807318  1.0000
  H   H28       1.0  0.684996477028264  0.8282620585768189  0.7092782601040996  1.0000
  H   H29       1.0  0.19785031353740135  0.9960943001275385  0.30872493061313144  1.0000
  H   H30       1.0  0.8021492639298771  0.0039049802077429016  0.691274398571693  1.0000
  H   H31       1.0  0.33801227006520657  0.9912207498698252  0.22416521003734147  1.0000
  H   H32       1.0  0.6619884244912199  0.008778520948297303  0.7758361412894103  1.0000
  C   C1        1.0  0.4077677088222415  0.020990165004334902  0.8902547588668527  1.0000
  C   C2        1.0  0.5922315675188088  0.9790114791903624  0.10974580552237975  1.0000
  C   C3        1.0  0.3541662506857294  0.8791244535925319  0.9222830848863597  1.0000
  C   C4        1.0  0.6458330256553138  0.12087719060217243  0.07771747950287279  1.0000
  C   C5        1.0  0.5541829597608157  0.14070083163772307  0.9647122394837243  1.0000
  C   C6        1.0  0.44581814917599166  0.8592996255097491  0.03528849150874444  1.0000
  C   C7        1.0  0.3015482898247511  0.0440913386913593  0.7722344158491198  1.0000
  C   C8        1.0  0.6984524124103756  0.9559079431166211  0.22776423666869047  1.0000
  C   C9        1.0  0.3216888912740573  0.9639863781545305  0.6543643884636553  1.0000
  C   C10       1.0  0.6783077237104747  0.036014080428707004  0.3456372499909079  1.0000
  C   C11       1.0  0.20075293958311854  0.7500535590826447  0.8372233438642385  1.0000
  C   C12       1.0  0.7992470497049665  0.24994690391869775  0.16277626458928296  1.0000
  C   C13       1.0  0.616526141547439  0.28783526671329446  0.9256947836125989  1.0000
  C   C14       1.0  0.38347414374774763  0.7121628251020484  0.07430538884247545  1.0000
  C   C15       1.0  0.1341074880019022  0.1348814714840856  0.04791603425989171  1.0000
  C   C16       1.0  0.8658954586497956  0.8651178059427171  0.9520830641298519  1.0000
  C   C17       1.0  0.012313905660761309  0.12018921517849894  0.9364386534647624  1.0000
  C   C18       1.0  0.9876890409909295  0.8798100622483035  0.06356044492498113  1.0000
  C   C19       1.0  0.1223908412067871  0.019751641308055005  0.11527077596892352  1.0000
  C   C20       1.0  0.8776116936240969  0.9802464534526867  0.884728043152123  1.0000
  C   C21       1.0  0.28421543473686467  0.2811716314175358  0.0964373957743661  1.0000
  C   C22       1.0  0.7157849612529007  0.7188300069232981  0.9035642911538063  1.0000
  C   C23       1.0  0.2697256078781081  0.40511716773634293  0.19103324244429845  1.0000
  C   C24       1.0  0.730271318470919  0.5948809416406179  0.8089635623939416  1.0000
  C   C25       1.0  0.024339661714776587  0.2564828145498553  0.8783952006504665  1.0000
  C   C26       1.0  0.9756595013721209  0.7435152794560765  0.12160474886864854  1.0000
  C   C27       1.0  0.24937132826703126  0.046188336941618516  0.2403407332292034  1.0000
  C   C28       1.0  0.7506255955224364  0.953809768772047  0.7596569712120245  1.0000
  C   C29       1.0  0.8919536819822156  0.6825870696386149  0.44284148652792515  1.0000
  C   C30       1.0  0.10804588268722173  0.317412192380239  0.5571623406717947  1.0000
  S   S1        1.0  0.6720260317711536  0.5954237017390513  0.35821832195598813  1.0000
  S   S2        1.0  0.3279742586431595  0.4045743974028612  0.6417800512931252  1.0000
  N   N1        1.0  0.3407109410715138  0.8928265311813495  0.5639704326595381  1.0000
  N   N2        1.0  0.6592882245749506  0.10717156648787105  0.4360286172565965  1.0000
  N   N3        1.0  0.2547292138914515  0.5018816110913991  0.26737069492772053  1.0000
  N   N4        1.0  0.7452682247347013  0.49812121282396776  0.7326315020642369  1.0000
  O   O1        1.0  0.6168628096705575  0.7153143466311677  0.42206391771080126  1.0000
  O   O2        1.0  0.38313505613380255  0.28468968192996874  0.5779331609319698  1.0000
  O   O3        1.0  0.6226194828079841  0.4418686097908307  0.38303008243560305  1.0000
  O   O4        1.0  0.37737878713848977  0.558136590446509  0.6169699742847996  1.0000
  O   O5        1.0  0.6588390768489347  0.5861177152266922  0.22270987303576817  1.0000
  O   O6        1.0  0.3411646934443838  0.41388392753223274  0.7772897838913623  1.0000
  F   F1        1.0  0.9695077843096414  0.5885594787155953  0.3977888111969962  1.0000
  F   F2        1.0  0.03049082810663615  0.41143384580264825  0.6022192402131027  1.0000
  F   F3        1.0  0.9529992374209398  0.826662951431331  0.4244242810439048  1.0000
  F   F4        1.0  0.04700737442227169  0.17333395190100734  0.5755751505523109  1.0000
  F   F5        1.0  0.9249634149102448  0.7035446647078204  0.5723272057726236  1.0000
  F   F6        1.0  0.07503260294096492  0.29646052892083946  0.42767510388479485  1.0000
