data_image0
_chemical_formula_structural       Zn4H46C73N20
_chemical_formula_sum              "Zn4 H46 C73 N20"
_cell_length_a       20.249998763461758
_cell_length_b       19.752021380312513
_cell_length_c       21.537248990640833
_cell_angle_alpha    108.95493246657384
_cell_angle_beta     105.01669877131121
_cell_angle_gamma    111.70612670877863

_space_group_name_H-M_alt    "P 1"
_space_group_IT_number       1

loop_
  _space_group_symop_operation_xyz
  'x, y, z'

loop_
  _atom_site_type_symbol
  _atom_site_label
  _atom_site_symmetry_multiplicity
  _atom_site_fract_x
  _atom_site_fract_y
  _atom_site_fract_z
  _atom_site_occupancy
  Zn  Zn1       1.0  0.5997558298312455  0.5938299001590721  0.5040465644168179  1.0000
  Zn  Zn2       1.0  0.3638990982232072  0.3690640462961097  0.46782314605459874  1.0000
  Zn  Zn3       1.0  0.5070313944378527  0.5750278168096727  0.6135187492257758  1.0000
  Zn  Zn4       1.0  0.4835760406202567  0.38970413968633005  0.3797675847816607  1.0000
  H   H1        1.0  0.7516676870642625  0.7849195548339621  0.61214613288859  1.0000
  H   H2        1.0  0.5261250349240213  0.7629998766470151  0.6537230307025155  1.0000
  H   H3        1.0  0.3344009530389797  0.3060860415866669  0.2106611987136446  1.0000
  H   H4        1.0  0.2222952419085829  0.3548057861256453  0.3526364919013574  1.0000
  H   H5        1.0  0.5354653975771413  0.6904839475047168  0.44486250671008787  1.0000
  H   H6        1.0  0.4678624165763522  0.40798714509475775  0.24128175895381787  1.0000
  H   H7        1.0  0.37060467834356087  0.618787463874291  0.6163533914424095  1.0000
  H   H8        1.0  0.01757242657643585  0.5705630998715704  0.7022653810095181  1.0000
  H   H9        1.0  0.04546545341741388  0.4364921104927149  0.6547631092790384  1.0000
  H   H10       1.0  0.1005491709786241  0.6403429774375553  0.6314218805756583  1.0000
  H   H11       1.0  0.4308858920147287  0.29218668790520036  0.5656223247128339  1.0000
  H   H12       1.0  0.9576241986030855  0.5535228645113364  0.5034927336330953  1.0000
  H   H13       1.0  0.9858010144273095  0.4190565679653416  0.45554284574449616  1.0000
  H   H14       1.0  0.9024698010722361  0.3492728808118811  0.5268374146339809  1.0000
  H   H15       1.0  0.7099360907242698  0.16291519612845207  0.6126434567287121  1.0000
  H   H16       1.0  0.653358740147901  0.08932771164536037  0.6943600858458299  1.0000
  H   H17       1.0  0.6348010818283072  0.0046241010588232954  0.4915634007830152  1.0000
  H   H18       1.0  0.49739104150508245  0.01723683914855909  0.4433150856033168  1.0000
  H   H19       1.0  0.4402080821136776  0.9427988007670576  0.5254306749386259  1.0000
  H   H20       1.0  0.6765738444005791  0.5818770300342349  0.8626994372098198  1.0000
  H   H21       1.0  0.6358302062266076  0.568186886348222  0.7322665825598379  1.0000
  H   H22       1.0  0.7131987657433142  0.5788885379815268  0.9807074277795638  1.0000
  H   H23       1.0  0.7094985987594385  0.6453785837953346  0.17086701261555248  1.0000
  H   H24       1.0  0.6755061810194007  0.6544812695346421  0.2752609831311688  1.0000
  H   H25       1.0  0.5066652285697514  0.3223011521351181  0.753344455053096  1.0000
  H   H26       1.0  0.5803878243668947  0.38099880291387217  0.07041054204612604  1.0000
  H   H27       1.0  0.5440788688871265  0.3200568118845694  0.8721352361710972  1.0000
  H   H28       1.0  0.5479628217709447  0.3886807280944993  0.17519340006756315  1.0000
  H   H29       1.0  0.2356496003943391  0.3031419302844824  0.1197835157063096  1.0000
  H   H30       1.0  0.1119060192827632  0.22205132965314078  0.006080403340987963  1.0000
  H   H31       1.0  0.9720338827423589  0.04036526623195159  0.8197001321491301  1.0000
  H   H32       1.0  0.659714655750484  0.37496420217070875  0.40054257498807294  1.0000
  H   H33       1.0  0.8732129098040599  0.8984942780267315  0.7195822695205507  1.0000
  H   H34       1.0  0.8284260895466105  0.01899166128994519  0.9358766186250594  1.0000
  H   H35       1.0  0.9767039859532787  0.2000963332253036  0.12972213502483496  1.0000
  H   H36       1.0  0.7282877508141538  0.8777654219523823  0.8356601568937165  1.0000
  H   H37       1.0  0.42099764494033565  0.3611109656409681  0.6888501274412706  1.0000
  H   H38       1.0  0.7112223318263631  0.5619834213406064  0.6086340032934318  1.0000
  H   H39       1.0  0.5493795206996522  0.27663063459507947  0.4251486732245412  1.0000
  H   H40       1.0  0.6788440437478298  0.7236528417571647  0.7678180344358339  1.0000
  H   H41       1.0  0.6768000759637542  0.6450307259270998  0.39232767802440804  1.0000
  H   H42       1.0  0.17572131936183408  0.31150454064437827  0.5207574839539504  1.0000
  H   H43       1.0  0.13261952788789697  0.3317575218835244  0.45127795542251903  1.0000
  H   H44       1.0  0.19489253696018946  0.28816339012541187  0.4426669649824009  1.0000
  H   H45       1.0  0.5163498958171076  0.10207535064038352  0.6469945944680051  1.0000
  H   H46       1.0  0.09983372090178479  0.278101207382889  0.24410771476782142  1.0000
  C   C1        1.0  0.7258365001429182  0.7564384324930842  0.6416130041724913  1.0000
  C   C2        1.0  0.504230008052012  0.2662673452550237  0.5084624894576281  1.0000
  C   C3        1.0  0.5479993577155041  0.4598897453753563  0.736106118592531  1.0000
  C   C4        1.0  0.7164706765893171  0.46811358179129303  0.5191433372709042  1.0000
  C   C5        1.0  0.6220456198779017  0.5866402972534885  0.36450420751233986  1.0000
  C   C6        1.0  0.2556491580495503  0.4172456349730992  0.5187149924871691  1.0000
  C   C7        1.0  0.5255823863416821  0.7316378043885121  0.6016566769755229  1.0000
  C   C8        1.0  0.3181397055445529  0.32155452968347475  0.25540875464420054  1.0000
  C   C9        1.0  0.2599110728345053  0.34514326732811895  0.32697516504492097  1.0000
  C   C10       1.0  0.5301041626861931  0.6947376268931507  0.49467588278093205  1.0000
  C   C11       1.0  0.5161849348939072  0.46522549925092693  0.2880178709413031  1.0000
  C   C12       1.0  0.4526258312255607  0.29295888990279906  0.5247822703010955  1.0000
  C   C13       1.0  0.3409681987179595  0.5522471554916207  0.5838804709239085  1.0000
  C   C14       1.0  0.5837950470149593  0.5252761581568776  0.29137077824186264  1.0000
  C   C15       1.0  0.26191870165843056  0.49330712733400606  0.5600408170721992  1.0000
  C   C16       1.0  0.537142095718849  0.7613249167665541  0.5517146468153485  1.0000
  C   C17       1.0  0.24827450034679538  0.32179734593699283  0.2543737953778731  1.0000
  C   C18       1.0  0.02531702376298736  0.4622674878149907  0.6209289947466703  1.0000
  C   C19       1.0  0.010664392168656936  0.5368488916713688  0.647325933573953  1.0000
  C   C20       1.0  0.7902488170966037  0.47358149990482445  0.547640790179024  1.0000
  C   C21       1.0  0.20033425445798506  0.5030566539292209  0.5723736847200984  1.0000
  C   C22       1.0  0.9471196505223032  0.4138956826008878  0.5497458846335874  1.0000
  C   C23       1.0  0.5764446186768312  0.5192042714537592  0.7134268584512642  1.0000
  C   C24       1.0  0.9305974939651449  0.48826313091673507  0.575841408524113  1.0000
  C   C25       1.0  0.9918544949070665  0.45248045325310915  0.5101830922165718  1.0000
  C   C26       1.0  0.07227083364534792  0.5009784404523431  0.5813309968007234  1.0000
  C   C27       1.0  0.9780740947478892  0.5273925596984622  0.5367895041646662  1.0000
  C   C28       1.0  0.05607311057538296  0.5755513350105871  0.6080066954780179  1.0000
  C   C29       1.0  0.85560402429671  0.4802156872869928  0.5660682233594372  1.0000
  C   C30       1.0  0.14287810509608076  0.5043639875062453  0.579646212902077  1.0000
  C   C31       1.0  0.6183256855467434  0.07336206606134969  0.6384606554580758  1.0000
  C   C32       1.0  0.6497943877599255  0.11372750865240985  0.5930242168422951  1.0000
  C   C33       1.0  0.5362107303434556  0.22465340657081603  0.5368493094944642  1.0000
  C   C34       1.0  0.6597062857567622  0.42013088467533777  0.44570978991446  1.0000
  C   C35       1.0  0.553999930035495  0.8402254897308978  0.5595055129057515  1.0000
  C   C36       1.0  0.5420700794865924  0.07936472947795177  0.6120439474899231  1.0000
  C   C37       1.0  0.5728811291276941  0.12075079215961176  0.5660650032802297  1.0000
  C   C38       1.0  0.499806506392474  0.9925992339026306  0.5445219598838804  1.0000
  C   C39       1.0  0.5759216818250295  0.984365960949951  0.5708399962114826  1.0000
  C   C40       1.0  0.5315836367488415  0.0317855137086696  0.49893117524816705  1.0000
  C   C41       1.0  0.6080094393221104  0.026496257667289982  0.5257351303336082  1.0000
  C   C42       1.0  0.5610119256419708  0.18368506794653428  0.5562586497052779  1.0000
  C   C43       1.0  0.5700391276487906  0.9096688148756655  0.5683108098638812  1.0000
  C   C44       1.0  0.6079835950608654  0.522203021331471  0.23264118194451566  1.0000
  C   C45       1.0  0.4661791756295202  0.41247246388660835  0.6887003914581983  1.0000
  C   C46       1.0  0.5829225756171185  0.4454040053251801  0.17429719546462502  1.0000
  C   C47       1.0  0.6015553859807312  0.44037685755139205  0.11603467685542049  1.0000
  C   C48       1.0  0.6468824861493445  0.5130108135217882  0.11414363047426695  1.0000
  C   C49       1.0  0.675016443327749  0.5896904994805539  0.1733228094002328  1.0000
  C   C50       1.0  0.6557692417839149  0.5942361349567732  0.23144434986262044  1.0000
  C   C51       1.0  0.6685852345496385  0.5229538675303612  0.9304720069429494  1.0000
  C   C52       1.0  0.6478405164345205  0.5240799822631246  0.8644446457168941  1.0000
  C   C53       1.0  0.6274176822354107  0.4501100622370443  0.9341199886806779  1.0000
  C   C54       1.0  0.5849807820224626  0.4535366822910162  0.8000870507022598  1.0000
  C   C55       1.0  0.551895523885463  0.37872743272857423  0.8030924172275393  1.0000
  C   C56       1.0  0.6862673185234057  0.5152416122913975  0.5526866861114428  1.0000
  C   C57       1.0  0.5729270984645822  0.37684906195463697  0.8689706555443524  1.0000
  C   C58       1.0  0.793992913412005  0.8769428289205405  0.7707545305094284  1.0000
  C   C59       1.0  0.7819286649855002  0.9132155276623947  0.8321030626329177  1.0000
  C   C60       1.0  0.8369005616351755  0.9921889223676459  0.887763428260378  1.0000
  C   C61       1.0  0.9067045752497973  0.0382234090681024  0.8839447098806023  1.0000
  C   C62       1.0  0.9174525681850056  0.004273195411492684  0.8215227229550952  1.0000
  C   C63       1.0  0.8621259494897088  0.9251860773724231  0.7660058971044847  1.0000
  C   C64       1.0  0.1103111926468401  0.23572793632737188  0.058733908301164185  1.0000
  C   C65       1.0  0.17906031544068668  0.2800187176496109  0.12253314437860043  1.0000
  C   C66       1.0  0.03658962537752328  0.20285133976541658  0.06075944015027087  1.0000
  C   C67       1.0  0.5130369538813184  0.28568536405286693  0.45250200705481103  1.0000
  C   C68       1.0  0.17724853395193915  0.29254583615932717  0.1904370520886474  1.0000
  C   C69       1.0  0.10338910672367517  0.2675935308040564  0.19242368170521473  1.0000
  C   C70       1.0  0.03412394418882056  0.22387978824936275  0.1286892313026371  1.0000
  C   C71       1.0  0.6873199699486037  0.7250949473310512  0.7203202453723352  1.0000
  C   C72       1.0  0.7389962748672331  0.7919248315059801  0.7148325215545484  1.0000
  C   C73       1.0  0.1862698055104772  0.33280322629109094  0.4811486861908919  1.0000
  N   N1        1.0  0.6710790227047382  0.6760744415830471  0.6075936128473246  1.0000
  N   N2        1.0  0.3266413229922307  0.432464183018581  0.5199462590030209  1.0000
  N   N3        1.0  0.5134782894788472  0.6545392486791854  0.5757817584371737  1.0000
  N   N4        1.0  0.36608128529792333  0.3410463960927999  0.3223331891910846  1.0000
  N   N5        1.0  0.33010269653454566  0.3561306663144563  0.36699204744601843  1.0000
  N   N6        1.0  0.5164086207025632  0.6307085010953343  0.5098184038034148  1.0000
  N   N7        1.0  0.5147645255961848  0.48833165029596864  0.3538473834282741  1.0000
  N   N8        1.0  0.37947015212476026  0.5149642556057471  0.5597839711852259  1.0000
  N   N9        1.0  0.659904923359143  0.5160045281363421  0.053682113089088414  1.0000
  N   N10       1.0  0.6279240232662743  0.4460227769285367  0.9981752175663987  1.0000
  N   N11       1.0  0.9723763384487467  0.1120608373321446  0.9415280289198195  1.0000
  N   N12       1.0  0.4324479492009701  0.3247377987343327  0.4810407777627503  1.0000
  N   N13       1.0  0.9647567754867479  0.14067792375341528  0.9997614314567117  1.0000
  N   N14       1.0  0.5150154988349201  0.5063813612010434  0.6575416193330527  1.0000
  N   N15       1.0  0.6020097963327514  0.4389130547381014  0.43664693199473703  1.0000
  N   N16       1.0  0.4463845461736468  0.4405209759425189  0.642427111262542  1.0000
  N   N17       1.0  0.6179096792461962  0.4977624519238192  0.5026931235457681  1.0000
  N   N18       1.0  0.4698196802968653  0.3203300086283036  0.4362723874037259  1.0000
  N   N19       1.0  0.6468983290702397  0.6556637271713227  0.6560563890090736  1.0000
  N   N20       1.0  0.5807976339350844  0.5634196971865321  0.40093754665186765  1.0000
