data_image0
_chemical_formula_structural       Cu4H24C16O24
_chemical_formula_sum              "Cu4 H24 C16 O24"
_cell_length_a       6.921704048008134
_cell_length_b       8.488610608838206
_cell_length_c       11.608324711098202
_cell_angle_alpha    104.86707862416338
_cell_angle_beta     90.00002983873593
_cell_angle_gamma    90.00014308498365

_space_group_name_H-M_alt    "P 1"
_space_group_IT_number       1

loop_
  _space_group_symop_operation_xyz
  'x, y, z'

loop_
  _atom_site_type_symbol
  _atom_site_label
  _atom_site_symmetry_multiplicity
  _atom_site_fract_x
  _atom_site_fract_y
  _atom_site_fract_z
  _atom_site_occupancy
  Cu  Cu1       1.0  0.5619954192409723  0.5800555238098041  0.14608940937050358  1.0000
  Cu  Cu2       1.0  0.06198540825096901  0.4199468206893611  0.3539120988635815  1.0000
  Cu  Cu3       1.0  0.4380128499685512  0.4199462741367552  0.853912935023942  1.0000
  Cu  Cu4       1.0  0.9380084136502164  0.5800562650366455  0.6460861899235155  1.0000
  H   H1        1.0  0.47630774442171026  0.07255080711201599  0.39104942366233086  1.0000
  H   H2        1.0  0.9763100719128276  0.927451407332583  0.1089488054948973  1.0000
  H   H3        1.0  0.5236918564097977  0.927455824503809  0.6089564508503713  1.0000
  H   H4        1.0  0.023686639448882798  0.07255041820910439  0.8910518212832415  1.0000
  H   H5        1.0  0.497516500639307  0.07901674533425758  0.8939813571469343  1.0000
  H   H6        1.0  0.997513029481574  0.9209846682769934  0.6060210212636434  1.0000
  H   H7        1.0  0.5024859896438727  0.9209825184244732  0.106026522029488  1.0000
  H   H8        1.0  0.0024779029485912994  0.07901233738218137  0.3939752165839536  1.0000
  H   H9        1.0  0.21974714727679873  0.45407702857804816  0.1494812290277139  1.0000
  H   H10       1.0  0.7197484703373362  0.5459244768618842  0.3505210498236123  1.0000
  H   H11       1.0  0.7802553430028426  0.5459211820643686  0.8505161060573415  1.0000
  H   H12       1.0  0.28025546468101226  0.45407855365764477  0.6494806741899097  1.0000
  H   H13       1.0  0.21332271548378398  0.6419768475196361  0.23520429532319292  1.0000
  H   H14       1.0  0.7133147967475324  0.3580173706560074  0.2647939704300271  1.0000
  H   H15       1.0  0.7866812195178028  0.35801526925656885  0.764791847629823  1.0000
  H   H16       1.0  0.28667758041041946  0.6419771560434453  0.7352043669813781  1.0000
  H   H17       1.0  0.9052867451496952  0.6712752343683234  0.18529654418356498  1.0000
  H   H18       1.0  0.4052807909073408  0.32872561174301745  0.3146996612963662  1.0000
  H   H19       1.0  0.09471863460290561  0.32873026130975075  0.8147039390729348  1.0000
  H   H20       1.0  0.594718809909196  0.6712713249030954  0.6853008705823669  1.0000
  H   H21       1.0  0.8634444122220374  0.6651580479745219  0.04681971945612418  1.0000
  H   H22       1.0  0.36344575248308797  0.33484146119361197  0.4531770665580837  1.0000
  H   H23       1.0  0.1365508544082914  0.334843818979685  0.9531783309051178  1.0000
  H   H24       1.0  0.6365538483371936  0.6651578991949306  0.5468248009791452  1.0000
  C   C1        1.0  0.5631414767740494  0.8187428232072093  0.36785691543297355  1.0000
  C   C2        1.0  0.06312780452590522  0.18125831917734553  0.13214349665885547  1.0000
  C   C3        1.0  0.43685956878422155  0.18126142608231524  0.6321450470057215  1.0000
  C   C4        1.0  0.9368674620965081  0.818738741706319  0.8678493059691945  1.0000
  C   C5        1.0  0.507596155769555  0.9824951407801163  0.44055801108103043  1.0000
  C   C6        1.0  0.007583429314451  0.017507081823772794  0.0594425865398733  1.0000
  C   C7        1.0  0.4924077792529785  0.017510272067518397  0.5594476250071949  1.0000
  C   C8        1.0  0.9924103925757989  0.9824887050653995  0.940553412882558  1.0000
  C   C9        1.0  0.5410491895921011  0.2271201710257528  0.07889751760475147  1.0000
  C   C10       1.0  0.041053222123835616  0.7728821212414373  0.42110397068812944  1.0000
  C   C11       1.0  0.4589518559602793  0.7728790789264077  0.9211112203763818  1.0000
  C   C12       1.0  0.9589507128849418  0.22711487062917252  0.5788931259710637  1.0000
  C   C13       1.0  0.5085513629471522  0.07181300015547268  0.9862514052478915  1.0000
  C   C14       1.0  0.0085600196960769  0.9281871385489635  0.5137539427299344  1.0000
  C   C15       1.0  0.49144968261573047  0.9281935900478329  0.013757045681707247  1.0000
  C   C16       1.0  0.991451138967406  0.07180985333065588  0.48624315393269774  1.0000
  O   O1        1.0  0.615410249495362  0.7091718391926346  0.41774324562603476  1.0000
  O   O2        1.0  0.1154040968551087  0.2908244618557274  0.08226227417856076  1.0000
  O   O3        1.0  0.38459224078903287  0.2908286985587977  0.5822614367553242  1.0000
  O   O4        1.0  0.8845882803043496  0.7091713112268675  0.9177345840485813  1.0000
  O   O5        1.0  0.552217817216416  0.7998635316139368  0.25466789980009696  1.0000
  O   O6        1.0  0.052207132247716  0.20012775050829387  0.2453357473101931  1.0000
  O   O7        1.0  0.4477803388750132  0.20013701993686073  0.7453359237737941  1.0000
  O   O8        1.0  0.9477910238404589  0.7998717203166376  0.7546592497831313  1.0000
  O   O9        1.0  0.5545113695600818  0.355613551848478  0.038744361561548084  1.0000
  O   O10       1.0  0.0545121585038189  0.6443887463859637  0.4612588571611411  1.0000
  O   O11       1.0  0.4454983443808159  0.6443882046855617  0.9612605592497943  1.0000
  O   O12       1.0  0.9454859975806115  0.35560830069653787  0.5387348042736946  1.0000
  O   O13       1.0  0.5546845821056081  0.22774959540048909  0.18805716161100614  1.0000
  O   O14       1.0  0.054685681375055105  0.7722466093984006  0.31194486514406344  1.0000
  O   O15       1.0  0.4453164634529542  0.7722546262794905  0.8119465184384964  1.0000
  O   O16       1.0  0.9453110299712436  0.22774556258789144  0.6880478425838987  1.0000
  O   O17       1.0  0.299632244590093  0.5484000460738226  0.19648121878041278  1.0000
  O   O18       1.0  0.7996405019341212  0.4515981403716863  0.3035118328181809  1.0000
  O   O19       1.0  0.7003615772995816  0.4515957960344465  0.8035113454204037  1.0000
  O   O20       1.0  0.200367767272148  0.548402576849007  0.696481685095698  1.0000
  O   O21       1.0  0.8386267573528343  0.6100110885822188  0.11200590229044138  1.0000
  O   O22       1.0  0.33862245223409093  0.3899895774458882  0.3879910985128348  1.0000
  O   O23       1.0  0.16137428820874078  0.3899956258640528  0.8879948193905419  1.0000
  O   O24       1.0  0.6613771485879882  0.6100110017162519  0.6120110074509454  1.0000
