data_image0
_chemical_formula_structural       Li4P4H40C36O16
_chemical_formula_sum              "Li4 P4 H40 C36 O16"
_cell_length_a       5.747210421035417
_cell_length_b       11.84691894150593
_cell_length_c       15.12291271168335
_cell_angle_alpha    102.80774470390563
_cell_angle_beta     89.98236230094166
_cell_angle_gamma    104.05781894118567

_space_group_name_H-M_alt    "P 1"
_space_group_IT_number       1

loop_
  _space_group_symop_operation_xyz
  'x, y, z'

loop_
  _atom_site_type_symbol
  _atom_site_label
  _atom_site_symmetry_multiplicity
  _atom_site_fract_x
  _atom_site_fract_y
  _atom_site_fract_z
  _atom_site_occupancy
  Li  Li1       1.0  0.08564674531307055  0.4295258917950876  0.036961474728329335  1.0000
  Li  Li2       1.0  0.6564514980247226  0.5704439481146012  0.46302404802116115  1.0000
  Li  Li3       1.0  0.9143531452240338  0.5704768776556007  0.963037438339974  1.0000
  Li  Li4       1.0  0.3435499530846755  0.42954455450531975  0.5369777266927613  1.0000
  P   P1        1.0  0.540161983508959  0.3345888862833704  0.9358921411473275  1.0000
  P   P2        1.0  0.20605224416255657  0.6655008486223721  0.5640936606552387  1.0000
  P   P3        1.0  0.4598345166863921  0.6654210163955766  0.0641053412451384  1.0000
  P   P4        1.0  0.7939452834247049  0.3344867682466771  0.4359092860787399  1.0000
  H   H1        1.0  0.8484692482394676  0.1747208389797024  0.8620130259464817  1.0000
  H   H2        1.0  0.6740646802145847  0.8257837058203988  0.6381112030192925  1.0000
  H   H3        1.0  0.15152452047543366  0.8252801259498312  0.13798293538057038  1.0000
  H   H4        1.0  0.3259386811372877  0.1742190431646833  0.3618844000509398  1.0000
  H   H5        1.0  0.7792426637342446  0.9537458590114272  0.8292346484287237  1.0000
  H   H6        1.0  0.8253820486394402  0.0467423472940141  0.6709003520299177  1.0000
  H   H7        1.0  0.2207415104918127  0.04625331771953972  0.17076100919472031  1.0000
  H   H8        1.0  0.17460560566075875  0.9532568296864454  0.3290953053975798  1.0000
  H   H9        1.0  0.3900952946169981  0.827843733450564  0.8598365264921527  1.0000
  H   H10       1.0  0.5618785088186796  0.1724106633662643  0.6401248523063217  1.0000
  H   H11       1.0  0.6098889860083075  0.17216261404534086  0.1401636579033223  1.0000
  H   H12       1.0  0.4381069097227551  0.8275840446771099  0.3598700446374465  1.0000
  H   H13       1.0  0.06623978924688619  0.9235627970262925  0.9247370090229269  1.0000
  H   H14       1.0  0.14250872723857094  0.0762943729107803  0.5750893130684247  1.0000
  H   H15       1.0  0.9337536479748818  0.07644446559586981  0.0752666367815422  1.0000
  H   H16       1.0  0.8574818591403783  0.923696752195873  0.4249036511756117  1.0000
  H   H17       1.0  0.1356799559837469  0.1443734573214073  0.9575059189755919  1.0000
  H   H18       1.0  0.9915237639182523  0.8554960087877178  0.5424143066645684  1.0000
  H   H19       1.0  0.8643156647230867  0.8556346909268769  0.0424965549067906  1.0000
  H   H20       1.0  0.00846597117151762  0.14449689133996202  0.45757697598965313  1.0000
  H   H21       1.0  0.4908243040980763  0.47167769489937683  0.8501150150073329  1.0000
  H   H22       1.0  0.019084154158633772  0.5282732704906437  0.6498190526098142  1.0000
  H   H23       1.0  0.5091537126989536  0.5283161312866583  0.14988171611287274  1.0000
  H   H24       1.0  0.9809353984341341  0.4717340271468871  0.3501898874084048  1.0000
  H   H25       1.0  0.6086325230513907  0.35729899940589865  0.7850117978455203  1.0000
  H   H26       1.0  0.2514194745545098  0.6425854052176164  0.7149497718094224  1.0000
  H   H27       1.0  0.39134251680069104  0.6426993119150667  0.2149883418940419  1.0000
  H   H28       1.0  0.7486034836162219  0.35741825964218793  0.2850492920819363  1.0000
  H   H29       1.0  0.1848038064700859  0.21501149724652188  0.7756804908777752  1.0000
  H   H30       1.0  0.9703643232903332  0.7849962015021817  0.7243215211009542  1.0000
  H   H31       1.0  0.8151755254347391  0.7849814849930894  0.22432403157281305  1.0000
  H   H32       1.0  0.029671323824686617  0.2150119620443434  0.2756829364092397  1.0000
  H   H33       1.0  0.07737156792874346  0.33964532237024514  0.8286011138811489  1.0000
  H   H34       1.0  0.737950481957334  0.6604192041498749  0.6715542017188697  1.0000
  H   H35       1.0  0.9226108866308566  0.6603538998092019  0.1714018254049563  1.0000
  H   H36       1.0  0.26207736297959633  0.3395907546337895  0.3284518843955482  1.0000
  H   H37       1.0  0.9665097529999186  0.3225620813018253  0.5949145845019147  1.0000
  H   H38       1.0  0.6448465769218146  0.6778211994397624  0.9053535233697403  1.0000
  H   H39       1.0  0.033493546397665  0.6774335963508094  0.40509237884649  1.0000
  H   H40       1.0  0.35516594473025986  0.32218247295761426  0.09464686503032742  1.0000
  C   C1        1.0  0.4961277582611387  0.1739432464574477  0.911296624319462  1.0000
  C   C2        1.0  0.32248794155158583  0.8261626816863624  0.5887312775666801  1.0000
  C   C3        1.0  0.503863037212554  0.826062211893053  0.08870406954779506  1.0000
  C   C4        1.0  0.6775153263641512  0.17383292553491714  0.4112644324544945  1.0000
  C   C5        1.0  0.6767590166228955  0.11940016753867867  0.8751325978849209  1.0000
  C   C6        1.0  0.5575552707698179  0.8809099777008171  0.6249227436274439  1.0000
  C   C7        1.0  0.3232294778552429  0.8805972095626302  0.12486076936982471  1.0000
  C   C8        1.0  0.4424542142561306  0.11909457994843822  0.3750764731444677  1.0000
  C   C9        1.0  0.637591651884705  0.9954815409077112  0.8567973111044225  1.0000
  C   C10       1.0  0.6420413737364398  0.004827314113065  0.6432434646913165  1.0000
  C   C11       1.0  0.36238596447864063  0.0045149623728094  0.1431992144435767  1.0000
  C   C12       1.0  0.3579484696044516  0.9951727609225783  0.35675300669537074  1.0000
  C   C13       1.0  0.4178204589146264  0.9245088117133735  0.8738422157606324  1.0000
  C   C14       1.0  0.49319630336869114  0.07570083702854899  0.6261454316348177  1.0000
  C   C15       1.0  0.582165053062937  0.07549303809380352  0.1261525742321936  1.0000
  C   C16       1.0  0.5067974186281461  0.9242965570190832  0.37385058316770176  1.0000
  C   C17       1.0  0.23704869020302527  0.9781554356473309  0.9098523478979886  1.0000
  C   C18       1.0  0.2588042199252882  0.021833706451133104  0.5900666978563862  1.0000
  C   C19       1.0  0.7629390219264777  0.0218473370731544  0.0901472278165869  1.0000
  C   C20       1.0  0.7411916837047484  0.9781645690795953  0.40992748306362603  1.0000
  C   C21       1.0  0.275565492589152  0.1021823724324946  0.928382669402005  1.0000
  C   C22       1.0  0.17359509736841264  0.8977822537918383  0.571580367863028  1.0000
  C   C23       1.0  0.7244256940588657  0.8978203881084215  0.07161492023534075  1.0000
  C   C24       1.0  0.8264046923250629  0.1022133573229667  0.4284160043145206  1.0000
  C   C25       1.0  0.46840918103619333  0.374438802485905  0.8319525101533857  1.0000
  C   C26       1.0  0.09404749293175042  0.6255350263370759  0.6680340880552365  1.0000
  C   C27       1.0  0.5315980904534712  0.6255613359425141  0.1680538896599089  1.0000
  C   C28       1.0  0.9059723985616515  0.3744659901799068  0.3319698153272626  1.0000
  C   C29       1.0  0.2201083053349251  0.3130794908371827  0.7866545366549502  1.0000
  C   C30       1.0  0.9073200253611727  0.686967742084633  0.713421568979193  1.0000
  C   C31       1.0  0.7798911191104595  0.6869188760895  0.21335420719847062  1.0000
  C   C32       1.0  0.0927129744501585  0.31303860476116085  0.2865779507125126  1.0000
  C   C33       1.0  0.1917210147850028  0.3394864574961716  0.6946249938100096  1.0000
  C   C34       1.0  0.8527867444781164  0.660720071860318  0.8054673744040527  1.0000
  C   C35       1.0  0.808305449807328  0.6605207329218032  0.3053667348452366  1.0000
  C   C36       1.0  0.14724011271917453  0.3392809575847124  0.19453851446782272  1.0000
  O   O1        1.0  0.8042233686879  0.3970752464009379  0.9613752440404042  1.0000
  O   O2        1.0  0.40766149007734503  0.6030378566940655  0.5386957068708185  1.0000
  O   O3        1.0  0.19576866554555755  0.602925730832915  0.0386227032658937  1.0000
  O   O4        1.0  0.5923452745793937  0.3969577880638937  0.4613059605982244  1.0000
  O   O5        1.0  0.3581097913190234  0.36245946826739583  0.006731561498853022  1.0000
  O   O6        1.0  0.9962642356118038  0.6374469209366965  0.4931860059014427  1.0000
  O   O7        1.0  0.6418948310150867  0.6375388493172808  0.9932692385355253  1.0000
  O   O8        1.0  0.0037390004008556986  0.3625451485468503  0.5068150532786078  1.0000
  O   O9        1.0  0.9679506862467946  0.3020215231208353  0.6586911902886001  1.0000
  O   O10       1.0  0.6669422512382893  0.6983999398310061  0.8415579987188125  1.0000
  O   O11       1.0  0.03202252198396151  0.6979696504545956  0.3413097184603089  1.0000
  O   O12       1.0  0.3330812156172557  0.30160822284229033  0.1584464594772186  1.0000
  O   O13       1.0  0.36244340462464913  0.38997789978562025  0.655687414104449  1.0000
  O   O14       1.0  0.972768946888614  0.610127899296714  0.8443645869205625  1.0000
  O   O15       1.0  0.6375512112544611  0.6100178145304725  0.3443255073776683  1.0000
  O   O16       1.0  0.027244467215098336  0.3898775565324757  0.15563544371256205  1.0000
