data_image0
_chemical_formula_structural       Mn2H36C42N8O10
_chemical_formula_sum              "Mn2 H36 C42 N8 O10"
_cell_length_a       6.7388866795214115
_cell_length_b       9.786801347367078
_cell_length_c       15.45711678308604
_cell_angle_alpha    73.73000610615253
_cell_angle_beta     84.9139800480334
_cell_angle_gamma    69.46030463469648

_space_group_name_H-M_alt    "P 1"
_space_group_IT_number       1

loop_
  _space_group_symop_operation_xyz
  'x, y, z'

loop_
  _atom_site_type_symbol
  _atom_site_label
  _atom_site_symmetry_multiplicity
  _atom_site_fract_x
  _atom_site_fract_y
  _atom_site_fract_z
  _atom_site_occupancy
  Mn  Mn1       1.0  0.20090196516471073  0.30109287863263745  0.5345078161682297  1.0000
  Mn  Mn2       1.0  0.7991120363315504  0.6988967822815791  0.4654954514299805  1.0000
  H   H1        1.0  0.6282937394740814  0.08649772787462238  0.5333748671670977  1.0000
  H   H2        1.0  0.3717076232667227  0.9134999421671351  0.46662488510897077  1.0000
  H   H3        1.0  0.6402335149529533  0.18892804263727916  0.5949142910508914  1.0000
  H   H4        1.0  0.35976934353872286  0.8110696128563788  0.4050860533197708  1.0000
  H   H5        1.0  0.454356117416765  0.2753653088661779  0.21027433428105277  1.0000
  H   H6        1.0  0.5456416556651362  0.7246369010029028  0.7897254019779045  1.0000
  H   H7        1.0  0.2852159797999363  0.24168688829698937  0.7720049413562793  1.0000
  H   H8        1.0  0.7147893469830536  0.7583118772211958  0.22799381855246295  1.0000
  H   H9        1.0  0.5974211619728746  0.4391876986320539  0.1124354420703925  1.0000
  H   H10       1.0  0.40257818151042796  0.5608111164108465  0.8875641857605037  1.0000
  H   H11       1.0  0.606192046261178  0.6299587858407776  0.9709940070532999  1.0000
  H   H12       1.0  0.39380677377473455  0.3700411613886914  0.029005441166916116  1.0000
  H   H13       1.0  0.13707347752541216  0.9739848129964982  0.07451467961335116  1.0000
  H   H14       1.0  0.8629302786784548  0.0260173421472629  0.925486130503771  1.0000
  H   H15       1.0  0.1326953989569832  0.7835877811268828  0.21745817275149912  1.0000
  H   H16       1.0  0.8673128446179912  0.2164143338396514  0.7825431191291943  1.0000
  H   H17       1.0  0.23811710763116886  0.5926008145747801  0.36891177181329493  1.0000
  H   H18       1.0  0.7618841805183436  0.40740023747859766  0.6310880337253197  1.0000
  H   H19       1.0  0.4035293559858744  0.13538922425510688  0.37035764401872484  1.0000
  H   H20       1.0  0.596459442353826  0.8646130659684202  0.6296411287130825  1.0000
  H   H21       1.0  0.20339219449534338  0.1605424663911634  0.9426659756857493  1.0000
  H   H22       1.0  0.7966135812029691  0.8394585506855989  0.05733236983611084  1.0000
  H   H23       1.0  0.4860680449582516  0.020178043249139  0.7137934993926085  1.0000
  H   H24       1.0  0.5139358605466812  0.9798173513384467  0.2862059096792039  1.0000
  H   H25       1.0  0.18247604987728042  0.7879194236782894  0.5411463529111844  1.0000
  H   H26       1.0  0.8175188061164532  0.21207942807476599  0.45885408767635755  1.0000
  H   H27       1.0  0.008742004272150513  0.9671210598003199  0.7716674845742522  1.0000
  H   H28       1.0  0.9912538241435412  0.03287891305827628  0.22833207397698632  1.0000
  H   H29       1.0  0.09019455276633453  0.5010196580958349  0.795553592658543  1.0000
  H   H30       1.0  0.9098057629019819  0.49898027111846216  0.20444774217649112  1.0000
  H   H31       1.0  0.0005928672939177757  0.590669093002404  0.9259153288610309  1.0000
  H   H32       1.0  0.9994084206778878  0.4093319538503692  0.07408641845790957  1.0000
  H   H33       1.0  0.8219016476420863  0.7803565270543515  0.9011580194585282  1.0000
  H   H34       1.0  0.17810061281091547  0.21964564263750216  0.09884219856400026  1.0000
  H   H35       1.0  0.09054094268081775  0.7391964911817793  0.9302095867324173  1.0000
  H   H36       1.0  0.9094607945025003  0.2608068158972614  0.06978850989909806  1.0000
  C   C1        1.0  0.4954326463039606  0.5562501430241937  0.10437917080931676  1.0000
  C   C2        1.0  0.5045686418455517  0.4437509090291911  0.8956206347292981  1.0000
  C   C3        1.0  0.500487381915697  0.6639265755135142  0.02442256322042627  1.0000
  C   C4        1.0  0.4995139063522841  0.33607448000693546  0.9755759477979713  1.0000
  C   C5        1.0  0.36989576564840854  0.8161227216644276  0.010917808892017444  1.0000
  C   C6        1.0  0.6301055224418661  0.18387832865542453  0.9890826439067061  1.0000
  C   C7        1.0  0.24061191938066906  0.8568946441629988  0.0828572814712772  1.0000
  C   C8        1.0  0.7593933327517844  0.143107501633267  0.9171421789601201  1.0000
  C   C9        1.0  0.23732602286357005  0.7497051017341858  0.16342091435199532  1.0000
  C   C10       1.0  0.7626812483486846  0.2502958938603399  0.8365806123049002  1.0000
  C   C11       1.0  0.36217629274474916  0.5960543457408605  0.17509045761714515  1.0000
  C   C12       1.0  0.6378264910371668  0.4039466882973527  0.8249112345362878  1.0000
  C   C13       1.0  0.3522734985880404  0.4817434539382432  0.25724318405153224  1.0000
  C   C14       1.0  0.6477298086412658  0.5182564479133943  0.7427586877125808  1.0000
  C   C15       1.0  0.29162624808270016  0.493109758067142  0.3436299842038651  1.0000
  C   C16       1.0  0.7083755634549647  0.5068901600661277  0.6563706482055383  1.0000
  C   C17       1.0  0.3782142426765062  0.255440698871702  0.34746037495015275  1.0000
  C   C18       1.0  0.6217810622917952  0.7445604061734696  0.6525390039903983  1.0000
  C   C19       1.0  0.3690454204333663  0.9257971634272124  0.9246521707839439  1.0000
  C   C20       1.0  0.6309569146109197  0.07420162425302826  0.07534799397603113  1.0000
  C   C21       1.0  0.285011301379157  0.0828888027056323  0.9027553042245063  1.0000
  C   C22       1.0  0.7149935018972043  0.9171110932655823  0.09724392333365733  1.0000
  C   C23       1.0  0.4343655526846176  0.009279031376763698  0.7831549751658573  1.0000
  C   C24       1.0  0.5656363335035766  0.9907175064784179  0.21684495672089116  1.0000
  C   C25       1.0  0.13939277188515573  0.6329790197470545  0.6635676578170122  1.0000
  C   C26       1.0  0.8606035799186884  0.36701981919143384  0.3364327276050148  1.0000
  C   C27       1.0  0.14390473850255617  0.7734603027727542  0.611979276416641  1.0000
  C   C28       1.0  0.8560921368079164  0.2265374057126975  0.3880206413559649  1.0000
  C   C29       1.0  0.09966061171714813  0.8933942750614818  0.6508344313492672  1.0000
  C   C30       1.0  0.9003372358968135  0.1066045510624463  0.349165898907252  1.0000
  C   C31       1.0  0.04433950104671428  0.8725797578305076  0.7419226112211279  1.0000
  C   C32       1.0  0.9556578231790878  0.1274202022135285  0.2580768921646027  1.0000
  C   C33       1.0  0.04165697991395229  0.7312974605626721  0.7954368605791304  1.0000
  C   C34       1.0  0.9583418400034914  0.26870248319973195  0.2045638821613026  1.0000
  C   C35       1.0  0.09209139588957536  0.6116499125331102  0.7554453767800741  1.0000
  C   C36       1.0  0.9079064517243792  0.3883489135908107  0.24455495347644537  1.0000
  C   C37       1.0  0.1250094332687794  0.03777652693617029  0.5955084072344621  1.0000
  C   C38       1.0  0.8749869186535406  0.9622223154693897  0.4044906836673547  1.0000
  C   C39       1.0  0.17776976574586453  0.5116094770066796  0.6178603554498852  1.0000
  C   C40       1.0  0.822228081927328  0.48838935085078106  0.3821393275465186  1.0000
  C   C41       1.0  0.9862641359488934  0.7090013709729915  0.8936283358687551  1.0000
  C   C42       1.0  0.01373610524660054  0.2910019437200049  0.10637175770860104  1.0000
  N   N1        1.0  0.3083937457053452  0.35171164550578027  0.3989177763411576  1.0000
  N   N2        1.0  0.6916030550138358  0.6482894449912917  0.6010821946939944  1.0000
  N   N3        1.0  0.40771942848925846  0.3290110769416614  0.26210560690019963  1.0000
  N   N4        1.0  0.592279840402753  0.6709911201128591  0.7378940741932428  1.0000
  N   N5        1.0  0.3279032434946529  0.13262109301576425  0.8134929524486697  1.0000
  N   N6        1.0  0.6721026066764821  0.8673765385823059  0.1865066343308613  1.0000
  N   N7        1.0  0.4621674154390193  0.8817430098996083  0.8480590388470975  1.0000
  N   N8        1.0  0.5378304321749353  0.11825581622431966  0.15194129140942192  1.0000
  O   O1        1.0  0.23844333586815483  0.37227396605025115  0.6615995234545482  1.0000
  O   O2        1.0  0.7615545117457998  0.6277248600736766  0.33840080680197115  1.0000
  O   O3        1.0  0.1441154738007242  0.5493167993383565  0.5322933644561589  1.0000
  O   O4        1.0  0.8558788588048571  0.45068318633479976  0.46770624926059434  1.0000
  O   O5        1.0  0.2349093414384598  0.0393201662974718  0.5238141487004457  1.0000
  O   O6        1.0  0.765088506175495  0.9606786598264562  0.4761861815560737  1.0000
  O   O7        1.0  0.041527065018769314  0.15855304141799556  0.6222388665620076  1.0000
  O   O8        1.0  0.9584627802749492  0.8414469861659271  0.3777596181310658  1.0000
  O   O9        1.0  0.5455814593129844  0.14656631673798157  0.5760198181533698  1.0000
  O   O10       1.0  0.45442139917869895  0.8534313387556764  0.42398052621729243  1.0000
