data_image0
_chemical_formula_structural       Nd4H22C22N2O32
_chemical_formula_sum              "Nd4 H22 C22 N2 O32"
_cell_length_a       9.719732436705682
_cell_length_b       9.784894668527343
_cell_length_c       12.42698452367671
_cell_angle_alpha    70.73749145289713
_cell_angle_beta     81.96530782412735
_cell_angle_gamma    63.73051677430971

_space_group_name_H-M_alt    "P 1"
_space_group_IT_number       1

loop_
  _space_group_symop_operation_xyz
  'x, y, z'

loop_
  _atom_site_type_symbol
  _atom_site_label
  _atom_site_symmetry_multiplicity
  _atom_site_fract_x
  _atom_site_fract_y
  _atom_site_fract_z
  _atom_site_occupancy
  Nd  Nd1       1.0  0.2651506278930995  0.21888891830687376  0.23430814158416524  1.0000
  Nd  Nd2       1.0  0.7348544067648248  0.7811089096752609  0.7656878349001205  1.0000
  Nd  Nd3       1.0  0.7334758298265099  0.2777707605792372  0.2595839911882152  1.0000
  Nd  Nd4       1.0  0.26652814468987873  0.7222273271197962  0.7404176728981966  1.0000
  H   H1        1.0  0.2211944145973348  0.15669448291363614  0.017855512961361297  1.0000
  H   H2        1.0  0.7788150910002113  0.8433105096243949  0.9821403217496895  1.0000
  H   H3        1.0  0.05584899710938629  0.22743647431541092  0.0730349351748529  1.0000
  H   H4        1.0  0.944163043291212  0.7725409522611101  0.9269635720722603  1.0000
  H   H5        1.0  0.5348445936029124  0.8639530325696184  0.28661943589672484  1.0000
  H   H6        1.0  0.4651540789215859  0.1360557894548649  0.7133790118880086  1.0000
  H   H7        1.0  0.5835074881150107  0.9805435858687801  0.3230030789391947  1.0000
  H   H8        1.0  0.4164823451157744  0.01946662548460409  0.6769976316452215  1.0000
  H   H9        1.0  0.6841990677529566  0.04797651610756049  0.1705075599766914  1.0000
  H   H10       1.0  0.3157939855363523  0.9520228526035979  0.8294934235183931  1.0000
  H   H11       1.0  0.6043027436826449  0.20617537901550526  0.07863074103636337  1.0000
  H   H12       1.0  0.39570114907132836  0.7938200555841066  0.9213652429524899  1.0000
  H   H13       1.0  0.9945132807487411  0.017185125238086095  0.1799365273431448  1.0000
  H   H14       1.0  0.005479864955681518  0.9828167221973345  0.8200661588619197  1.0000
  H   H15       1.0  0.06076952232405811  0.9958460203778761  0.2958610135927627  1.0000
  H   H16       1.0  0.9392308496901336  0.004153204316509091  0.7041383396081499  1.0000
  H   H17       1.0  0.26300992605292345  0.647623440789829  0.43512343204309184  1.0000
  H   H18       1.0  0.7369919350542914  0.35236164762631733  0.5648829668842197  1.0000
  H   H19       1.0  0.9802036727379149  0.7903551633394555  0.4548309969085124  1.0000
  H   H20       1.0  0.019795378451448197  0.2096500199903701  0.5451668258752704  1.0000
  H   H21       1.0  0.805538954372693  0.7060512581510212  0.3862813879242992  1.0000
  H   H22       1.0  0.19446141551095755  0.2939480014183999  0.613718760754125  1.0000
  C   C1        1.0  0.40753340064560456  0.4107579377390493  0.32812493182589725  1.0000
  C   C2        1.0  0.59247105347292  0.5892388504894654  0.6718746280594914  1.0000
  C   C3        1.0  0.24080709653514284  0.49683861870471435  0.352019024531721  1.0000
  C   C4        1.0  0.7591909916711472  0.5031558192246237  0.6479803436783342  1.0000
  C   C5        1.0  0.18447612536890293  0.6172640819982931  0.40396773653521484  1.0000
  C   C6        1.0  0.8155230118439575  0.3827436846808964  0.5960341753911038  1.0000
  C   C7        1.0  0.02593485719842896  0.6956858177524481  0.4148916504158748  1.0000
  C   C8        1.0  0.9740706506700078  0.30431081538426247  0.585104608299929  1.0000
  C   C9        1.0  0.9294449332394307  0.6497108731811496  0.3767829054461202  1.0000
  C   C10       1.0  0.07055328524938888  0.3502988298134754  0.6232081008094568  1.0000
  C   C11       1.0  0.9962564935209244  0.5224083091562051  0.3309413942992236  1.0000
  C   C12       1.0  0.0037424818153653267  0.4776075305406876  0.6690526158852705  1.0000
  C   C13       1.0  0.9086198201539729  0.44806867079754653  0.29826088023204994  1.0000
  C   C14       1.0  0.09138048026822075  0.5519411405138471  0.7017330694145371  1.0000
  C   C15       1.0  0.2994820111417695  0.014957051372618895  0.512461128249349  1.0000
  C   C16       1.0  0.7005003372264795  0.9850614467653074  0.4875349018424516  1.0000
  C   C17       1.0  0.22414392735267075  0.9368049865495536  0.4642544720870064  1.0000
  C   C18       1.0  0.7758592829600984  0.0632138972554657  0.535755082364652  1.0000
  C   C19       1.0  0.35272074793994074  0.41815398261875464  0.9777114855789648  1.0000
  C   C20       1.0  0.6472794852695712  0.5818301165104884  0.02229941148648615  1.0000
  C   C21       1.0  0.18523231520947558  0.5290716832983121  0.9998459901138119  1.0000
  C   C22       1.0  0.8147698172337314  0.47090753182413897  0.00016364944517726393  1.0000
  N   N1        1.0  0.14832209532327303  0.4499915630167806  0.3182824555538204  1.0000
  N   N2        1.0  0.8516849539371023  0.5500168901490669  0.6817094698121265  1.0000
  O   O1        1.0  0.440455837558389  0.32493967502891513  0.2604192862586601  1.0000
  O   O2        1.0  0.5595371420083808  0.6750703151742812  0.7395770891596173  1.0000
  O   O3        1.0  0.5087207422554132  0.4249800784991961  0.3705692773632663  1.0000
  O   O4        1.0  0.491286071524094  0.5750108401272983  0.6294340801122685  1.0000
  O   O5        1.0  0.9891999761875567  0.309647000129452  0.283296393418901  1.0000
  O   O6        1.0  0.010796907044934297  0.690355491534241  0.7166943968313433  1.0000
  O   O7        1.0  0.7647000310717686  0.5152161356144731  0.2897820430018783  1.0000
  O   O8        1.0  0.2352980928713961  0.4847911235309112  0.7102080560212299  1.0000
  O   O9        1.0  0.16764947826531082  0.14904664452487992  0.0902709694319341  1.0000
  O   O10       1.0  0.8323568921312087  0.8509449806965961  0.909720969126866  1.0000
  O   O11       1.0  0.527323629942245  0.9723317060891505  0.2637135678987335  1.0000
  O   O12       1.0  0.472677507441567  0.027673515807386185  0.7362856073210365  1.0000
  O   O13       1.0  0.3235417441373017  0.9604783771280906  0.6196853771362285  1.0000
  O   O14       1.0  0.6764481307397076  0.0395579649078286  0.3803079317595106  1.0000
  O   O15       1.0  0.32725054445335633  0.12726278665808619  0.4445929231324469  1.0000
  O   O16       1.0  0.6727497998638368  0.8727368914117122  0.5554167712761569  1.0000
  O   O17       1.0  0.17873797625413346  0.8395755542908035  0.5348071490719163  1.0000
  O   O18       1.0  0.8212767320463145  0.16042974391418602  0.465196839594185  1.0000
  O   O19       1.0  0.21248627027538441  0.9806007094926982  0.3558142303547953  1.0000
  O   O20       1.0  0.7875035059131436  0.019397029394951883  0.6442037041917172  1.0000
  O   O21       1.0  0.41976473562907307  0.4735189234244146  0.8925151243168371  1.0000
  O   O22       1.0  0.5802315334576774  0.5264696723945832  0.10748772304393839  1.0000
  O   O23       1.0  0.4088257839388945  0.27858484110623044  0.049501990727485186  1.0000
  O   O24       1.0  0.5911719218237226  0.7213998911762473  0.9504953395077393  1.0000
  O   O25       1.0  0.1254583217162591  0.6635027012792206  0.9232534305607415  1.0000
  O   O26       1.0  0.8745402337912082  0.33647723233821136  0.076744352382569  1.0000
  O   O27       1.0  0.12108546986505786  0.48084601802737126  0.08973347470615782  1.0000
  O   O28       1.0  0.8789149907854464  0.5191423410497649  0.9102649182289541  1.0000
  O   O29       1.0  0.7007348291425615  0.14239462067234138  0.1249582884205367  1.0000
  O   O30       1.0  0.29926618861141213  0.8575951617837633  0.8750452713661402  1.0000
  O   O31       1.0  0.964370561880074  0.023351209057565797  0.2568394174067308  1.0000
  O   O32       1.0  0.03562827891260409  0.9766494353241127  0.7431645456872714  1.0000
