data_image0
_chemical_formula_structural       Co3H60C78N30
_chemical_formula_sum              "Co3 H60 C78 N30"
_cell_length_a       9.726904523816955
_cell_length_b       16.019440746442246
_cell_length_c       16.013357828802047
_cell_angle_alpha    116.0229443160752
_cell_angle_beta     101.7275938330062
_cell_angle_gamma    101.62507199081583

_space_group_name_H-M_alt    "P 1"
_space_group_IT_number       1

loop_
  _space_group_symop_operation_xyz
  'x, y, z'

loop_
  _atom_site_type_symbol
  _atom_site_label
  _atom_site_symmetry_multiplicity
  _atom_site_fract_x
  _atom_site_fract_y
  _atom_site_fract_z
  _atom_site_occupancy
  Co  Co1       1.0  2.2186078398050256e-06  0.5000058246401905  0.4999984405354212  1.0000
  Co  Co2       1.0  0.4999980522785848  0.9999993604206735  0.5000036379128899  1.0000
  Co  Co3       1.0  0.5000043535445329  0.4999985585492012  0.999996590757505  1.0000
  H   H1        1.0  0.05953316670554198  0.5709204552289933  0.7199277050549427  1.0000
  H   H2        1.0  0.2890841530910109  0.6591853769663911  0.8694640756526442  1.0000
  H   H3        1.0  0.5359245566983046  0.7148853650717867  0.8517922994548572  1.0000
  H   H4        1.0  0.16458186133431235  0.3959011365151495  0.17930227734547086  1.0000
  H   H5        1.0  0.26010157660128636  0.37726480023983555  0.04074583853577706  1.0000
  H   H6        1.0  0.6527433820124672  0.6065602997330901  0.23179400510007045  1.0000
  H   H7        1.0  0.5761261540976933  0.6310642622046245  0.3784850819193154  1.0000
  H   H8        1.0  0.5874808942487346  0.6516573479143088  0.6082705884365112  1.0000
  H   H9        1.0  0.6779313071478371  0.6820706363805584  0.7321754609570094  1.0000
  H   H10       1.0  0.6211701893140004  0.770159695127873  0.7083598564670909  1.0000
  H   H11       1.0  0.4878351040073808  0.14868297087065935  0.4287189976967485  1.0000
  H   H12       1.0  0.6293593726592306  0.21015483385745878  0.3408272063048373  1.0000
  H   H13       1.0  0.8206723176398611  0.1367675506499424  0.28513482316343913  1.0000
  H   H14       1.0  0.7680409162705076  0.7831220192677507  0.6037360487776412  1.0000
  H   H15       1.0  0.8828902637557691  0.6635233354732151  0.6226561914172352  1.0000
  H   H16       1.0  0.04748251015818286  0.6256940491864355  0.3939005380279498  1.0000
  H   H17       1.0  0.9459095174728916  0.7476945640007601  0.3692410003461576  1.0000
  H   H18       1.0  0.9362622458852314  0.9568197358503098  0.34855025942717077  1.0000
  H   H19       1.0  0.9956045824786839  0.0499967508247678  0.3177991367928641  1.0000
  H   H20       1.0  0.8511459367784866  0.9379054632167222  0.22984741705430872  1.0000
  H   H21       1.0  0.33962367776822333  0.2800458994298083  0.8512795027331495  1.0000
  H   H22       1.0  0.41995099058743074  0.1306871593404892  0.7900944624859534  1.0000
  H   H23       1.0  0.6846641917054442  0.14846437476691685  0.863727093324471  1.0000
  H   H24       1.0  0.9847523051853103  0.8207162542098415  0.21647594999318184  1.0000
  H   H25       1.0  0.2189127056988839  0.9592327782968295  0.33638904056078883  1.0000
  H   H26       1.0  0.42160177590653075  0.7684054944390792  0.3743940564769516  1.0000
  H   H27       1.0  0.19825054265296424  0.6217455785544742  0.25212716726865364  1.0000
  H   H28       1.0  0.9795535323732949  0.39198169533823074  0.044180331942371254  1.0000
  H   H29       1.0  0.9464124371815428  0.2682344477170773  0.9506760386683556  1.0000
  H   H30       1.0  0.9134422647951153  0.2918796803319239  0.06254197170295579  1.0000
  H   H31       1.0  0.9404682287750532  0.42910599841249536  0.28008042604043476  1.0000
  H   H32       1.0  0.7109152495291083  0.3408454933155268  0.13054572542627338  1.0000
  H   H33       1.0  0.46407938821050015  0.2851293102078855  0.14820852486028  1.0000
  H   H34       1.0  0.8354270644758373  0.6041002873544201  0.8206896611930008  1.0000
  H   H35       1.0  0.7398998149212302  0.6227322109998994  0.9592488283226717  1.0000
  H   H36       1.0  0.34722752972199095  0.3934425993474377  0.7681868235706022  1.0000
  H   H37       1.0  0.4238667950245088  0.36893642378851144  0.621494490308436  1.0000
  H   H38       1.0  0.4125025215262141  0.34834776198385947  0.39172342723414744  1.0000
  H   H39       1.0  0.3220644076739845  0.3179315234726162  0.26781010530675087  1.0000
  H   H40       1.0  0.3787999060078419  0.22983364281645177  0.2916335594253995  1.0000
  H   H41       1.0  0.5121693712933819  0.8513206714991881  0.5712951940555088  1.0000
  H   H42       1.0  0.37063235998262917  0.7898399757290732  0.6591765005959473  1.0000
  H   H43       1.0  0.179314005307404  0.8632206353301156  0.7148653003349495  1.0000
  H   H44       1.0  0.23197885361705772  0.2168830971416824  0.3962907426814726  1.0000
  H   H45       1.0  0.11715674452106133  0.33648987010520415  0.3773707573694908  1.0000
  H   H46       1.0  0.9525197088962473  0.37431327051375257  0.6061074734630196  1.0000
  H   H47       1.0  0.054076840399055505  0.2523127618310426  0.6307730946431038  1.0000
  H   H48       1.0  0.0637173019153181  0.04316108904055939  0.6514420366432535  1.0000
  H   H49       1.0  0.004386622062369875  0.9499906983150479  0.6822012925229402  1.0000
  H   H50       1.0  0.14883635320406086  0.062084927998810685  0.7701450314765951  1.0000
  H   H51       1.0  0.6603881938384006  0.7199489008608708  0.14871304834889534  1.0000
  H   H52       1.0  0.580049856686422  0.8693047018142648  0.2099028846128802  1.0000
  H   H53       1.0  0.31533746807301105  0.8515230740619372  0.13627780154407532  1.0000
  H   H54       1.0  0.015251916678281005  0.17928885838261263  0.7835344788282798  1.0000
  H   H55       1.0  0.7810875353138301  0.0407708658555066  0.6636271059930225  1.0000
  H   H56       1.0  0.5783964250019479  0.23159593830830255  0.6256127451258353  1.0000
  H   H57       1.0  0.8017533524331454  0.37825437704424303  0.7478703541987886  1.0000
  H   H58       1.0  0.020440826865865368  0.6080182645474324  0.955822211332354  1.0000
  H   H59       1.0  0.05360508140900329  0.7317677163192187  0.04932981657225345  1.0000
  H   H60       1.0  0.08656150725728662  0.708118069326659  0.9374595679995397  1.0000
  C   C1        1.0  0.1695482872471815  0.5957433913109185  0.7155901632905783  1.0000
  C   C2        1.0  0.2974708566290759  0.645726228936006  0.7982547227251333  1.0000
  C   C3        1.0  0.4342532777845704  0.6763353397284815  0.7880855103906514  1.0000
  C   C4        1.0  0.44319586681486817  0.6566121667560054  0.6955471321456841  1.0000
  C   C5        1.0  0.30940446831480983  0.6047234383922129  0.6152699340154014  1.0000
  C   C6        1.0  0.2947458057763798  0.5727520449677286  0.5134034435606267  1.0000
  C   C7        1.0  0.3084456835104562  0.5298060068141198  0.37208810221552113  1.0000
  C   C8        1.0  0.36257398591119033  0.5159599415294949  0.2904612103465568  1.0000
  C   C9        1.0  0.2740599467423693  0.44315412697289946  0.19353369985271474  1.0000
  C   C10       1.0  0.32677381962578517  0.4331673769638015  0.11666171367752297  1.0000
  C   C11       1.0  0.5457012527337995  0.5603313295646898  0.22294463908594514  1.0000
  C   C12       1.0  0.5030328591950238  0.5744567469984219  0.30455626657518314  1.0000
  C   C13       1.0  0.5905246489392014  0.6911300567568263  0.68470533240739  1.0000
  C   C14       1.0  0.5732288996260309  0.11957980842581148  0.4039641582837988  1.0000
  C   C15       1.0  0.6512116768222784  0.15231693386226655  0.35412597726165995  1.0000
  C   C16       1.0  0.7575374975016513  0.11157999626558986  0.32358911538496227  1.0000
  C   C17       1.0  0.7864375980269144  0.038818359399399996  0.3433101441368081  1.0000
  C   C18       1.0  0.7045881423926518  0.010474160323390398  0.3951886163943713  1.0000
  C   C19       1.0  0.7221624537737482  0.9406888473542164  0.42722313882325114  1.0000
  C   C20       1.0  0.7788494604251355  0.8423488708831924  0.4701532722111423  1.0000
  C   C21       1.0  0.84684754060779  0.7745759440385315  0.48405434861155794  1.0000
  C   C22       1.0  0.8307849356408213  0.750317490679933  0.5566890058703252  1.0000
  C   C23       1.0  0.8937836791264218  0.683563958920395  0.5668020996575082  1.0000
  C   C24       1.0  0.9862646007609116  0.6629229366709097  0.4399763018755679  1.0000
  C   C25       1.0  0.9292597660766119  0.7303246473828509  0.4257787594488037  1.0000
  C   C26       1.0  0.8994407624631718  0.993498443947544  0.30888159923469505  1.0000
  C   C27       1.0  0.45411665731690226  0.2844316450370029  0.8805102449490435  1.0000
  C   C28       1.0  0.4995393274654845  0.2018535369279206  0.8478951510774311  1.0000
  C   C29       1.0  0.6465862653675528  0.2120900361132882  0.8887911767395027  1.0000
  C   C30       1.0  0.7480414207889936  0.3046151499194067  0.9615822855002423  1.0000
  C   C31       1.0  0.6943926116938854  0.38482493962035846  0.989778404229732  1.0000
  C   C32       1.0  0.7815984210188064  0.4866793800672369  0.0594995685546563  1.0000
  C   C33       1.0  0.9364925221003945  0.6279883003568969  0.15752379383415163  1.0000
  C   C34       1.0  0.07222294713261608  0.7096614381836163  0.22522141662653175  1.0000
  C   C35       1.0  0.08026716145107575  0.8064964756992906  0.2494228662602039  1.0000
  C   C36       1.0  0.20987948066728285  0.8833622303856642  0.3163309859295254  1.0000
  C   C37       1.0  0.3231552655233542  0.7772120034686549  0.3370597747628352  1.0000
  C   C38       1.0  0.19888744234049946  0.6956320362702967  0.26954063505895925  1.0000
  C   C39       1.0  0.9063218303928765  0.3155620387033267  0.007142033163795218  1.0000
  C   C40       1.0  0.830444029517352  0.40426907850884664  0.284410078903484  1.0000
  C   C41       1.0  0.7025225547526972  0.35428844914178365  0.20174724757124812  1.0000
  C   C42       1.0  0.5657501116770334  0.3236697661244889  0.21190919603301953  1.0000
  C   C43       1.0  0.5568086643784512  0.34338263444322337  0.3044438518088839  1.0000
  C   C44       1.0  0.6905960546812507  0.39526768538690493  0.38472392736503747  1.0000
  C   C45       1.0  0.7052394933942593  0.4272361403525549  0.4865946746230422  1.0000
  C   C46       1.0  0.6915643257183958  0.47019320597173203  0.627896766293425  1.0000
  C   C47       1.0  0.6374308186959183  0.4840414805300099  0.7095245774443911  1.0000
  C   C48       1.0  0.7259295880454034  0.5568399383914269  0.806450040624725  1.0000
  C   C49       1.0  0.6732210005730366  0.5668288962578173  0.8833249176195537  1.0000
  C   C50       1.0  0.4542931513286775  0.439674510765755  0.7770423637652331  1.0000
  C   C51       1.0  0.4969785106158612  0.42555350499112166  0.6954304681940473  1.0000
  C   C52       1.0  0.40946886175012054  0.3088721067510959  0.31528744629491007  1.0000
  C   C53       1.0  0.42676391023537974  0.8804172099714405  0.5960425237268581  1.0000
  C   C54       1.0  0.34878281901951175  0.8476749299662173  0.645874302039509  1.0000
  C   C55       1.0  0.24244689347707293  0.8884126044204448  0.6764083135705263  1.0000
  C   C56       1.0  0.21354106147909846  0.9611712999226112  0.656689637333514  1.0000
  C   C57       1.0  0.29539788362320263  0.9895154972610243  0.6048108616921014  1.0000
  C   C58       1.0  0.2778252694210153  0.0593000750031649  0.5727787346855849  1.0000
  C   C59       1.0  0.22114245119304604  0.15765477241250636  0.5298568078853665  1.0000
  C   C60       1.0  0.1531501632957912  0.22542696666926076  0.5159661481661786  1.0000
  C   C61       1.0  0.16923315446553036  0.24968836040383743  0.4433341431588716  1.0000
  C   C62       1.0  0.10624514832997535  0.31644851243633815  0.4332196952570301  1.0000
  C   C63       1.0  0.013743138494199114  0.33708291140762003  0.5600348995555677  1.0000
  C   C64       1.0  0.07073741355493007  0.26968120432283627  0.5742354584749024  1.0000
  C   C65       1.0  0.1005425078017623  0.0064919493095204  0.6911159721298008  1.0000
  C   C66       1.0  0.5458921193629963  0.7155675737214722  0.11948758233581462  1.0000
  C   C67       1.0  0.5004668052194176  0.798140532084119  0.1521050868410397  1.0000
  C   C68       1.0  0.3534187205070296  0.7879018262988352  0.1112110740993017  1.0000
  C   C69       1.0  0.25196169525882084  0.6953833350732807  0.03841761708705589  1.0000
  C   C70       1.0  0.305615357351492  0.6151683897430542  0.01021425305068377  1.0000
  C   C71       1.0  0.21841266667944123  0.513324251338382  0.9404929858819745  1.0000
  C   C72       1.0  0.06351651171615201  0.372000608666454  0.8424583296064726  1.0000
  C   C73       1.0  0.9277885269852036  0.2903451384722331  0.7747749698198734  1.0000
  C   C74       1.0  0.9197367348848785  0.19350568970847354  0.7505793660250504  1.0000
  C   C75       1.0  0.7901226141035947  0.11664067356533538  0.6836763329786779  1.0000
  C   C76       1.0  0.6768427825053392  0.2227805947405059  0.6629387831329014  1.0000
  C   C77       1.0  0.801117896487348  0.3043686543239943  0.7304555189000583  1.0000
  C   C78       1.0  0.09368435573496492  0.6844342384596588  0.9928591745498284  1.0000
  N   N1        1.0  0.1740770711076892  0.5753628950917786  0.6255341816289858  1.0000
  N   N2        1.0  0.15498140405234298  0.5165739928686361  0.4475866151825798  1.0000
  N   N3        1.0  0.16302644372346725  0.4880157571329846  0.3569473241602808  1.0000
  N   N4        1.0  0.3941600252207352  0.5837861204502416  0.4685330944160954  1.0000
  N   N5        1.0  0.4595842000131753  0.4914983859655706  0.12982551876864784  1.0000
  N   N6        1.0  0.598388942674667  0.050007287135635195  0.4244367865620335  1.0000
  N   N7        1.0  0.6384240125611242  0.9310258155772004  0.4832821332649004  1.0000
  N   N8        1.0  0.6750500491084352  0.8689635978095325  0.5118314763404969  1.0000
  N   N9        1.0  0.8106868529777955  0.8848259643740306  0.4162735810542202  1.0000
  N   N10       1.0  0.9687409803085317  0.638569618200819  0.5086979634933331  1.0000
  N   N11       1.0  0.5486737918992118  0.3744893463296393  0.9501164044182605  1.0000
  N   N12       1.0  0.7073487313777419  0.552338708566502  0.06912034511021388  1.0000
  N   N13       1.0  0.8059528648241567  0.6429631876471615  0.13098288569217686  1.0000
  N   N14       1.0  0.9260469535388937  0.5316506378842405  0.11518578648610854  1.0000
  N   N15       1.0  0.3298324848755102  0.8702722048683852  0.36147535056698377  1.0000
  N   N16       1.0  0.8259142428981434  0.42463706198549994  0.3744604751902685  1.0000
  N   N17       1.0  0.8450145406097959  0.48343111720908627  0.5524140061589266  1.0000
  N   N18       1.0  0.8369728991252572  0.5119981839352903  0.6430550867569027  1.0000
  N   N19       1.0  0.6058428236124414  0.4162013237877389  0.5314619591954255  1.0000
  N   N20       1.0  0.5404107022248043  0.5085045141960194  0.8701696334478869  1.0000
  N   N21       1.0  0.4016042250100897  0.9499882577228148  0.5755661763340996  1.0000
  N   N22       1.0  0.3615765676273952  0.0689741457799897  0.516726830364128  1.0000
  N   N23       1.0  0.32495337756900977  0.1310422545386345  0.4881872914261864  1.0000
  N   N24       1.0  0.18929491265347306  0.1151636958219129  0.5837297223451403  1.0000
  N   N25       1.0  0.03127725892807123  0.361438437994039  0.49131929678947733  1.0000
  N   N26       1.0  0.4513372820215693  0.6255017740986658  0.049875063973381276  1.0000
  N   N27       1.0  0.2926603745292624  0.44765461786413135  0.9308662119358219  1.0000
  N   N28       1.0  0.19405176205647484  0.3570316105122089  0.8690012397208592  1.0000
  N   N29       1.0  0.07396257866169256  0.46835814394489705  0.8848038181033646  1.0000
  N   N30       1.0  0.6701710983811823  0.12973364250547084  0.6385321941317273  1.0000
