data_image0
_chemical_formula_structural       Al6H20C63O28
_chemical_formula_sum              "Al6 H20 C63 O28"
_cell_length_a       12.579184044316792
_cell_length_b       12.478564956086752
_cell_length_c       27.022934221218083
_cell_angle_alpha    97.78248855287869
_cell_angle_beta     90.22244602398926
_cell_angle_gamma    119.75289052203

_space_group_name_H-M_alt    "P 1"
_space_group_IT_number       1

loop_
  _space_group_symop_operation_xyz
  'x, y, z'

loop_
  _atom_site_type_symbol
  _atom_site_label
  _atom_site_symmetry_multiplicity
  _atom_site_fract_x
  _atom_site_fract_y
  _atom_site_fract_z
  _atom_site_occupancy
  Al  Al1       1.0  0.4110732428610861  0.8126344959751465  0.4882970870666624  1.0000
  Al  Al2       1.0  0.6643203581363295  0.07416036778938209  0.5018047462257795  1.0000
  Al  Al3       1.0  0.42838359050664826  0.08087920790815417  0.5029682516482266  1.0000
  Al  Al4       1.0  0.9210542892029919  0.8396176942480404  0.020717463993975067  1.0000
  Al  Al5       1.0  0.9136574100204627  0.5762372772708915  0.0036978153774497916  1.0000
  Al  Al6       1.0  0.6728311112357306  0.5731506933954335  0.002129561626624395  1.0000
  H   H1        1.0  0.865044550718075  0.4540137999631637  0.3161365476206725  1.0000
  H   H2        1.0  0.8681908917467781  0.9578936003701485  0.8055525102858706  1.0000
  H   H3        1.0  0.5141599886615751  0.6226568603182513  0.7725013178839147  1.0000
  H   H4        1.0  0.5137982191105479  0.6577976312051489  0.6835554930732499  1.0000
  H   H5        1.0  0.8793648957004976  0.48241171612333006  0.226604046754275  1.0000
  H   H6        1.0  0.4909939841595232  0.21858269839648864  0.19622360611299425  1.0000
  H   H7        1.0  0.012413440854132289  0.6801696974018083  0.6831184105196114  1.0000
  H   H8        1.0  0.9723508898110184  0.6447916876862291  0.7712307938739468  1.0000
  H   H9        1.0  0.3073455858993768  0.9901497105189632  0.8236173438909159  1.0000
  H   H10       1.0  0.3474308650444087  0.025474361979043195  0.7354656733261888  1.0000
  H   H11       1.0  0.47670317767715187  0.19013216554013468  0.28574695552084955  1.0000
  H   H12       1.0  0.05192743923148409  0.13680295135219464  0.6369396145129044  1.0000
  H   H13       1.0  0.1458240842821112  0.17498244681393516  0.693124330883002  1.0000
  H   H14       1.0  0.1484106736802531  0.07167387792181758  0.6415609074226863  1.0000
  H   H15       1.0  0.022018451128033627  0.9489749027414472  0.7068265938324954  1.0000
  H   H16       1.0  0.9296354858069616  0.9131889572205831  0.6510100882099508  1.0000
  H   H17       1.0  0.8651479066094367  0.06680157342606917  0.6879645472027248  1.0000
  H   H18       1.0  0.9526949008939525  0.0951005581497384  0.7447653555268586  1.0000
  H   H19       1.0  0.29864232645104494  0.6071422990424366  0.44607533417942574  1.0000
  H   H20       1.0  0.037445014852629306  0.04538168738233849  0.005507857340106199  1.0000
  C   C1        1.0  0.6144553154857848  0.8958415929600819  0.41767244274328147  1.0000
  C   C2        1.0  0.5723959053573751  0.26974231957523637  0.22261750018493123  1.0000
  C   C3        1.0  0.5644498394886456  0.253995401141168  0.27256761692518683  1.0000
  C   C4        1.0  0.6699679982536394  0.3202299808002209  0.3068684242871526  1.0000
  C   C5        1.0  0.6861513246842675  0.3521993152926583  0.20545368786608975  1.0000
  C   C6        1.0  0.6950413403828222  0.37063857385114557  0.15473555679080414  1.0000
  C   C7        1.0  0.6609452805085353  0.3010538533055892  0.35748971783227285  1.0000
  C   C8        1.0  0.704510805259467  0.38954238000861335  0.11140145443336277  1.0000
  C   C9        1.0  0.10085665491060053  0.7749697209114427  0.13622597100297174  1.0000
  C   C10       1.0  0.12864145430208387  0.7924955601865373  0.18134130319925382  1.0000
  C   C11       1.0  0.1560318160546856  0.8127530290831402  0.23088593969306703  1.0000
  C   C12       1.0  0.624482263954249  0.22961107089687965  0.4463356263590014  1.0000
  C   C13       1.0  0.17839420778228285  0.8328947533567967  0.2767785613306869  1.0000
  C   C14       1.0  0.20540550769306534  0.8558204455645894  0.32643372103242996  1.0000
  C   C15       1.0  0.23223732662339078  0.8778011621667399  0.37179366190711943  1.0000
  C   C16       1.0  0.6683545927099886  0.7736221482471208  0.13109007128630876  1.0000
  C   C17       1.0  0.6593411837917742  0.7931022148481189  0.17619087945459455  1.0000
  C   C18       1.0  0.652423407122633  0.8139683062239551  0.22568933139479694  1.0000
  C   C19       1.0  0.6493940747099103  0.8327635884841482  0.27153663229132957  1.0000
  C   C20       1.0  0.6443027410139663  0.8530501046008537  0.3212054962558354  1.0000
  C   C21       1.0  0.6379948999881364  0.8718380447457573  0.3665699514136519  1.0000
  C   C22       1.0  0.6925493065874734  0.3687565979647473  0.8744167101051726  1.0000
  C   C23       1.0  0.284242443809397  0.9034492448723835  0.4223685679024739  1.0000
  C   C24       1.0  0.6815954008912186  0.34547055233012697  0.8284416093615263  1.0000
  C   C25       1.0  0.6710132414169435  0.3232736911617592  0.778166854588292  1.0000
  C   C26       1.0  0.6627378053726148  0.30626378005161564  0.731877516318107  1.0000
  C   C27       1.0  0.6523577762182527  0.2851714498362198  0.6815927361958527  1.0000
  C   C28       1.0  0.6418198547824688  0.26387612592860415  0.6355973190256063  1.0000
  C   C29       1.0  0.2360200563556204  0.8882155706542744  0.6107165954734695  1.0000
  C   C30       1.0  0.07661242993323462  0.7474343187389321  0.7140321095882881  1.0000
  C   C31       1.0  0.05436838315300453  0.7277635363051543  0.76313432416282  1.0000
  C   C32       1.0  0.24327648919159353  0.9227992078428852  0.7926877744302343  1.0000
  C   C33       1.0  0.26552782684790793  0.9424446415817226  0.7435747406923523  1.0000
  C   C34       1.0  0.6344252761153301  0.895010236544941  0.5581163957989687  1.0000
  C   C35       1.0  0.18298244795344223  0.8546199442905473  0.7035077342891822  1.0000
  C   C36       1.0  0.13787517966506613  0.8146610011457369  0.8031976725772196  1.0000
  C   C37       1.0  0.11565651192663738  0.7938573310762602  0.8532388402398607  1.0000
  C   C38       1.0  0.20922813095027945  0.8728493664046011  0.6534826100845306  1.0000
  C   C39       1.0  0.09564731938757381  0.7755758321044439  0.8962806031165369  1.0000
  C   C40       1.0  0.6695789094005062  0.8685454169434474  0.6033491674021147  1.0000
  C   C41       1.0  0.7927372000916861  0.9139158024754792  0.7290666588304118  1.0000
  C   C42       1.0  0.7912353052872446  0.8926030951986518  0.7783763143710372  1.0000
  C   C43       1.0  0.5910470960386363  0.7028190512585011  0.7599413268482917  1.0000
  C   C44       1.0  0.5910460270360004  0.7221404858226703  0.710684953035958  1.0000
  C   C45       1.0  0.6179078839193084  0.2163857045884043  0.58275000837326  1.0000
  C   C46       1.0  0.6901885366959422  0.8275049168603061  0.6948873561895893  1.0000
  C   C47       1.0  0.6910691038688697  0.7890204382093982  0.7945985579564688  1.0000
  C   C48       1.0  0.6918317451919832  0.7732124661174209  0.8453836612123168  1.0000
  C   C49       1.0  0.6822422093515285  0.8491240814490335  0.6453995804574928  1.0000
  C   C50       1.0  0.6955565218179484  0.7621758115350584  0.8894003170230318  1.0000
  C   C51       1.0  0.04814389375020068  0.7548683131638683  0.08619725317159779  1.0000
  C   C52       1.0  0.7278074220414865  0.43498879742706  0.06446350679848219  1.0000
  C   C53       1.0  0.6991072347359689  0.749064193455844  0.08134185747236698  1.0000
  C   C54       1.0  0.05104889998067812  0.7513909667638358  0.944720994110966  1.0000
  C   C55       1.0  0.7170818524265883  0.4224008614469382  0.9266197929153247  1.0000
  C   C56       1.0  0.2885473688358644  0.906757828065885  0.5632945770422281  1.0000
  C   C57       1.0  0.7188037778816891  0.7477334995239884  0.939334957621291  1.0000
  C   C58       1.0  0.650565514805983  0.28062307625882  0.40063353940841023  1.0000
  C   C59       1.0  0.7836744129336779  0.40281090612499054  0.289725946864955  1.0000
  C   C60       1.0  0.7916228462701227  0.4184969059030906  0.23976907710011366  1.0000
  C   C61       1.0  0.8996419422213863  0.024123626007295198  0.7119785426495255  1.0000
  C   C62       1.0  0.9846582247406845  0.988260388455636  0.6823874639396053  1.0000
  C   C63       1.0  0.0886212794539532  0.09905381813599229  0.6623982405970918  1.0000
  O   O1        1.0  0.30178870676651554  0.8209684768454077  0.4367310074251305  1.0000
  O   O2        1.0  0.6950143237272784  0.19002936083183633  0.5622979980888657  1.0000
  O   O3        1.0  0.5183620942730728  0.19889521968943308  0.561620011553927  1.0000
  O   O4        1.0  0.30726566218144313  0.005816398139238297  0.5459329541441134  1.0000
  O   O5        1.0  0.502214328168165  0.9916793051517913  0.4974526758978256  1.0000
  O   O6        1.0  0.8010098979336959  0.8298690789391824  0.06880898551148815  1.0000
  O   O7        1.0  0.01244173208243619  0.8291530453869523  0.07744750303150026  1.0000
  O   O8        1.0  0.03799196313157438  0.6609219776253425  0.05555092911286859  1.0000
  O   O9        1.0  0.8316403929228217  0.46071422345254115  0.047515781901310596  1.0000
  O   O10       1.0  0.6469175557794884  0.4524460305344318  0.04396233702212267  1.0000
  O   O11       1.0  0.6216869538925707  0.643377076534186  0.054678872260815574  1.0000
  O   O12       1.0  0.5130782642002814  0.8167464474322301  0.4314983894808292  1.0000
  O   O13       1.0  0.8213441918964222  0.8291373012696607  0.962148626540454  1.0000
  O   O14       1.0  0.03742987627550296  0.833999950558542  0.9716020637242476  1.0000
  O   O15       1.0  0.023114794331824822  0.6433240982978958  0.955813696095049  1.0000
  O   O16       1.0  0.8180871011322142  0.44613479237526105  0.9484957940419746  1.0000
  O   O17       1.0  0.6380323689142955  0.4479880875345898  0.9458072655131884  1.0000
  O   O18       1.0  0.6354859381938666  0.6505988876131565  0.9563430866356694  1.0000
  O   O19       1.0  0.8347896744231135  0.6604834572361324  0.008313739511621078  1.0000
  O   O20       1.0  0.6972416067306496  0.9985161288249028  0.4442034953883648  1.0000
  O   O21       1.0  0.7022871477836645  0.20527744487856123  0.46528377001236965  1.0000
  O   O22       1.0  0.5217057368687037  0.20556894447180696  0.46376744763163186  1.0000
  O   O23       1.0  0.3129480878628286  0.010689368567248895  0.4477603367227941  1.0000
  O   O24       1.0  0.3161684967653429  0.8273353693979643  0.5435366418372352  1.0000
  O   O25       1.0  0.5269658418568001  0.8198328654147744  0.538290094426351  1.0000
  O   O26       1.0  0.7138729649428299  0.9964789786136233  0.5422390546407597  1.0000
  O   O27       1.0  0.3273835450265139  0.6496082163042868  0.4801279637709469  1.0000
  O   O28       1.0  0.00015006700328969985  0.0026603796452561996  0.033351568453681986  1.0000
