data_image0
_chemical_formula_structural       Cd6H28C36N16O24
_chemical_formula_sum              "Cd6 H28 C36 N16 O24"
_cell_length_a       6.903311062502715
_cell_length_b       11.068855069906043
_cell_length_c       17.757923842253415
_cell_angle_alpha    82.97631154491829
_cell_angle_beta     78.74518498976319
_cell_angle_gamma    71.82695050155044

_space_group_name_H-M_alt    "P 1"
_space_group_IT_number       1

loop_
  _space_group_symop_operation_xyz
  'x, y, z'

loop_
  _atom_site_type_symbol
  _atom_site_label
  _atom_site_symmetry_multiplicity
  _atom_site_fract_x
  _atom_site_fract_y
  _atom_site_fract_z
  _atom_site_occupancy
  Cd  Cd1       1.0  0.6677960655528922  0.9979361426770552  0.09488884091773997  1.0000
  Cd  Cd2       1.0  0.7601715111794859  0.5020979944976531  0.4049707624717129  1.0000
  Cd  Cd3       1.0  0.33220158035189984  0.0020583449607869  0.9051103620651018  1.0000
  Cd  Cd4       1.0  0.2398281747531784  0.4979041166400436  0.5950298196541295  1.0000
  Cd  Cd5       1.0  0.9476854184486923  0.7501485739598479  0.24982650614182933  1.0000
  Cd  Cd6       1.0  0.052314035935346205  0.24985067836540512  0.7501728407779422  1.0000
  H   H1        1.0  0.34778442574834406  0.4059904377034798  0.04924222492228131  1.0000
  H   H2        1.0  0.8030699171698926  0.0935117550936226  0.45046950881960857  1.0000
  H   H3        1.0  0.6522184827332046  0.5940059558093296  0.9507610602944749  1.0000
  H   H4        1.0  0.19693193615167104  0.9064903560440741  0.5495318589670501  1.0000
  H   H5        1.0  0.9487020029620935  0.14775676831026632  0.09592802151975377  1.0000
  H   H6        1.0  0.19315663452219678  0.3527669734673752  0.40408608544622376  1.0000
  H   H7        1.0  0.0512961990571484  0.8522405781400196  0.9040706155784404  1.0000
  H   H8        1.0  0.8068441852083555  0.6472322788578779  0.5959133726519069  1.0000
  H   H9        1.0  0.7709805906879694  0.1649858779820548  0.16924207917638506  1.0000
  H   H10       1.0  0.10692459345067827  0.3346764083119922  0.33087687722994724  1.0000
  H   H11       1.0  0.22901715381922153  0.8350124214057146  0.8307565200021896  1.0000
  H   H12       1.0  0.8930713481624512  0.6653237969507373  0.6691240105041982  1.0000
  H   H13       1.0  0.4377484140272047  0.2665470959848406  0.8258365375937798  1.0000
  H   H14       1.0  0.5314557042904585  0.23302275537346873  0.6739619373271067  1.0000
  H   H15       1.0  0.5622466197514625  0.7334521563404125  0.17416427688164046  1.0000
  H   H16       1.0  0.4685439888318613  0.7669764969517773  0.3260386473792494  1.0000
  H   H17       1.0  0.1024996127506909  0.6587856928877898  0.8623471373282995  1.0000
  H   H18       1.0  0.6233074887802206  0.8408691751691393  0.6375331060939542  1.0000
  H   H19       1.0  0.8975030154591154  0.34121832412487413  0.1376524647067683  1.0000
  H   H20       1.0  0.37669685649608897  0.1591329359685574  0.362467246262824  1.0000
  H   H21       1.0  0.22775459779856547  0.5039095286506452  0.2839842880430439  1.0000
  H   H22       1.0  0.015618151121927366  0.9962999490207238  0.21558294924965074  1.0000
  H   H23       1.0  0.7722442932813535  0.4960897236746078  0.7160156221808477  1.0000
  H   H24       1.0  0.984380501219718  0.0036993033045292  0.7844157231876494  1.0000
  H   H25       1.0  0.26053359823158223  0.5451174041781428  0.1937068799806099  1.0000
  H   H26       1.0  0.998819354252788  0.9552416846778727  0.30586262051242835  1.0000
  H   H27       1.0  0.7394634699897795  0.45488280108459384  0.8062928811453032  1.0000
  H   H28       1.0  0.0011787347847373429  0.0447575676473804  0.6941366152289916  1.0000
  C   C1        1.0  0.2699661854460943  0.4664838619885927  0.836063561663579  1.0000
  C   C2        1.0  0.573059636110244  0.0331593655558251  0.6637931271111697  1.0000
  C   C3        1.0  0.7300287353508564  0.5335172962116205  0.16393785145506  1.0000
  C   C4        1.0  0.42693218230919405  0.9668427455818789  0.3362049868538434  1.0000
  C   C5        1.0  0.217214789679794  0.5457187077291863  0.9620898706900433  1.0000
  C   C6        1.0  0.7249132524161513  0.9539371132652263  0.5377488223000952  1.0000
  C   C7        1.0  0.7827843057945999  0.4542853092834705  0.037908834505849115  1.0000
  C   C8        1.0  0.2750892771912492  0.04606309199751021  0.46225138353922546  1.0000
  C   C9        1.0  0.23942365530990667  0.4923704086829589  0.754177705090967  1.0000
  C   C10       1.0  0.48650660676448637  0.007275677673902701  0.7457628909674694  1.0000
  C   C11       1.0  0.7605792188278356  0.5076307495172543  0.24582313731120556  1.0000
  C   C12       1.0  0.5134917210113199  0.9927235746513503  0.2542375825605419  1.0000
  C   C13       1.0  0.12643597464602147  0.6474971954778326  0.014615908420168501  1.0000
  C   C14       1.0  0.7882242212967014  0.8522748838893648  0.4851682135197989  1.0000
  C   C15       1.0  0.873566104638975  0.35250110390993683  0.9853842620800463  1.0000
  C   C16       1.0  0.21177648545213415  0.14772627431084834  0.5148318432215503  1.0000
  C   C17       1.0  0.3259343747736027  0.42420679060646194  0.9894166735853529  1.0000
  C   C18       1.0  0.7399876372936307  0.07535543725200002  0.51036253133784  1.0000
  C   C19       1.0  0.6740704208251104  0.5757972264062019  0.010583714110531198  1.0000
  C   C20       1.0  0.2600175100250723  0.9246466738857039  0.4896384955014098  1.0000
  C   C21       1.0  0.40410648120106213  0.3236842744588913  0.940716007538711  1.0000
  C   C22       1.0  0.6695319686125744  0.1759236943986977  0.5590171499841219  1.0000
  C   C23       1.0  0.5958878691021212  0.6763197425537726  0.05928596630352698  1.0000
  C   C24       1.0  0.33047497441054224  0.8240793696764827  0.4409815857190366  1.0000
  C   C25       1.0  0.5141997794733656  0.1937626840588678  0.9726196869136953  1.0000
  C   C26       1.0  0.6811647832769125  0.3059005551726699  0.5269740695892935  1.0000
  C   C27       1.0  0.4857976205034902  0.8062346623914182  0.027378275702034185  1.0000
  C   C28       1.0  0.3188375004025591  0.6941025089025104  0.47302489588292207  1.0000
  C   C29       1.0  0.37599418675378626  0.34464508730959414  0.8638348102088569  1.0000
  C   C30       1.0  0.585488504130993  0.1549438227983586  0.6359544349970746  1.0000
  C   C31       1.0  0.6240053933868168  0.655356070890619  0.1361663731407248  1.0000
  C   C32       1.0  0.414526426576728  0.8450544765894108  0.3640461728042084  1.0000
  C   C33       1.0  0.19045526440682928  0.5662973926496662  0.8849596820313507  1.0000
  C   C34       1.0  0.6416445664078413  0.933328887282805  0.6149067130000461  1.0000
  C   C35       1.0  0.8095353216123088  0.4337037655505469  0.11504015976564119  1.0000
  C   C36       1.0  0.3583559016027212  0.0666722709174081  0.3850921059547118  1.0000
  N   N1        1.0  0.012195090555785444  0.7670889435746346  0.9957090754486017  1.0000
  N   N2        1.0  0.7748973273446753  0.7326049949190506  0.5040054804767563  1.0000
  N   N3        1.0  0.9878054117985827  0.23290744993816764  0.004292186320746789  1.0000
  N   N4        1.0  0.22510394270828013  0.2673961632811697  0.49599401296047313  1.0000
  N   N5        1.0  0.14020435048053773  0.6332946152483885  0.0901136092106185  1.0000
  N   N6        1.0  0.8629022704967895  0.8667338043014255  0.40962324742259426  1.0000
  N   N7        1.0  0.8597954556234984  0.3667027312018973  0.9098863768525189  1.0000
  N   N8        1.0  0.13709889376410467  0.133266400961304  0.5903768472383744  1.0000
  N   N9        1.0  0.9550278599169033  0.8261777380115092  0.0610713632058335  1.0000
  N   N10       1.0  0.841995078132321  0.6737401407904074  0.4385598359086629  1.0000
  N   N11       1.0  0.04497148867508143  0.17382056137626023  0.9389285849376775  1.0000
  N   N12       1.0  0.15800538987824125  0.3262610174098057  0.5614389830460949  1.0000
  N   N13       1.0  0.03172805255498195  0.7456878736073236  0.11728829594235886  1.0000
  N   N14       1.0  0.8940434199365015  0.7544406043780825  0.3823544033485007  1.0000
  N   N15       1.0  0.968271753549054  0.25430947284296224  0.8827116901207787  1.0000
  N   N16       1.0  0.10595466191136899  0.24556150675961422  0.6176448298123985  1.0000
  O   O1        1.0  0.5592427250027329  0.0965926019724321  0.9339355087561785  1.0000
  O   O2        1.0  0.590377855606022  0.403084931321331  0.5656712529473749  1.0000
  O   O3        1.0  0.44075845363747135  0.90340188566541  0.06606459106583168  1.0000
  O   O4        1.0  0.40962659546235636  0.5969181327538493  0.434328498185664  1.0000
  O   O5        1.0  0.8918129907116423  0.10209295711765522  0.1435056153753038  1.0000
  O   O6        1.0  0.13836060324840835  0.398007680418047  0.3564441967636895  1.0000
  O   O7        1.0  0.108186357880335  0.8979053422701142  0.8564943327682144  1.0000
  O   O8        1.0  0.8616415818286567  0.6019915719072061  0.643555372512793  1.0000
  O   O9        1.0  0.24509168979250967  0.5740914683136964  0.24522019727332625  1.0000
  O   O10       1.0  0.06430195414198893  0.926191385543774  0.2543890618808149  1.0000
  O   O11       1.0  0.754907658799468  0.42590683107407307  0.7547797508701846  1.0000
  O   O12       1.0  0.9356970427299988  0.07380881971896261  0.7456102471193302  1.0000
  O   O13       1.0  0.2436325288565656  0.3963181222627341  0.717498557476233  1.0000
  O   O14       1.0  0.3578303224458496  0.1033060465320474  0.7824763756890006  1.0000
  O   O15       1.0  0.7563664093420146  0.6036801771250354  0.28250623063527047  1.0000
  O   O16       1.0  0.6421685686340768  0.8966932057932057  0.21752353453489084  1.0000
  O   O17       1.0  0.5584543316889992  0.189235278082613  0.03985470082270129  1.0000
  O   O18       1.0  0.7874937883126949  0.3104651257107136  0.4595659176785104  1.0000
  O   O19       1.0  0.44154443363436274  0.810762068367673  0.9601433729713802  1.0000
  O   O20       1.0  0.2125072557768207  0.6895398442394267  0.5404347730451631  1.0000
  O   O21       1.0  0.213189696086289  0.6024308760863378  0.721911139911718  1.0000
  O   O22       1.0  0.5379310075649074  0.897203027345995  0.7780493398255003  1.0000
  O   O23       1.0  0.7868133968252309  0.39756932917639903  0.2780885026234898  1.0000
  O   O24       1.0  0.46206868555741193  0.102796224979258  0.2219512448808558  1.0000
