data_image0
_chemical_formula_structural       Zn2H44C38N4Cl4O8
_chemical_formula_sum              "Zn2 H44 C38 N4 Cl4 O8"
_cell_length_a       9.119806862520619
_cell_length_b       8.416515967800837
_cell_length_c       13.32811948002606
_cell_angle_alpha    94.5336693746221
_cell_angle_beta     97.31040132767728
_cell_angle_gamma    91.12225563408256

_space_group_name_H-M_alt    "P 1"
_space_group_IT_number       1

loop_
  _space_group_symop_operation_xyz
  'x, y, z'

loop_
  _atom_site_type_symbol
  _atom_site_label
  _atom_site_symmetry_multiplicity
  _atom_site_fract_x
  _atom_site_fract_y
  _atom_site_fract_z
  _atom_site_occupancy
  Zn  Zn1       1.0  0.6406667118583869  0.49760832516069087  0.020478521213206594  1.0000
  Zn  Zn2       1.0  0.24349944288975683  0.9906746907590925  0.5087531931126037  1.0000
  H   H1        1.0  0.6029665934709102  0.7825920569859193  0.9550632352614558  1.0000
  H   H2        1.0  0.7072479503296237  0.040119863632448  0.9118035430587952  1.0000
  H   H3        1.0  0.8777855290012866  0.8011820350293702  0.6553469347121209  1.0000
  H   H4        1.0  0.7063406257542653  0.25388306636155267  0.6665142686100083  1.0000
  H   H5        1.0  0.6236990452072888  0.2577841193354898  0.8375285521802383  1.0000
  H   H6        1.0  0.04337275523874944  0.9905894232432  0.7007578117614343  1.0000
  H   H7        1.0  0.009752992157387983  0.20033711038968954  0.7008869490439266  1.0000
  H   H8        1.0  0.8911601330491907  0.059322075252993  0.6189196641207104  1.0000
  H   H9        1.0  0.9332737773062051  0.5688969886845497  0.5938355409031502  1.0000
  H   H10       1.0  0.7391485804885249  0.7125014317044388  0.5233666240387933  1.0000
  H   H11       1.0  0.5035028015545464  0.6159078732284726  0.5472464140782947  1.0000
  H   H12       1.0  0.5449782666937892  0.4131804381621151  0.5168887877203119  1.0000
  H   H13       1.0  0.7445584859025375  0.2999793937471722  0.37793821541490047  1.0000
  H   H14       1.0  0.7368555233687532  0.3873619985561446  0.2605190878913959  1.0000
  H   H15       1.0  0.4865738995745374  0.29184686715614555  0.35645910580387863  1.0000
  H   H16       1.0  0.4806623396508484  0.4085319681708483  0.24911760255554327  1.0000
  H   H17       1.0  0.8847967133112675  0.5712327731573836  0.3919358837088325  1.0000
  H   H18       1.0  0.7081479949430189  0.6824080336403637  0.25419594138084983  1.0000
  H   H19       1.0  0.7383654679044866  0.8123042124158887  0.366776953335588  1.0000
  H   H20       1.0  0.460826876369012  0.6791806572980833  0.2666959603996375  1.0000
  H   H21       1.0  0.2481629273277193  0.7002628443602887  0.5577848555110236  1.0000
  H   H22       1.0  0.18600233814832015  0.4432575536543978  0.6223412837082377  1.0000
  H   H23       1.0  0.24749625740698622  0.6574681423202761  0.9280744543245447  1.0000
  H   H24       1.0  0.37528187524007  0.21174329491517335  0.8798185826135736  1.0000
  H   H25       1.0  0.3543402674766511  0.2123278512752406  0.6914153491922123  1.0000
  H   H26       1.0  0.20646598731599403  0.38074188678970683  0.9587133707626023  1.0000
  H   H27       1.0  0.04463203363062718  0.27164999925508937  0.8943574193353142  1.0000
  H   H28       1.0  0.03884961901704287  0.48311911098255667  0.92243608498827  1.0000
  H   H29       1.0  0.4287930039575941  0.889258841781462  0.017170951487749227  1.0000
  H   H30       1.0  0.18235459897789497  0.7917406820346001  0.019440571907573208  1.0000
  H   H31       1.0  0.9948380990042053  0.9549633169696816  0.9605742726173929  1.0000
  H   H32       1.0  0.0893739908835869  0.13403825122253468  0.0186146405872378  1.0000
  H   H33       1.0  0.29289780231837875  0.17043226340429377  0.18781917205092213  1.0000
  H   H34       1.0  0.26409629249021543  0.08062074859351037  0.29974149410750067  1.0000
  H   H35       1.0  0.041113721446109294  0.2401682651532225  0.17825695928461727  1.0000
  H   H36       1.0  0.007016890668282394  0.105169402395255  0.270204995408676  1.0000
  H   H37       1.0  0.360140446678585  0.8782752569339605  0.18359704942559318  1.0000
  H   H38       1.0  0.14980060423009425  0.7985438502431207  0.2820203824505967  1.0000
  H   H39       1.0  0.15669473575108128  0.675676599776814  0.16715902926331688  1.0000
  H   H40       1.0  0.911212233538194  0.8607127672255357  0.2237301671675951  1.0000
  H   H41       1.0  0.37400283119329464  0.5360029845609374  0.392709264265001  1.0000
  H   H42       1.0  0.8797972626625281  0.046093466479334176  0.09866504684435279  1.0000
  H   H43       1.0  0.9421927021286366  0.3323153664183776  0.5164470611087708  1.0000
  H   H44       1.0  0.4887156449405056  0.15059153489333704  0.0404297304843908  1.0000
  C   C1        1.0  0.6855887594504608  0.643769261191501  0.832190591014104  1.0000
  C   C2        1.0  0.6632018672836824  0.7874434684879645  0.8897606217458429  1.0000
  C   C3        1.0  0.7199134855123006  0.9293542477517177  0.8659109445636232  1.0000
  C   C4        1.0  0.8042298157002749  0.9327049195334423  0.7836692156726953  1.0000
  C   C5        1.0  0.8173875995133955  0.7963774575837447  0.7203782849791337  1.0000
  C   C6        1.0  0.7555509106841499  0.6492905158390554  0.7422195205709768  1.0000
  C   C7        1.0  0.7622090562757222  0.504094963307935  0.6800725300878837  1.0000
  C   C8        1.0  0.7047221375973294  0.3663653932904864  0.7121932100905326  1.0000
  C   C9        1.0  0.6540908505267212  0.3685313485489345  0.8073851730216645  1.0000
  C   C10       1.0  0.9587979568673077  0.08098467787297639  0.6930663258065122  1.0000
  C   C11       1.0  0.8272011307782777  0.5004746871953927  0.5807493497304677  1.0000
  C   C12       1.0  0.7250439289609646  0.5841374316412029  0.5004130311122097  1.0000
  C   C13       1.0  0.5615114664963841  0.5361653950433193  0.49778802960132407  1.0000
  C   C14       1.0  0.70255874004652  0.4004889760288463  0.3366764650003375  1.0000
  C   C15       1.0  0.5323267406200571  0.3976888011733592  0.327130554321421  1.0000
  C   C16       1.0  0.7643293655418902  0.5606833577346676  0.3910994772384555  1.0000
  C   C17       1.0  0.690887804469952  0.6959275124879413  0.3342837381424246  1.0000
  C   C18       1.0  0.5245224264425874  0.6922708852832783  0.3430623864809021  1.0000
  C   C19       1.0  0.46708173831696354  0.8424364583464907  0.3974978834710257  1.0000
  C   C20       1.0  0.2772831658586909  0.8313227102433414  0.7056735167067957  1.0000
  C   C21       1.0  0.24528075187645018  0.6925035986813127  0.6386048193472575  1.0000
  C   C22       1.0  0.2090775274619716  0.5504720958688336  0.6739987565241988  1.0000
  C   C23       1.0  0.2012168972119852  0.5415883225151035  0.7787384157664192  1.0000
  C   C24       1.0  0.24219598020291508  0.6718981982180736  0.8476064898530495  1.0000
  C   C25       1.0  0.2792349641832886  0.821236840451931  0.8133915811138479  1.0000
  C   C26       1.0  0.31773243950534896  0.9640167845819647  0.8787567009800766  1.0000
  C   C27       1.0  0.3468052378268212  0.10123247292100498  0.8328303593398587  1.0000
  C   C28       1.0  0.33730210193729704  0.10218383304933099  0.7269112547294938  1.0000
  C   C29       1.0  0.10859712982982468  0.38427545353100356  0.9015930435283721  1.0000
  C   C30       1.0  0.33991077201004327  0.9726002888539182  0.9955433749878395  1.0000
  C   C31       1.0  0.2096281284130441  0.9155160579826214  0.047865911300476696  1.0000
  C   C32       1.0  0.06760748001749312  0.007595064245357697  0.026852006638321803  1.0000
  C   C33       1.0  0.22634873941693462  0.08089340649554087  0.21838122184737332  1.0000
  C   C34       1.0  0.061794537521827016  0.12026982604607638  0.2026752816141411  1.0000
  C   C35       1.0  0.24626390759490144  0.9159709865222181  0.1644102804879068  1.0000
  C   C36       1.0  0.13672117342871098  0.7966189912121989  0.19882742080175572  1.0000
  C   C37       1.0  0.9764957976009614  0.8417416847158207  0.16039471496807073  1.0000
  C   C38       1.0  0.895760823916433  0.7154162321801251  0.0806855811683036  1.0000
  N   N1        1.0  0.6451395002858505  0.5020765943278249  0.8665700517049899  1.0000
  N   N2        1.0  0.48631378794146957  0.5409001953226705  0.3905974618685519  1.0000
  N   N3        1.0  0.303606553980103  0.9720293970001634  0.6643654195177433  1.0000
  N   N4        1.0  0.9849177370276722  0.004669809805385203  0.11843621347789929  1.0000
  Cl  Cl1       1.0  0.4239965186427098  0.5506688706492611  0.07743254635475691  1.0000
  Cl  Cl2       1.0  0.7160919023420861  0.24490989139750496  0.05923248405903081  1.0000
  Cl  Cl3       1.0  0.00861837537778596  0.8989424279432112  0.4577188466199402  1.0000
  Cl  Cl4       1.0  0.2499781105407095  0.2542824346294452  0.48233171788481843  1.0000
  O   O1        1.0  0.8694834421623342  0.07574064019132008  0.7743563090572394  1.0000
  O   O2        1.0  0.8519457781976172  0.3384621418563114  0.5485864376814291  1.0000
  O   O3        1.0  0.3513167031576216  0.8143933719250925  0.4420525382244946  1.0000
  O   O4        1.0  0.5261314729079913  0.9737744423183942  0.39028662023312677  1.0000
  O   O5        1.0  0.1513278978641708  0.3981755204446456  0.8021599288516583  1.0000
  O   O6        1.0  0.3814411884728628  0.1300758809012876  0.037383746169467706  1.0000
  O   O7        1.0  0.7725982901645595  0.6611604267166412  0.10530637328626823  1.0000
  O   O8        1.0  0.951843266351993  0.6733901679485896  0.0031010698509633334  1.0000
