data_image0
_chemical_formula_structural       Ag4H20C20N12O8
_chemical_formula_sum              "Ag4 H20 C20 N12 O8"
_cell_length_a       7.628764636826959
_cell_length_b       7.628826679378711
_cell_length_c       13.610721421008487
_cell_angle_alpha    98.05229495644284
_cell_angle_beta     98.0518107433086
_cell_angle_gamma    120.07790251461495

_space_group_name_H-M_alt    "P 1"
_space_group_IT_number       1

loop_
  _space_group_symop_operation_xyz
  'x, y, z'

loop_
  _atom_site_type_symbol
  _atom_site_label
  _atom_site_symmetry_multiplicity
  _atom_site_fract_x
  _atom_site_fract_y
  _atom_site_fract_z
  _atom_site_occupancy
  Ag  Ag1       1.0  0.20975689826163801  0.280052118828813  0.5086287932893683  1.0000
  Ag  Ag2       1.0  0.7718333561005367  0.7008122505190286  0.4914005747559144  1.0000
  Ag  Ag3       1.0  0.9507974636697442  0.5218160861898298  0.991397134396145  1.0000
  Ag  Ag4       1.0  0.5300602458601631  0.9597676667422091  0.008628026736893375  1.0000
  H   H1        1.0  0.19602438614050047  0.1380003491838053  0.2750463122985423  1.0000
  H   H2        1.0  0.8624735796028205  0.920708931251795  0.7249199602483002  1.0000
  H   H3        1.0  0.17069799316794843  0.612466988944412  0.2249138065229275  1.0000
  H   H4        1.0  0.38800320082154377  0.9460192204691255  0.7750492623516363  1.0000
  H   H5        1.0  0.9523443847419276  0.023266401970381902  0.10475600315319163  1.0000
  H   H6        1.0  0.91880994150592  0.847936870897236  0.8952111959439293  1.0000
  H   H7        1.0  0.09793842843118479  0.6688100306266377  0.39520765276446207  1.0000
  H   H8        1.0  0.2732716058032237  0.7023455147199297  0.604760109362374  1.0000
  H   H9        1.0  0.7730811754368646  0.1974790273001403  0.4167271531023289  1.0000
  H   H10       1.0  0.7803225348410622  0.35597033844452136  0.5832683069723643  1.0000
  H   H11       1.0  0.6059623152117055  0.5303342103517679  0.08326946261308882  1.0000
  H   H12       1.0  0.4474625678864684  0.5230759767261545  0.9167288190470729  1.0000
  H   H13       1.0  0.39215894167168847  0.0499045472523107  0.1776700297491942  1.0000
  H   H14       1.0  0.872196806904313  0.21465939317356938  0.8224006857739068  1.0000
  H   H15       1.0  0.46465056663112153  0.6221909221599872  0.3224046630046047  1.0000
  H   H16       1.0  0.29990852508248633  0.1421654250975521  0.6776685047196195  1.0000
  H   H17       1.0  0.45524481962964103  0.10763851383697438  0.3154658473888645  1.0000
  H   H18       1.0  0.792103113664041  0.13965519783214828  0.6845941698997252  1.0000
  H   H19       1.0  0.38964321869014634  0.5420964513944709  0.1845978192344475  1.0000
  H   H20       1.0  0.3576425804316444  0.20524704375749536  0.8154662070339427  1.0000
  C   C1        1.0  0.400870127800566  0.017503163884747198  0.5025059492561041  1.0000
  C   C2        1.0  0.5148499482070292  0.8980270386812137  0.4974529345607621  1.0000
  C   C3        1.0  0.1480224043778549  0.2648409221140041  0.9974535083609624  1.0000
  C   C4        1.0  0.2675070042549025  0.15086934726186738  0.002504744814444803  1.0000
  C   C5        1.0  0.0469072038274305  0.1256927995520485  0.2680800738890809  1.0000
  C   C6        1.0  0.8573931086574833  0.7786772624352383  0.7318966335040358  1.0000
  C   C7        1.0  0.028671415274956723  0.607393357162735  0.2318925314315194  1.0000
  C   C8        1.0  0.37569673987360375  0.7969102234416781  0.7680841385558708  1.0000
  C   C9        1.0  0.9108932228702713  0.06420227060563378  0.1738717315373179  1.0000
  C   C10       1.0  0.8905695154392249  0.737247712826381  0.8261165901502282  1.0000
  C   C11       1.0  0.9872520460544152  0.6405681683736331  0.3261140362423589  1.0000
  C   C12       1.0  0.31420205267556167  0.6608919875957185  0.6738727925245485  1.0000
  C   C13       1.0  0.6728935064310165  0.09556914116345182  0.25049199171591136  1.0000
  C   C14       1.0  0.8452322928451182  0.4224883797520178  0.7494995892107924  1.0000
  C   C15       1.0  0.6724920429445476  0.595238330855274  0.24950342869427533  1.0000
  C   C16       1.0  0.3455656359368717  0.4228828670468657  0.7504927938594506  1.0000
  C   C17       1.0  0.8149585100336837  0.15925279824693916  0.3472142793960272  1.0000
  C   C18       1.0  0.8118331538055655  0.46754005781485114  0.6527486251378036  1.0000
  C   C19       1.0  0.7175276402169858  0.5618412141937482  0.1527481933684456  1.0000
  C   C20       1.0  0.40924335117266963  0.5649616245460365  0.8472159140140221  1.0000
  N   N1        1.0  0.7248974422114859  0.0492601311108842  0.16322704398407245  1.0000
  N   N2        1.0  0.8863931634223833  0.5619724720468114  0.8367701809643009  1.0000
  N   N3        1.0  0.811960660833222  0.6363923674355193  0.3367690365481267  1.0000
  N   N4        1.0  0.29925645873721873  0.4748961290971394  0.6632273696600706  1.0000
  N   N5        1.0  0.9967170118195627  0.17298603896912113  0.3554931243434751  1.0000
  N   N6        1.0  0.8170647929584762  0.6408835445781875  0.644483302874164  1.0000
  N   N7        1.0  0.8908804757557293  0.5670693900398049  0.1444799581188292  1.0000
  N   N8        1.0  0.4229816535771889  0.7467043719180494  0.8554958176168271  1.0000
  N   N9        1.0  0.4905752005184355  0.08218818563830152  0.24667396736964517  1.0000
  N   N10       1.0  0.83564084511724  0.24397998114645247  0.7533623177776149  1.0000
  N   N11       1.0  0.49396616105100594  0.5856358461222867  0.2533679961997279  1.0000
  N   N12       1.0  0.3321912392475141  0.2405837079614059  0.7466719706353828  1.0000
  O   O1        1.0  0.43576395313085925  0.14752742216344217  0.44714374967394116  1.0000
  O   O2        1.0  0.7002658474966453  0.988286363556554  0.5529191094625361  1.0000
  O   O3        1.0  0.23827887546704568  0.45025454969179884  0.05292106370685449  1.0000
  O   O4        1.0  0.39753421468753913  0.18577311278212247  0.9471425209790779  1.0000
  O   O5        1.0  0.27816033062518397  0.9766800222999805  0.5614959729847868  1.0000
  O   O6        1.0  0.4148269767183521  0.7162339009568299  0.4384600706290413  1.0000
  O   O7        1.0  0.9662280089179802  0.1648191620310797  0.9384578474086425  1.0000
  O   O8        1.0  0.22669194257613873  0.028165876056092998  0.06149459800630551  1.0000
