data_image0
_chemical_formula_structural       La4H32C24O28
_chemical_formula_sum              "La4 H32 C24 O28"
_cell_length_a       8.013756060705347
_cell_length_b       10.974930180435704
_cell_length_c       12.872813599255187
_cell_angle_alpha    71.2235110264998
_cell_angle_beta     71.86548668161662
_cell_angle_gamma    68.59526094661449

_space_group_name_H-M_alt    "P 1"
_space_group_IT_number       1

loop_
  _space_group_symop_operation_xyz
  'x, y, z'

loop_
  _atom_site_type_symbol
  _atom_site_label
  _atom_site_symmetry_multiplicity
  _atom_site_fract_x
  _atom_site_fract_y
  _atom_site_fract_z
  _atom_site_occupancy
  La  La1       1.0  0.057815164669520656  0.6898445829237829  0.7718360541190208  1.0000
  La  La2       1.0  0.4805432613802054  0.1898517556402481  0.27182983151550394  1.0000
  La  La3       1.0  0.9421853253031928  0.31015401764089745  0.22816402202582964  1.0000
  La  La4       1.0  0.5194556072210122  0.8101508727950059  0.7281694602458587  1.0000
  H   H1        1.0  0.9008797719916688  0.17700323209311355  0.5131427279719745  1.0000
  H   H2        1.0  0.40889972189413737  0.6770292651242187  0.013084288179712225  1.0000
  H   H3        1.0  0.09912015433231165  0.8229993956825506  0.48685681955076643  1.0000
  H   H4        1.0  0.5910977167997233  0.3229723547561249  0.9869157207904778  1.0000
  H   H5        1.0  0.8300763507677899  0.20770669051074003  0.6480983036720077  1.0000
  H   H6        1.0  0.31412909978024567  0.7076969960778638  0.14805643670435847  1.0000
  H   H7        1.0  0.16992373386204934  0.7922929170215837  0.35190157637696734  1.0000
  H   H8        1.0  0.6858701741638453  0.2923046253897396  0.8519430511528726  1.0000
  H   H9        1.0  0.4955414791988204  0.23885264053802752  0.643117317785979  1.0000
  H   H10       1.0  0.6224707544119712  0.7389991736033606  0.14297871019289946  1.0000
  H   H11       1.0  0.5044588856263131  0.7611469640878709  0.35688359489871163  1.0000
  H   H12       1.0  0.377528924874994  0.2610014408965995  0.8570209737602074  1.0000
  H   H13       1.0  0.5989861150391889  0.36330136817247893  0.5462521202657058  1.0000
  H   H14       1.0  0.4912135816078733  0.8634311431979567  0.04626592016107628  1.0000
  H   H15       1.0  0.40101437493352426  0.6366972323921941  0.4537479558791447  1.0000
  H   H16       1.0  0.5087868752065604  0.13656947354884608  0.9537329869176931  1.0000
  H   H17       1.0  0.9469766043085741  0.8695523844882587  0.024413150786564596  1.0000
  H   H18       1.0  0.15902686735420712  0.3695211224466775  0.524342252969852  1.0000
  H   H19       1.0  0.05302245575678228  0.13044520752151811  0.9755876425671062  1.0000
  H   H20       1.0  0.8409787893428772  0.6304744574831601  0.4756584018724155  1.0000
  H   H21       1.0  0.9008071242932161  0.0069123825713432955  0.9116273799758546  1.0000
  H   H22       1.0  0.18060920762911079  0.5069486348716339  0.4115749361511973  1.0000
  H   H23       1.0  0.09919548112501551  0.9930862166741645  0.08837320769175257  1.0000
  H   H24       1.0  0.8193880171860219  0.49304895555088263  0.5884263783154254  1.0000
  H   H25       1.0  0.8107806494535484  0.4926029548788831  0.8591780051118221  1.0000
  H   H26       1.0  0.8375364794109291  0.9927030087085809  0.35907913550837384  1.0000
  H   H27       1.0  0.18921902983341715  0.5073976596210769  0.1408216788412773  1.0000
  H   H28       1.0  0.1624628276914421  0.007296596576900101  0.6409215214149314  1.0000
  H   H29       1.0  0.9932339383535688  0.4109654908407022  0.9126315175502597  1.0000
  H   H30       1.0  0.683211523315933  0.9110913365012793  0.41252038975537897  1.0000
  H   H31       1.0  0.006763905683165193  0.589035122072005  0.08736868751579155  1.0000
  H   H32       1.0  0.31678815597103227  0.08890927799868109  0.5874792941977277  1.0000
  C   C1        1.0  0.8106162416756321  0.021569798613846593  0.6421179475548088  1.0000
  C   C2        1.0  0.5256571355165532  0.5215803120092699  0.14204711430237182  1.0000
  C   C3        1.0  0.18938434028638798  0.9784298140717383  0.3578801229841205  1.0000
  C   C4        1.0  0.47434136090006995  0.4784213072114979  0.8579531504291964  1.0000
  C   C5        1.0  0.7937448868734408  0.17016320423073236  0.590919577001266  1.0000
  C   C6        1.0  0.4451245467468751  0.6702050586046653  0.09084939241805048  1.0000
  C   C7        1.0  0.20625712499592952  0.8298374170097558  0.40907777632884307  1.0000
  C   C8        1.0  0.5548747271972163  0.3297965628629385  0.9091500954391876  1.0000
  C   C9        1.0  0.6036985064630398  0.25671401761751866  0.5682574539067247  1.0000
  C   C10       1.0  0.5711554187607392  0.7568819032280131  0.0681616983724355  1.0000
  C   C11       1.0  0.39629856004622604  0.7432865930483458  0.43174352803366395  1.0000
  C   C12       1.0  0.4288434829987581  0.2431187090251043  0.9318387624550085  1.0000
  C   C13       1.0  0.5621489721687849  0.23410188936281173  0.4701357412100577  1.0000
  C   C14       1.0  0.7333958881423823  0.734402098236451  0.9699916959299415  1.0000
  C   C15       1.0  0.43785098731347455  0.7658987222307232  0.5298649753787572  1.0000
  C   C16       1.0  0.266602328078946  0.2655995238907352  0.030007536165911092  1.0000
  C   C17       1.0  0.18164091129317217  0.8967592513856173  0.8967079117807161  1.0000
  C   C18       1.0  0.024729451566550174  0.39678438622162554  0.39671184919285457  1.0000
  C   C19       1.0  0.8183614139297645  0.10323935076631588  0.10329164325118258  1.0000
  C   C20       1.0  0.9752698886941004  0.6032132028817258  0.6032899767965321  1.0000
  C   C21       1.0  0.9976798064511101  0.9537941443656874  0.967931521100191  1.0000
  C   C22       1.0  0.08056292994074012  0.4538082409808907  0.46790053381454305  1.0000
  C   C23       1.0  0.0023199059941348046  0.04620445395214999  0.03206933191899001  1.0000
  C   C24       1.0  0.9194375012009528  0.5461873312807484  0.5321027170023029  1.0000
  O   O1        1.0  0.9631132202553018  0.9439599131402968  0.6676254531202304  1.0000
  O   O2        1.0  0.42521044549143766  0.44398628244314836  0.1675179974973347  1.0000
  O   O3        1.0  0.03689196478234893  0.05604070612143629  0.3323726674940133  1.0000
  O   O4        1.0  0.5747880509251856  0.5560153367776195  0.8324822672342266  1.0000
  O   O5        1.0  0.6723822191616904  0.983045005048574  0.6563492139664433  1.0000
  O   O6        1.0  0.6881483039728308  0.4830666377930869  0.15633301781709014  1.0000
  O   O7        1.0  0.3276248342844637  0.016953599618290096  0.3436495546009297  1.0000
  O   O8        1.0  0.31184941491632434  0.5169349791808386  0.8436680237888082  1.0000
  O   O9        1.0  0.6626321773136539  0.2616618790369643  0.371086442115363  1.0000
  O   O10       1.0  0.7045111930286865  0.7618797480959784  0.8709331229668537  1.0000
  O   O11       1.0  0.33736769017930623  0.7383377204356733  0.6289162800793804  1.0000
  O   O12       1.0  0.29548742853552307  0.23812086706356433  0.12906630522486753  1.0000
  O   O13       1.0  0.42720562506315957  0.19216695484372076  0.4824146577563155  1.0000
  O   O14       1.0  0.8979420983284142  0.6924953473294692  0.9823220519968389  1.0000
  O   O15       1.0  0.5727932766963377  0.8078336574094036  0.5175858030711211  1.0000
  O   O16       1.0  0.1020568034310827  0.3075052649236553  0.017678408830597906  1.0000
  O   O17       1.0  0.19583024598826201  0.808293709281571  0.845010390566195  1.0000
  O   O18       1.0  0.15060920047824325  0.3082722941680132  0.34502153537655295  1.0000
  O   O19       1.0  0.8041713936965139  0.191705902744431  0.15498793573411263  1.0000
  O   O20       1.0  0.8493890489013722  0.6917273117770505  0.654978865785374  1.0000
  O   O21       1.0  0.31934528417343  0.932759354141346  0.8869315703443306  1.0000
  O   O22       1.0  0.8607564083926388  0.4328037438626494  0.3870010047781847  1.0000
  O   O23       1.0  0.6806543951135352  0.06724126035862102  0.1130681136087759  1.0000
  O   O24       1.0  0.13923984743088602  0.567198880738502  0.6129995849704671  1.0000
  O   O25       1.0  0.9418872552646606  0.48225983944733725  0.8506125341766052  1.0000
  O   O26       1.0  0.7254170886700849  0.9823049835748204  0.350449615759061  1.0000
  O   O27       1.0  0.058113201549773  0.5177407772994657  0.14938637290216414  1.0000
  O   O28       1.0  0.2745825906168804  0.0176956309251395  0.6495500681940456  1.0000
