data_image0
_chemical_formula_structural       Zn4H10C24O18
_chemical_formula_sum              "Zn4 H10 C24 O18"
_cell_length_a       13.077188955963646
_cell_length_b       13.07624699312778
_cell_length_c       16.093625634352936
_cell_angle_alpha    80.63982314352532
_cell_angle_beta     79.56449681959936
_cell_angle_gamma    89.41598850059032

_space_group_name_H-M_alt    "P 1"
_space_group_IT_number       1

loop_
  _space_group_symop_operation_xyz
  'x, y, z'

loop_
  _atom_site_type_symbol
  _atom_site_label
  _atom_site_symmetry_multiplicity
  _atom_site_fract_x
  _atom_site_fract_y
  _atom_site_fract_z
  _atom_site_occupancy
  Zn  Zn1       1.0  0.5896946547773041  0.5762881376107671  0.5546378651375221  1.0000
  Zn  Zn2       1.0  0.5860125135199751  0.41408516347186003  0.42614724690470507  1.0000
  Zn  Zn3       1.0  0.4283329736920577  0.6046020854315658  0.4254570918917508  1.0000
  Zn  Zn4       1.0  0.3958972258561886  0.4173265620690926  0.5855672804818042  1.0000
  H   H1        1.0  0.08449720773890587  0.5815474513334635  0.46594154471581817  1.0000
  H   H2        1.0  0.9031053211690219  0.449520869274174  0.3435784250322485  1.0000
  H   H3        1.0  0.5969807085984085  0.5666587097931881  0.9703222049555225  1.0000
  H   H4        1.0  0.6074305788456015  0.8900875308384923  0.5781662961563826  1.0000
  H   H5        1.0  0.4768567944646946  0.9374944844941026  0.43516374834266003  1.0000
  H   H6        1.0  0.0725071462756333  0.386151320285684  0.6041141342344574  1.0000
  H   H7        1.0  0.3413846835704887  0.38532614109102054  0.0024143061417092166  1.0000
  H   H8        1.0  0.6585786345498474  0.17936179582100206  0.5519121152816809  1.0000
  H   H9        1.0  0.30097176592396113  0.12399046037840827  0.5564196676714914  1.0000
  H   H10       1.0  0.7793531969676906  0.41338433524337137  0.6412331707480591  1.0000
  C   C1        1.0  0.4776809785421178  0.22328028958663274  0.5280113648871279  1.0000
  C   C2        1.0  0.04419890937074909  0.4435963879933951  0.5567804504573388  1.0000
  C   C3        1.0  0.8914242404381979  0.45028880691420864  0.4816090829642122  1.0000
  C   C4        1.0  0.5233446543864204  0.7801284562549569  0.48028842142598904  1.0000
  C   C5        1.0  0.9332547239134354  0.4423971491561359  0.5544694672919732  1.0000
  C   C6        1.0  0.7775529991707371  0.4674787809222636  0.48388661200881705  1.0000
  C   C7        1.0  0.22204012436446863  0.5193189616335941  0.5144955821795351  1.0000
  C   C8        1.0  0.5216442458358301  0.518630871292018  0.2695738674617871  1.0000
  C   C9        1.0  0.48200135986805753  0.4803974322985667  0.7268250820105209  1.0000
  C   C10       1.0  0.5261715642406344  0.5222058785443622  0.1792432039111631  1.0000
  C   C11       1.0  0.5336971500334542  0.5234601781024751  0.015405630248167768  1.0000
  C   C12       1.0  0.4716633975727475  0.474807010729414  0.8938141768761697  1.0000
  C   C13       1.0  0.46366562658130306  0.47207470328216045  0.9825948761502873  1.0000
  C   C14       1.0  0.6605892905278804  0.09712761296306376  0.5420844428049564  1.0000
  C   C15       1.0  0.36111025752143894  0.0647388960635524  0.5665941546049923  1.0000
  C   C16       1.0  0.8636215063949704  0.4245564051050081  0.6407333288943206  1.0000
  C   C17       1.0  0.949840559803377  0.43390813662082195  0.395440610559369  1.0000
  C   C18       1.0  0.5288536476084573  0.5225155604975169  0.10295651068152979  1.0000
  C   C19       1.0  0.47512457083352183  0.475233448267005  0.8174727257172024  1.0000
  C   C20       1.0  0.5191332192511169  0.8930298466584786  0.48095893461299266  1.0000
  C   C21       1.0  0.5610944338357413  0.9373670681507845  0.5370150166443892  1.0000
  C   C22       1.0  0.47083762264392687  0.1071588438478557  0.5419429799567013  1.0000
  C   C23       1.0  0.5583689955641586  0.0485289648731282  0.5386600413537509  1.0000
  C   C24       1.0  0.1099265355810246  0.5187815701483132  0.5105687966826551  1.0000
  O   O1        1.0  0.5000979618005346  0.5014599954925031  0.49810793527176866  1.0000
  O   O2        1.0  0.5804555944552163  0.45269745357855123  0.3047366405887644  1.0000
  O   O3        1.0  0.4111241740233639  0.43216102070399387  0.7025741314933213  1.0000
  O   O4        1.0  0.4598545531915262  0.5808447644094415  0.30573093874149754  1.0000
  O   O5        1.0  0.5590626954393442  0.5331425786790618  0.6797406669397575  1.0000
  O   O6        1.0  0.3834239510256836  0.4159515666171387  0.03655018483171088  1.0000
  O   O7        1.0  0.7412687166228336  0.04866904976277201  0.5380667057317865  1.0000
  O   O8        1.0  0.33679648110823013  0.9753293098610809  0.5988631467981735  1.0000
  O   O9        1.0  0.8973922405876351  0.4182761908597996  0.7073575142820375  1.0000
  O   O10       1.0  0.0382288779672209  0.40196156936204364  0.381532298066695  1.0000
  O   O11       1.0  0.736755001173037  0.5383599012031014  0.5240781873929947  1.0000
  O   O12       1.0  0.25468413273752327  0.44955415601346976  0.5683830418076639  1.0000
  O   O13       1.0  0.5425471712635853  0.2670216323925132  0.46340643142762883  1.0000
  O   O14       1.0  0.4699983592729282  0.7465596655168197  0.43076821578548424  1.0000
  O   O15       1.0  0.4143192106352203  0.2671277881360581  0.5805893197533578  1.0000
  O   O16       1.0  0.5772799340727132  0.725854557753351  0.5293908408909118  1.0000
  O   O17       1.0  0.7330960819038166  0.41209588445619966  0.4418316459124085  1.0000
  O   O18       1.0  0.27704037577321117  0.5897868793642046  0.4612509552008177  1.0000
