data_image0
_chemical_formula_structural       Mn4H48C32S8N8O16
_chemical_formula_sum              "Mn4 H48 C32 S8 N8 O16"
_cell_length_a       5.956663951
_cell_length_b       8.979726987
_cell_length_c       21.527
_cell_angle_alpha    90.0
_cell_angle_beta     90.0
_cell_angle_gamma    90.0

_space_group_name_H-M_alt    "P 1"
_space_group_IT_number       1

loop_
  _space_group_symop_operation_xyz
  'x, y, z'

loop_
  _atom_site_type_symbol
  _atom_site_label
  _atom_site_symmetry_multiplicity
  _atom_site_fract_x
  _atom_site_fract_y
  _atom_site_fract_z
  _atom_site_occupancy
  Mn  Mn1       1.0  0.9360877239119603  0.5673513245308612  0.8009996748269615  1.0000
  Mn  Mn2       1.0  0.5638995296076956  0.4326423292851018  0.3010015329586082  1.0000
  Mn  Mn3       1.0  0.06392168554952352  0.0673472590954631  0.6989993961072118  1.0000
  Mn  Mn4       1.0  0.4360662312608596  0.9326408266224959  0.19899707344265494  1.0000
  H   H1        1.0  0.8602919422942605  0.6789159635728268  0.9346276768709032  1.0000
  H   H2        1.0  0.6397104203537083  0.3210821447215579  0.4346234960746997  1.0000
  H   H3        1.0  0.1397225035433252  0.1789063300394105  0.5653732521949166  1.0000
  H   H4        1.0  0.360270449643167  0.8210962327333817  0.0653778975240371  1.0000
  H   H5        1.0  0.918176691683577  0.2664891709363033  0.8306619593998265  1.0000
  H   H6        1.0  0.5818223133803215  0.7335122782168852  0.3306666047289468  1.0000
  H   H7        1.0  0.0818327177779068  0.7664832137952828  0.6693412923305645  1.0000
  H   H8        1.0  0.4181635929926557  0.23351266725989459  0.16934454406094804  1.0000
  H   H9        1.0  0.8967888811493552  0.9852660345696975  0.9714307613694402  1.0000
  H   H10       1.0  0.6032084451225046  0.0147387554422949  0.47143169043526717  1.0000
  H   H11       1.0  0.10321884952008992  0.4852653099931032  0.5285692386305599  1.0000
  H   H12       1.0  0.39678585521065207  0.5147472753561146  0.0285673804989059  1.0000
  H   H13       1.0  0.055660349942073105  0.0770290679217069  0.9131054025177721  1.0000
  H   H14       1.0  0.44434771237273923  0.9229690403726778  0.41310958331397535  1.0000
  H   H15       1.0  0.9443440231433016  0.5770164290630646  0.586895991080965  1.0000
  H   H16       1.0  0.5556566607126356  0.422981679231313  0.0868936684164083  1.0000
  H   H17       1.0  0.3041685773957141  0.6944231165410173  0.876137408835419  1.0000
  H   H18       1.0  0.1958277333748484  0.3055794462317749  0.3761378733683288  1.0000
  H   H19       1.0  0.6958425108578012  0.1944123693879973  0.6238598039671076  1.0000
  H   H20       1.0  0.8041615305822063  0.805595761482806  0.12386212663167133  1.0000
  H   H21       1.0  0.22083166195386644  0.6040617947352729  0.9466474659729657  1.0000
  H   H22       1.0  0.2791764003609459  0.395938540798312  0.44664839503878545  1.0000
  H   H23       1.0  0.7791878202598284  0.1040555020606675  0.5533511404282976  1.0000
  H   H24       1.0  0.7208061484279612  0.8959492879513319  0.0533534630928614  1.0000
  H   H25       1.0  0.7239639562470259  0.8804298851675085  0.8833372044409344  1.0000
  H   H26       1.0  0.7760316912328024  0.1195693367464727  0.3833385980396714  1.0000
  H   H27       1.0  0.2760471320064894  0.3804213652536959  0.6166632600919755  1.0000
  H   H28       1.0  0.2239659666844247  0.6195745158014816  0.1166655827565393  1.0000
  H   H29       1.0  0.7296836007124982  0.4616020070544238  0.9270952757002817  1.0000
  H   H30       1.0  0.7703187619354779  0.5384027829575686  0.427102708226876  1.0000
  H   H31       1.0  0.270314057204736  0.9615882545761849  0.5729028661680644  1.0000
  H   H32       1.0  0.22969400511007626  0.0384165354358146  0.07290286616807151  1.0000
  H   H33       1.0  0.9407010444259356  0.3219106777059935  0.9347280159799355  1.0000
  H   H34       1.0  0.559302997014072  0.6781007940236137  0.43473498397361254  1.0000
  H   H35       1.0  0.05929829228333721  0.8219002660865655  0.5652724485529816  1.0000
  H   H36       1.0  0.440709770031475  0.1781078647842449  0.0652761648162752  1.0000
  H   H37       1.0  0.5329778591029992  0.08588902548112289  0.834361034979331  1.0000
  H   H38       1.0  0.9670261823370083  0.914111310052462  0.3343656803084514  1.0000
  H   H39       1.0  0.4670516958629065  0.5858808411009022  0.6656329260928119  1.0000
  H   H40       1.0  0.0329479724917263  0.4141250625307009  0.1656357132902855  1.0000
  H   H41       1.0  0.2933101505091074  0.2003858249371078  0.8468648673758568  1.0000
  H   H42       1.0  0.20668951784552556  0.799612283357277  0.3468681191062402  1.0000
  H   H43       1.0  0.7067042953284783  0.7003787541764837  0.6531286291633763  1.0000
  H   H44       1.0  0.7932947097354203  0.2996204677374976  0.1531295582292032  1.0000
  H   H45       1.0  0.6162677683678481  0.2855387478608193  0.7674478561806097  1.0000
  H   H46       1.0  0.8837278791119801  0.7144638149119729  0.2674534305755571  1.0000
  H   H47       1.0  0.3837634653900892  0.7855272226217878  0.7325465694244429  1.0000
  H   H48       1.0  0.116239560548614  0.2144742265314008  0.2325484275560896  1.0000
  C   C1        1.0  0.0123743760947974  0.9681875643420383  0.9325377432991147  1.0000
  C   C2        1.0  0.4876252922598355  0.0318116575719429  0.43253960143076153  1.0000
  C   C3        1.0  0.9876400697427883  0.468181271667433  0.5674622567008853  1.0000
  C   C4        1.0  0.5123723656573986  0.5318235183445665  0.0674613276350655  1.0000
  C   C5        1.0  0.19405492898519586  0.7012507183254328  0.9167547730756738  1.0000
  C   C6        1.0  0.3059464181614686  0.2987496172081592  0.4167543085427568  1.0000
  C   C7        1.0  0.80595951685239  0.2012399711724129  0.5832442978585064  1.0000
  C   C8        1.0  0.6940428457955861  0.7987625916003793  0.083247085055973  1.0000
  C   C9        1.0  0.9078907328811285  0.86644839105508  0.8827662934918907  1.0000
  C   C10       1.0  0.5921082721827703  0.1335474900000975  0.3827644353602438  1.0000
  C   C11       1.0  0.0921203553723871  0.3664365302824564  0.6172323129093727  1.0000
  C   C12       1.0  0.407889385734464  0.6335582371531174  0.11723324197519253  1.0000
  C   C13       1.0  0.9862936785301957  0.9014138193419895  0.8162572583267506  1.0000
  C   C14       1.0  0.5137170780779527  0.0985753799955731  0.3162549356621938  1.0000
  C   C15       1.0  0.0137039793870386  0.401393049612544  0.6837404190086858  1.0000
  C   C16       1.0  0.486292331383524  0.5986050586818337  0.1837422771403325  1.0000
  C   C17       1.0  0.7833948731011803  0.3511276016035509  0.911339248385751  1.0000
  C   C18       1.0  0.7166091683388275  0.6488805292672524  0.4113438937148716  1.0000
  C   C19       1.0  0.2166061424001242  0.8511171899841159  0.5886598225484293  1.0000
  C   C20       1.0  0.2833968835385789  0.1488853727886692  0.0886621452129859  1.0000
  C   C21       1.0  0.4757646265279476  0.194250894545597  0.8517438565522397  1.0000
  C   C22       1.0  0.024236720618724  0.8057449865095805  0.3517471082826233  1.0000
  C   C23       1.0  0.5242548556857471  0.6942449374045764  0.6482524271844669  1.0000
  C   C24       1.0  0.9757458281701901  0.3057587389878194  0.14825428531611354  1.0000
  C   C25       1.0  0.589796575549677  0.3204095184814975  0.8159594927300589  1.0000
  C   C26       1.0  0.9101940355540492  0.6795885898128802  0.3159641380591793  1.0000
  C   C27       1.0  0.41021283391180674  0.8204057885796842  0.6840367910066405  1.0000
  C   C28       1.0  0.08978011927468542  0.1795978878127116  0.1840386491382944  1.0000
  C   C29       1.0  0.4574490054189724  0.46747300960008425  0.8135174432108485  1.0000
  C   C30       1.0  0.04254059018344951  0.5325217578354895  0.31352069494123924  1.0000
  C   C31       1.0  0.542552010082332  0.967472620557075  0.6864802341245878  1.0000
  C   C32       1.0  0.9574369222293555  0.0325310558353138  0.18648255678915152  1.0000
  S   S1        1.0  0.2668490304431472  0.8748818323066487  0.9588066149486707  1.0000
  S   S2        1.0  0.2331506379114856  0.1251207304661435  0.4588066149486707  1.0000
  S   S3        1.0  0.7331603790183294  0.37487331239283606  0.5411933850513294  1.0000
  S   S4        1.0  0.7668486987977801  0.6251314776191634  0.0411947786500662  1.0000
  S   S5        1.0  0.558775856314881  0.21701105198645368  0.9325818739257699  1.0000
  S   S6        1.0  0.9412298639171652  0.7829959652647531  0.43258651925489033  1.0000
  S   S7        1.0  0.4412301955625324  0.7170006403670186  0.5674134807451098  1.0000
  S   S8        1.0  0.0587745091682095  0.2830041496449809  0.06741533887675641  1.0000
  N   N1        1.0  0.960028977132403  0.7103846263071246  0.897829237701494  1.0000
  N   N2        1.0  0.5399683491394569  0.2896134819872529  0.3978259859711031  1.0000
  N   N3        1.0  0.0399821111211125  0.2103772200129157  0.6021698332326864  1.0000
  N   N4        1.0  0.4600192360255591  0.789620888281469  0.10217401402889692  1.0000
  N   N5        1.0  0.8101061331804547  0.3491910171143857  0.8442003065917234  1.0000
  N   N6        1.0  0.689889514299381  0.65081043203881  0.3442058809866708  1.0000
  N   N7        1.0  0.189904955073068  0.849179491875347  0.6557978352766298  1.0000
  N   N8        1.0  0.3100913556974946  0.1508186164190306  0.15579969340827662  1.0000
  O   O1        1.0  0.0202512683260849  0.7917033569385978  0.7803405026246112  1.0000
  O   O2        1.0  0.4797534364046571  0.2082891832577687  0.2803381799600473  1.0000
  O   O3        1.0  0.97973799563097  0.2916926097855779  0.7196567101779152  1.0000
  O   O4        1.0  0.5202710821851397  0.7082943623127775  0.2196553165791784  1.0000
  O   O5        1.0  0.0068578654656406  0.0366035627225472  0.7998773633111897  1.0000
  O   O6        1.0  0.4931669847695234  0.963386750234612  0.2998745761137159  1.0000
  O   O7        1.0  0.9931246833232665  0.5365898102443083  0.7001193849584268  1.0000
  O   O8        1.0  0.5068457822760237  0.4633982754736508  0.2001184558925999  1.0000
  O   O9        1.0  0.5700925934272192  0.5862605853854319  0.8038333255911213  1.0000
  O   O10       1.0  0.929898017676507  0.4137319548109346  0.3038370418544147  1.0000
  O   O11       1.0  0.42990338569797615  0.0862576335696374  0.6961662098759689  1.0000
  O   O12       1.0  0.0700744583601889  0.9137482700619657  0.19617039067217956  1.0000
  O   O13       1.0  0.2470695026790821  0.460458319722413  0.8199233520694948  1.0000
  O   O14       1.0  0.2529217717153713  0.5395386749523681  0.3199214939378479  1.0000
  O   O15       1.0  0.7529298340301835  0.9604679532558292  0.6800798996608891  1.0000
  O   O16       1.0  0.747049025529293  0.0395435184737849  0.18007804152924226  1.0000
