data_image0
_chemical_formula_structural       Co2H32C40N8O10
_chemical_formula_sum              "Co2 H32 C40 N8 O10"
_cell_length_a       8.62811572309501
_cell_length_b       9.726764074233493
_cell_length_c       12.350278866767116
_cell_angle_alpha    70.77785755096973
_cell_angle_beta     87.8167742722475
_cell_angle_gamma    78.62442349280857

_space_group_name_H-M_alt    "P 1"
_space_group_IT_number       1

loop_
  _space_group_symop_operation_xyz
  'x, y, z'

loop_
  _atom_site_type_symbol
  _atom_site_label
  _atom_site_symmetry_multiplicity
  _atom_site_fract_x
  _atom_site_fract_y
  _atom_site_fract_z
  _atom_site_occupancy
  Co  Co1       1.0  0.9392284655400828  0.6194121039713423  0.273033134272879  1.0000
  Co  Co2       1.0  0.06077119867305925  0.380585772048569  0.7269677959986041  1.0000
  H   H1        1.0  0.2517371470483525  0.7580953560619507  0.225143258984538  1.0000
  H   H2        1.0  0.748264465581137  0.24190475758503988  0.7748522079174692  1.0000
  H   H3        1.0  0.9160040460831027  0.7568598264331854  0.988547437729629  1.0000
  H   H4        1.0  0.0839932948917479  0.2431380676580233  0.011453531887511323  1.0000
  H   H5        1.0  0.13838601854428834  0.9190066527525717  0.8677045995723986  1.0000
  H   H6        1.0  0.8616055653058153  0.08099682857162088  0.1322950607198621  1.0000
  H   H7        1.0  0.4823299741571034  0.8050161481213749  0.1868094446498533  1.0000
  H   H8        1.0  0.5176670545396718  0.1949895495999954  0.8131838817848944  1.0000
  H   H9        1.0  0.2933857393298638  0.0703798233739548  0.846157102225007  1.0000
  H   H10       1.0  0.7066140221458143  0.9296236182088433  0.15383917447923082  1.0000
  H   H11       1.0  0.22672000362506856  0.38628912237885527  0.4351184118207884  1.0000
  H   H12       1.0  0.7732796142965341  0.6137087301329133  0.5648857643289349  1.0000
  H   H13       1.0  0.9820646286229362  0.36009050090736133  0.15582838764024848  1.0000
  H   H14       1.0  0.0179352230011816  0.6399062472633618  0.8441752546431475  1.0000
  H   H15       1.0  0.21624999337727493  0.10682968739664739  0.2348236972163704  1.0000
  H   H16       1.0  0.7837535883796888  0.8931659352031293  0.7651785407126612  1.0000
  H   H17       1.0  0.3729786244293578  0.21994843905208228  0.5540377317475205  1.0000
  H   H18       1.0  0.6270261467719751  0.7800527048127108  0.4459647017587901  1.0000
  H   H19       1.0  0.4265530312819123  0.9705996557341197  0.31790753595819154  1.0000
  H   H20       1.0  0.5734486877483606  0.029399288924423703  0.6820963232426323  1.0000
  H   H21       1.0  0.18853553327087275  0.7582163633773434  0.543308891348147  1.0000
  H   H22       1.0  0.8114641656609294  0.24178153027367708  0.4566896045146649  1.0000
  H   H23       1.0  0.7929529074545627  0.07385744799226758  0.34606182329248725  1.0000
  H   H24       1.0  0.20704680305012607  0.9261404515357935  0.6539358611007631  1.0000
  H   H25       1.0  0.4076582858304647  0.40444731392078376  0.19878517503472898  1.0000
  H   H26       1.0  0.5923409503757568  0.595558306958921  0.8012162267499435  1.0000
  H   H27       1.0  0.7325980035170686  0.6220740047519656  0.9653122547689396  1.0000
  H   H28       1.0  0.26740445601885915  0.3779271630611661  0.034689406613473715  1.0000
  H   H29       1.0  0.7119215129704557  0.5090764059054963  0.3772378661125232  1.0000
  H   H30       1.0  0.2880753490264781  0.490923690990762  0.6227649827068191  1.0000
  H   H31       1.0  0.8472809051862243  0.45118846302612775  0.47925013799894606  1.0000
  H   H32       1.0  0.15271925425717817  0.548812734612369  0.5207499397900008  1.0000
  C   C1        1.0  0.19092583494395396  0.7785660696527473  0.14460815733386315  1.0000
  C   C2        1.0  0.8090769277318017  0.22143402908156426  0.8553881013648734  1.0000
  C   C3        1.0  0.020725766638086902  0.7808787151078321  0.018477441407817787  1.0000
  C   C4        1.0  0.9792732659048227  0.21912250919742599  0.9815202216452763  1.0000
  C   C5        1.0  0.1295394682549826  0.8603172143015028  0.958352585279606  1.0000
  C   C6        1.0  0.8704569957742337  0.1396851265390566  0.041646462455027206  1.0000
  C   C7        1.0  0.3705037527100359  0.9291329557681253  0.01924743580303103  1.0000
  C   C8        1.0  0.6294932018699767  0.07086718814442611  0.9807489212598386  1.0000
  C   C9        1.0  0.48709479062806343  0.8924806002526963  0.1053161828213264  1.0000
  C   C10       1.0  0.5129003359439109  0.10752288334973771  0.8946793611046645  1.0000
  C   C11       1.0  0.38412641456406493  0.037070674596591906  0.9135736296213256  1.0000
  C   C12       1.0  0.6158687120079094  0.9629328090058425  0.0864219143046654  1.0000
  C   C13       1.0  0.19188554923283616  0.34666339877136915  0.36895347259203254  1.0000
  C   C14       1.0  0.808110595404209  0.6533344867243756  0.6310499511066043  1.0000
  C   C15       1.0  0.06921771931259005  0.3274466208603712  0.22508791276821688  1.0000
  C   C16       1.0  0.9307837266170579  0.6725478919615071  0.774917076518385  1.0000
  C   C17       1.0  0.1850604781686371  0.20252546900265866  0.2630247864086428  1.0000
  C   C18       1.0  0.8149412524345152  0.7974734815329255  0.7369782613226267  1.0000
  C   C19       1.0  0.38523178527000823  0.1086716489427104  0.42649642116754904  1.0000
  C   C20       1.0  0.6147680432083433  0.8913250874739378  0.5735088440549633  1.0000
  C   C21       1.0  0.42927559187155845  0.12524270195793724  0.5286710681549351  1.0000
  C   C22       1.0  0.5707284503970058  0.8747562246293157  0.4713327517002384  1.0000
  C   C23       1.0  0.4570600777014633  0.983645052416762  0.3981549419427068  1.0000
  C   C24       1.0  0.5429430713691231  0.016352796496200004  0.6018459293102936  1.0000
  C   C25       1.0  0.9717412988585962  0.8054124419631634  0.3719864866362671  1.0000
  C   C26       1.0  0.0282628244201604  0.19458652576334148  0.6280116529319956  1.0000
  C   C27       1.0  0.9889426067595296  0.9057332031091295  0.43722610769023623  1.0000
  C   C28       1.0  0.011060121197566298  0.09426687799406612  0.5627725854171787  1.0000
  C   C29       1.0  0.1059321373179146  0.8638807667101673  0.5241932434982532  1.0000
  C   C30       1.0  0.8940684779576316  0.13611821636921212  0.47580657802760856  1.0000
  C   C31       1.0  0.8837488268025524  0.0426999580841354  0.4133133623492071  1.0000
  C   C32       1.0  0.11625158948913841  0.9573001469673986  0.5866845586343031  1.0000
  C   C33       1.0  0.6596261047060139  0.531136632941525  0.1911845972078013  1.0000
  C   C34       1.0  0.3403758711725402  0.4688612191300479  0.8088171051875862  1.0000
  C   C35       1.0  0.5783990517392824  0.51456789139543  0.09209481288194611  1.0000
  C   C36       1.0  0.42160226932326594  0.48543329720742173  0.9079052452341687  1.0000
  C   C37       1.0  0.44692515601035154  0.44564295598121356  0.11127679854884327  1.0000
  C   C38       1.0  0.5530750150059376  0.5543582475343242  0.8887224677705493  1.0000
  C   C39       1.0  0.6306245508705004  0.5687222730345453  0.9799786206294742  1.0000
  C   C40       1.0  0.36937559700001543  0.4312789187269175  0.02002226862903466  1.0000
  N   N1        1.0  0.059966405853707334  0.7313336123955735  0.1342058042397768  1.0000
  N   N2        1.0  0.9400375068683076  0.2686664714260445  0.8657912462556895  1.0000
  N   N3        1.0  0.2381979329862957  0.8580450108040127  0.039467893231012914  1.0000
  N   N4        1.0  0.7617978993726808  0.1419606783218939  0.9605278872852381  1.0000
  N   N5        1.0  0.07470975576528358  0.41581334823031574  0.29196370014709316  1.0000
  N   N6        1.0  0.9252898737292057  0.5841845101584866  0.7080396645330681  1.0000
  N   N7        1.0  0.2628978488233784  0.21534092959127807  0.354666135158034  1.0000
  N   N8        1.0  0.7371041039094024  0.7846569107262269  0.6453371901764697  1.0000
  O   O1        1.0  0.06734092214060888  0.6789048209945535  0.393132009364301  1.0000
  O   O2        1.0  0.9326609010456227  0.3210941765573239  0.6068645466105027  1.0000
  O   O3        1.0  0.861977510354059  0.8430469606927532  0.2960775389456814  1.0000
  O   O4        1.0  0.13802876032490732  0.1569531226886838  0.7039170377954633  1.0000
  O   O5        1.0  0.7757343681198777  0.6005983275801441  0.16713237848671986  1.0000
  O   O6        1.0  0.224266941369784  0.39940285514566654  0.8328684910989566  1.0000
  O   O7        1.0  0.6076604486070921  0.47891461473835767  0.29080444426038105  1.0000
  O   O8        1.0  0.3923405993548386  0.5210821420278223  0.7091967439415117  1.0000
  O   O9        1.0  0.7931402314874632  0.5408641899095912  0.41763925837959465  1.0000
  O   O10       1.0  0.20685620939597982  0.45913813917689345  0.582361412294155  1.0000
