data_image0
_chemical_formula_structural       Cd2H16C24N16
_chemical_formula_sum              "Cd2 H16 C24 N16"
_cell_length_a       6.779236407729041
_cell_length_b       10.274406726949705
_cell_length_c       10.906064280189854
_cell_angle_alpha    118.0841069925948
_cell_angle_beta     104.14277013909921
_cell_angle_gamma    89.97868193824706

_space_group_name_H-M_alt    "P 1"
_space_group_IT_number       1

loop_
  _space_group_symop_operation_xyz
  'x, y, z'

loop_
  _atom_site_type_symbol
  _atom_site_label
  _atom_site_symmetry_multiplicity
  _atom_site_fract_x
  _atom_site_fract_y
  _atom_site_fract_z
  _atom_site_occupancy
  Cd  Cd1       1.0  0.7499563547801457  0.5805160423061649  0.9998458706584898  1.0000
  Cd  Cd2       1.0  0.25004273632126944  0.41948512802819954  0.0001579707870363189  1.0000
  H   H1        1.0  0.03193351180751592  0.835172548398454  0.3259808535707904  1.0000
  H   H2        1.0  0.467880343010556  0.5094213448684642  0.673768104512959  1.0000
  H   H3        1.0  0.9680701377626804  0.1648286111955599  0.6740209228148756  1.0000
  H   H4        1.0  0.53212371303151  0.4905820330062767  0.32623287687134445  1.0000
  H   H5        1.0  0.1388679559700563  0.11086689754867511  0.470461882503713  1.0000
  H   H6        1.0  0.3608710631766172  0.6407319794519637  0.5292949007572503  1.0000
  H   H7        1.0  0.8611298044608163  0.8891353528785331  0.5295348978168661  1.0000
  H   H8        1.0  0.639128513213592  0.35926360081593606  0.47070104986647004  1.0000
  H   H9        1.0  0.022918758358045507  0.26864742450421636  0.35378289314116523  1.0000
  H   H10       1.0  0.47703118369661024  0.9151175200437083  0.6460268011733419  1.0000
  H   H11       1.0  0.9770785992051713  0.7313526157991745  0.646216520175173  1.0000
  H   H12       1.0  0.5229678911858144  0.08488361358456589  0.35396876929743826  1.0000
  H   H13       1.0  0.8496805642074675  0.2791108160924908  0.12831987231452047  1.0000
  H   H14       1.0  0.650235366451966  0.1507753194117001  0.8714261967027497  1.0000
  H   H15       1.0  0.1503181096094082  0.7208881114904243  0.8716792501492135  1.0000
  H   H16       1.0  0.3497615792330464  0.8492224903756096  0.128571254623374  1.0000
  C   C1        1.0  0.9829926794985154  0.9069204446187058  0.2788438980235171  1.0000
  C   C2        1.0  0.5168616038748581  0.6282747310877356  0.7209212875380544  1.0000
  C   C3        1.0  0.0170066076303996  0.09308181854220271  0.7211558699325522  1.0000
  C   C4        1.0  0.48313970605354223  0.3717219792111379  0.27907909121485364  1.0000
  C   C5        1.0  0.04180420815463749  0.06178117255173991  0.3596445042617233  1.0000
  C   C6        1.0  0.4580315504701389  0.7023781741220746  0.6400719050488135  1.0000
  C   C7        1.0  0.958198943511988  0.9382255485595652  0.6403587299653922  1.0000
  C   C8        1.0  0.5419714875901249  0.2976196539723973  0.35993014484171226  1.0000
  C   C9        1.0  0.9817583149141459  0.14782639053289162  0.2941644781486161  1.0000
  C   C10       1.0  0.5180233848460674  0.8538409783431292  0.705621242817628  1.0000
  C   C11       1.0  0.018245539694092375  0.8521758822799441  0.7058378197335671  1.0000
  C   C12       1.0  0.4819806820086682  0.14616242400233398  0.2943852525498372  1.0000
  C   C13       1.0  0.8658597494071429  0.07820472760304402  0.1474381110469167  1.0000
  C   C14       1.0  0.6338908822577737  0.9307884520126067  0.852354702012114  1.0000
  C   C15       1.0  0.1341425839093944  0.9217975447114457  0.8525639561913536  1.0000
  C   C16       1.0  0.3661097229269075  0.06921270250627741  0.1476456940885456  1.0000
  C   C17       1.0  0.8103728071719375  0.9212224622611772  0.07478432699133476  1.0000
  C   C18       1.0  0.6896174925198865  0.8463964962737196  0.9250039800214652  1.0000
  C   C19       1.0  0.1896243417490169  0.07877645666649614  0.925212726834104  1.0000
  C   C20       1.0  0.31037793007131137  0.1536013089367998  0.07499232166355797  1.0000
  C   C21       1.0  0.8051649269167028  0.15916276014323932  0.07092067669051264  1.0000
  C   C22       1.0  0.6945980786965363  0.08821263725037912  0.9288629367768094  1.0000
  C   C23       1.0  0.19483394472977983  0.8408372643446783  0.9290752912809523  1.0000
  C   C24       1.0  0.30540058610978355  0.9117862699402721  0.07113159070095784  1.0000
  N   N1        1.0  0.014043990992142607  0.5274392190903043  0.14363586897513866  1.0000
  N   N2        1.0  0.4856465803689857  0.38394071138489494  0.8562618928388587  1.0000
  N   N3        1.0  0.9859583513349435  0.47256307361645616  0.8563707932490985  1.0000
  N   N4        1.0  0.5143542316558509  0.6160615604312626  0.14373994375550583  1.0000
  N   N5        1.0  0.014477064461644299  0.5368090167751021  0.2582687513736844  1.0000
  N   N6        1.0  0.48503989683523946  0.2786083827289545  0.7416489564079995  1.0000
  N   N7        1.0  0.9855250836400559  0.463192187183566  0.7417429033372115  1.0000
  N   N8        1.0  0.5149582334759658  0.7213793805365114  0.2583378297569894  1.0000
  N   N9        1.0  0.014915879268642136  0.5442742857973217  0.36857545147569953  1.0000
  N   N10       1.0  0.4844158639227203  0.17572176218977384  0.6313916407030574  1.0000
  N   N11       1.0  0.9850850223857748  0.45572020214236636  0.6314248032813906  1.0000
  N   N12       1.0  0.5155775466816479  0.8242816203535028  0.3686095641682812  1.0000
  N   N13       1.0  0.8687828873438973  0.8392454211528532  0.14180787460151126  1.0000
  N   N14       1.0  0.6310959594527289  0.697475004328524  0.8579324636359258  1.0000
  N   N15       1.0  0.13121730776467902  0.16075350692840126  0.8581914785061286  1.0000
  N   N16       1.0  0.36890007825261517  0.30252614053843996  0.142065402538627  1.0000
