data_image0
_chemical_formula_structural       Dy2Cu2H44C36I2N10O18
_chemical_formula_sum              "Dy2 Cu2 H44 C36 I2 N10 O18"
_cell_length_a       10.875450205445638
_cell_length_b       11.768051259703281
_cell_length_c       14.509956094771976
_cell_angle_alpha    82.40747333467631
_cell_angle_beta     84.14432362767477
_cell_angle_gamma    68.32519424760305

_space_group_name_H-M_alt    "P 1"
_space_group_IT_number       1

loop_
  _space_group_symop_operation_xyz
  'x, y, z'

loop_
  _atom_site_type_symbol
  _atom_site_label
  _atom_site_symmetry_multiplicity
  _atom_site_fract_x
  _atom_site_fract_y
  _atom_site_fract_z
  _atom_site_occupancy
  Dy  Dy1       1.0  0.9017771957573043  0.875099784532857  0.036705286341188546  1.0000
  Dy  Dy2       1.0  0.098224521654231  0.1249025523513794  0.9632974213816465  1.0000
  Cu  Cu1       1.0  0.5147008044272782  0.49726529842464373  0.41229466852560376  1.0000
  Cu  Cu2       1.0  0.485281432787488  0.502730469501252  0.5877014726059924  1.0000
  H   H1        1.0  0.5546983293095733  0.7061602735012402  0.2936983321745501  1.0000
  H   H2        1.0  0.4452855619579524  0.2938301023955674  0.7063155223410148  1.0000
  H   H3        1.0  0.44510948871496214  0.8537658544522558  0.15962029786922463  1.0000
  H   H4        1.0  0.5549010955974296  0.1462181508249643  0.8403830887121797  1.0000
  H   H5        1.0  0.12955921534922504  0.7090913569507721  0.2035262781910276  1.0000
  H   H6        1.0  0.8704345814746117  0.29090955590206863  0.7964620958459036  1.0000
  H   H7        1.0  0.25556744397665915  0.5628747856474237  0.3333025638443415  1.0000
  H   H8        1.0  0.7444190197913159  0.4371173487820244  0.6666846810239732  1.0000
  H   H9        1.0  0.7930554721299715  0.43441261761461203  0.3394544485505618  1.0000
  H   H10       1.0  0.20692828346312805  0.5656094007555269  0.6605350932497343  1.0000
  H   H11       1.0  0.9384814237390345  0.2952933664228539  0.22155718512887287  1.0000
  H   H12       1.0  0.06150397318140227  0.7047250231225631  0.7784374616946931  1.0000
  H   H13       1.0  0.6579234292013255  0.1129382830562733  0.24606930496641863  1.0000
  H   H14       1.0  0.3420900054536274  0.8870543478579267  0.7539411188028424  1.0000
  H   H15       1.0  0.5209423208803728  0.2619401653784053  0.36158467699920743  1.0000
  H   H16       1.0  0.4790614742819982  0.7380510488444827  0.6384212058924987  1.0000
  H   H17       1.0  0.26866227307643  0.5747614453861587  0.07050286838509827  1.0000
  H   H18       1.0  0.7313515169335432  0.4252403881918669  0.9294864770657865  1.0000
  H   H19       1.0  0.3911236087416796  0.5040082826717978  0.9818786208089418  1.0000
  H   H20       1.0  0.6088818232453975  0.49599784483030634  0.018109553319170878  1.0000
  H   H21       1.0  0.33060223340405065  0.4112504152536546  0.06794651851950559  1.0000
  H   H22       1.0  0.6694130145701465  0.5887524560505142  0.9320467202574105  1.0000
  H   H23       1.0  0.14493833515803098  0.44995384084029405  0.8528511072040458  1.0000
  H   H24       1.0  0.8550675157465761  0.5500513873786232  0.1471392030873632  1.0000
  H   H25       1.0  0.26952831146807205  0.3370743812365262  0.9208465096993091  1.0000
  H   H26       1.0  0.7304855757134308  0.6629293169601524  0.07914123420664511  1.0000
  H   H27       1.0  0.30995601783468624  0.4509829580642022  0.8423332755260017  1.0000
  H   H28       1.0  0.6900502344814754  0.5490279654249761  0.15766323694641218  1.0000
  H   H29       1.0  0.006866667694879429  0.6006356991886435  0.9266188951660578  1.0000
  H   H30       1.0  0.9931375711021032  0.39936302421601516  0.0733860849538317  1.0000
  H   H31       1.0  0.5629382017709615  0.82988825364167  0.9786771061513445  1.0000
  H   H32       1.0  0.4370527183124083  0.17010707002692269  0.021330073806907997  1.0000
  H   H33       1.0  0.492279482199528  0.7790264881704589  0.8929625853040759  1.0000
  H   H34       1.0  0.5077226853726345  0.2209683675539296  0.10703956841633296  1.0000
  H   H35       1.0  0.4417030612935162  0.9388683169627684  0.9047489406790771  1.0000
  H   H36       1.0  0.5582905539126842  0.061127103448384915  0.09525524480841337  1.0000
  H   H37       1.0  0.6824677780004366  0.9294375070050265  0.708166141790052  1.0000
  H   H38       1.0  0.3175361486762753  0.07055560352848288  0.29184157918665926  1.0000
  H   H39       1.0  0.5116164665975943  0.9966061319331914  0.7454209366038069  1.0000
  H   H40       1.0  0.4883829646403797  0.0033885890182787913  0.25458008403144555  1.0000
  H   H41       1.0  0.5766585551331646  0.8439812553396847  0.7106308284779173  1.0000
  H   H42       1.0  0.4233509097978327  0.15600557455495326  0.2893799081333056  1.0000
  H   H43       1.0  0.8239902650103373  0.852406243044378  0.8127264402848906  1.0000
  H   H44       1.0  0.17600283378019554  0.1476164295101796  0.18728912140615248  1.0000
  C   C1        1.0  0.4621738750902439  0.7076203407834  0.2696185845472314  1.0000
  C   C2        1.0  0.5378214442720265  0.2923732837297237  0.7303856647886702  1.0000
  C   C3        1.0  0.399931348166767  0.7906149166188641  0.1961418402631949  1.0000
  C   C4        1.0  0.6000662432894117  0.20937131447022492  0.8038623811517239  1.0000
  C   C5        1.0  0.2786165102594326  0.7922552612327607  0.1701512639697143  1.0000
  C   C6        1.0  0.721382900372852  0.20773944070353417  0.8298476928875825  1.0000
  C   C7        1.0  0.22489715166499022  0.7093461877463199  0.22001021341133506  1.0000
  C   C8        1.0  0.7751003164996462  0.2906549259317117  0.779981964492421  1.0000
  C   C9        1.0  0.2939459202637949  0.6284204877320646  0.2919186285254866  1.0000
  C   C10       1.0  0.7060359704878963  0.3715696356307133  0.7080768138329957  1.0000
  C   C11       1.0  0.20570407564650134  0.8827620457615099  0.09366746769873663  1.0000
  C   C12       1.0  0.7943014209147775  0.11723575567474141  0.9063326884023152  1.0000
  C   C13       1.0  0.7662558663971951  0.36298333738250926  0.31522594731924153  1.0000
  C   C14       1.0  0.2337283805678964  0.637031237858139  0.6847671680345471  1.0000
  C   C15       1.0  0.8461356790800993  0.28580168398521283  0.25081768017442835  1.0000
  C   C16       1.0  0.1538622986475816  0.7142153853699185  0.7491746835783032  1.0000
  C   C17       1.0  0.8060751136444536  0.1963738262250843  0.2223200864401704  1.0000
  C   C18       1.0  0.19392586310355125  0.8036321738441858  0.7776767474111421  1.0000
  C   C19       1.0  0.6889476659244449  0.18470232285981333  0.2641492595472172  1.0000
  C   C20       1.0  0.3110532370148676  0.8152934484945931  0.7358570302660395  1.0000
  C   C21       1.0  0.6138830420157291  0.26589407593480985  0.3274654752711612  1.0000
  C   C22       1.0  0.3861224957569078  0.7341037635317988  0.6725388083858093  1.0000
  C   C23       1.0  0.882946067153739  0.1183374312618355  0.14693276683949816  1.0000
  C   C24       1.0  0.1170480370098375  0.8816739258112349  0.8530695407190121  1.0000
  C   C25       1.0  0.3033472154426775  0.5003737141875604  0.025237909221303305  1.0000
  C   C26       1.0  0.696663370223945  0.4996270636508271  0.9747545840079608  1.0000
  C   C27       1.0  0.23301612224943116  0.4334127091382598  0.8908691669775518  1.0000
  C   C28       1.0  0.7669932753501956  0.5665908299336238  0.10912379702167387  1.0000
  C   C29       1.0  0.07665194213071658  0.5957419694832496  0.97841374501629  1.0000
  C   C30       1.0  0.9233520926974778  0.40426140145709166  0.02158795962839833  1.0000
  C   C31       1.0  0.5260201871104967  0.8513445997530766  0.9086883118127458  1.0000
  C   C32       1.0  0.4739746546169031  0.14865648056633057  0.09131373982163636  1.0000
  C   C33       1.0  0.5983915067211927  0.910762053710627  0.7461178527711139  1.0000
  C   C34       1.0  0.40160991230718673  0.0892346829792459  0.2538889716605155  1.0000
  C   C35       1.0  0.7547376612956143  0.8319962048772211  0.8676108801587501  1.0000
  C   C36       1.0  0.2452576996205593  0.1680124543462824  0.13239783588966247  1.0000
  I   I1        1.0  0.6545481402467815  0.5968494869147777  0.49220378865967246  1.0000
  I   I2        1.0  0.3454312607050909  0.40315266473093203  0.5077870302926255  1.0000
  N   N1        1.0  0.41129228994230976  0.6263160922728376  0.31684175389786146  1.0000
  N   N2        1.0  0.5886956826269769  0.3736687411401149  0.6831599904174579  1.0000
  N   N3        1.0  0.6493253868251897  0.35623784566033834  0.3513877069836154  1.0000
  N   N4        1.0  0.35066992977991873  0.6437641619641852  0.6486107517132209  1.0000
  N   N5        1.0  0.19877865221229027  0.5138335181831479  0.9650451001945155  1.0000
  N   N6        1.0  0.8012261830084668  0.48616140893022225  0.0349513073511858  1.0000
  N   N7        1.0  0.6319476730760133  0.8615970088741277  0.8417119576976544  1.0000
  N   N8        1.0  0.3680477328203722  0.1384050811495001  0.15829544403700163  1.0000
  N   N9        1.0  0.7616907014028199  0.8278691481966903  0.20737535266687954  1.0000
  N   N10       1.0  0.23831996257513313  0.17212331625263033  0.7926304983872966  1.0000
  O   O1        1.0  0.25292486947084575  0.9624340893659564  0.05462832663711482  1.0000
  O   O2        1.0  0.7470802287785787  0.03756463036866361  0.9453717570785967  1.0000
  O   O3        1.0  0.09726405985657033  0.8781927923780446  0.07193383224381479  1.0000
  O   O4        1.0  0.902731741594508  0.1218167624586002  0.9280678512371238  1.0000
  O   O5        1.0  0.9842480726172268  0.1395779213279553  0.10871274494434152  1.0000
  O   O6        1.0  0.01574668702999548  0.8604380796107521  0.8912813907347965  1.0000
  O   O7        1.0  0.839391821298122  0.03972079954411361  0.1255961933851637  1.0000
  O   O8        1.0  0.1606081850887905  0.9602833268997556  0.8744057625632704  1.0000
  O   O9        1.0  0.04040920846865958  0.6627995288900266  0.0439799278234503  1.0000
  O   O10       1.0  0.9596083775278715  0.3372043954854221  0.9560143716532818  1.0000
  O   O11       1.0  0.7929263779152084  0.7850789873547795  0.9477051702317494  1.0000
  O   O12       1.0  0.20706692551326003  0.21492581686523948  0.052302095269155295  1.0000
  O   O13       1.0  0.8886565749720461  0.790333551034884  0.19992778210532683  1.0000
  O   O14       1.0  0.11135441486330673  0.20966453896237883  0.8000767039440003  1.0000
  O   O15       1.0  0.7030335213787354  0.8677419986666804  0.12946700927061272  1.0000
  O   O16       1.0  0.2969769973477625  0.13224855679523265  0.8705356278465854  1.0000
  O   O17       1.0  0.6984227657733229  0.8267936662571745  0.2826764983843616  1.0000
  O   O18       1.0  0.3015863430688697  0.1731958958473427  0.7173270608887063  1.0000
