data_image0
_chemical_formula_structural       K2Cu2P2H28C32O12F12
_chemical_formula_sum              "K2 Cu2 P2 H28 C32 O12 F12"
_cell_length_a       8.562925106899502
_cell_length_b       9.325062106419384
_cell_length_c       12.601555105830682
_cell_angle_alpha    91.11634830366266
_cell_angle_beta     72.95143874894123
_cell_angle_gamma    84.15265877601439

_space_group_name_H-M_alt    "P 1"
_space_group_IT_number       1

loop_
  _space_group_symop_operation_xyz
  'x, y, z'

loop_
  _atom_site_type_symbol
  _atom_site_label
  _atom_site_symmetry_multiplicity
  _atom_site_fract_x
  _atom_site_fract_y
  _atom_site_fract_z
  _atom_site_occupancy
  K   K1        1.0  0.6496456671972126  0.08073511527906162  0.6387997075565435  1.0000
  K   K2        1.0  0.3503427602787283  0.919242298504074  0.3611989774658895  1.0000
  Cu  Cu1       1.0  0.2921341477933623  0.22555629251426992  0.8824615027033359  1.0000
  Cu  Cu2       1.0  0.7078666833962899  0.7744459993259983  0.11753005861381637  1.0000
  P   P1        1.0  0.8550762614277261  0.8814099793499753  0.377913152240147  1.0000
  P   P2        1.0  0.14492060448480262  0.11859587213274381  0.6221030420402158  1.0000
  H   H1        1.0  0.6465796979475799  0.649192490232274  0.5278947962999894  1.0000
  H   H2        1.0  0.3534188054617004  0.3508000357753859  0.47209559028097897  1.0000
  H   H3        1.0  0.4222205096592332  0.8369983694943604  0.6267072473792367  1.0000
  H   H4        1.0  0.577770639081386  0.16299401791025053  0.3732790727822675  1.0000
  H   H5        1.0  0.20428031749890604  0.777181273091415  0.7939101086529519  1.0000
  H   H6        1.0  0.7957068722608938  0.22281324452987414  0.2060770262701012  1.0000
  H   H7        1.0  0.08545051064803028  0.6177700463726978  0.922931772053623  1.0000
  H   H8        1.0  0.9145507394398464  0.3822289374380362  0.0770549227698965  1.0000
  H   H9        1.0  0.7763516115029033  0.4437603436085596  0.42649351979248  1.0000
  H   H10       1.0  0.22364720610980274  0.5562214845669193  0.5735038809941102  1.0000
  H   H11       1.0  0.9001978641866374  0.3113619209762534  0.47794895001079135  1.0000
  H   H12       1.0  0.09980447446060477  0.688621038333608  0.5220493316454266  1.0000
  H   H13       1.0  0.8690226694402838  0.49599748633229285  0.5297220350022868  1.0000
  H   H14       1.0  0.13099184601730937  0.5039940836555276  0.4702651025674242  1.0000
  H   H15       1.0  0.6687560893007287  0.6181748055054188  0.9107756219868577  1.0000
  H   H16       1.0  0.3312456003573203  0.3818309438857313  0.08923007131295439  1.0000
  H   H17       1.0  0.42930002628900604  0.5836593849451435  0.0720465487595803  1.0000
  H   H18       1.0  0.5706971220471856  0.41635284702066155  0.9279624843818864  1.0000
  H   H19       1.0  0.18767760033419018  0.7713534751534399  0.1282645197005792  1.0000
  H   H20       1.0  0.8123242273527609  0.2286597457276757  0.871734841909273  1.0000
  H   H21       1.0  0.05946342681158258  0.9905757909707377  0.1134507255355004  1.0000
  H   H22       1.0  0.9405325282503867  0.009426474595315402  0.8865426168904733  1.0000
  H   H23       1.0  0.8849132581376438  0.7192666431891155  0.8191222769189962  1.0000
  H   H24       1.0  0.11508146403974001  0.28074560481361743  0.18088962856591442  1.0000
  H   H25       1.0  0.9233989156459188  0.7905140848638726  0.6839085916778841  1.0000
  H   H26       1.0  0.0766101477288501  0.20949184980880636  0.31610433890383394  1.0000
  H   H27       1.0  0.798088033631636  0.6446768838377326  0.7189672586358711  1.0000
  H   H28       1.0  0.20192892865671302  0.35532474372310235  0.2810408715603074  1.0000
  C   C1        1.0  0.430326785865752  0.44077334549765396  0.7300251754285298  1.0000
  C   C2        1.0  0.5696768031303562  0.5592268533184351  0.2699689890878289  1.0000
  C   C3        1.0  0.5559572967967695  0.48125929009771823  0.6355952311861371  1.0000
  C   C4        1.0  0.4440452354197292  0.5187398549039842  0.3644015218420335  1.0000
  C   C5        1.0  0.5515898138463199  0.6211263885066816  0.6005006995960614  1.0000
  C   C6        1.0  0.4484132721391277  0.3788683341193676  0.39948877205832634  1.0000
  C   C7        1.0  0.4241668824343208  0.7286616492858331  0.6570123383500358  1.0000
  C   C8        1.0  0.5758260974418548  0.2713264652644655  0.3429759659267261  1.0000
  C   C9        1.0  0.3028769406266889  0.6953581212429969  0.7487708809819295  1.0000
  C   C10       1.0  0.6971171515694436  0.3046397613235641  0.2512196378449331  1.0000
  C   C11       1.0  0.303711164811574  0.5523411909914985  0.7867182780941278  1.0000
  C   C12       1.0  0.6962833558068127  0.44765340688476857  0.2132689596703301  1.0000
  C   C13       1.0  0.17638907314883304  0.5255797750095044  0.8827697487165338  1.0000
  C   C14       1.0  0.8236071659406292  0.47442029687314174  0.11722114209597118  1.0000
  C   C15       1.0  0.8129747260810234  0.40906176292921276  0.49943311321554523  1.0000
  C   C16       1.0  0.18702868363187258  0.5909222852038811  0.5005649580756923  1.0000
  C   C17       1.0  0.428890142817295  0.9349566203816057  0.9038076100930965  1.0000
  C   C18       1.0  0.5711076243321643  0.06504132565167713  0.09618454558569306  1.0000
  C   C19       1.0  0.5657987728801573  0.8232538196946424  0.8739281418819685  1.0000
  C   C20       1.0  0.43420225508642574  0.17674750950450868  0.1260713098579771  1.0000
  C   C21       1.0  0.5633772695368009  0.7004915541069893  0.9339697570019183  1.0000
  C   C22       1.0  0.436625183349328  0.2995174194427221  0.06603421396832941  1.0000
  C   C23       1.0  0.42597043387890204  0.6800093937109114  0.025308000617364677  1.0000
  C   C24       1.0  0.5740325029698281  0.32000500935037485  0.9746974923523908  1.0000
  C   C25       1.0  0.2931780508244799  0.7836320875598519  0.05668176300202531  1.0000
  C   C26       1.0  0.7068169029982344  0.21637783839369726  0.9433189709976871  1.0000
  C   C27       1.0  0.2928328259877945  0.9125707800391043  0.9980018507742726  1.0000
  C   C28       1.0  0.7071637669555599  0.08743584737086252  0.0019937696335077387  1.0000
  C   C29       1.0  0.15632442572968594  0.018948182807726307  0.04016239448379368  1.0000
  C   C30       1.0  0.8436719910886411  0.9810508797553442  0.9598332158890628  1.0000
  C   C31       1.0  0.8331855969103258  0.7436559981961255  0.7504686348105236  1.0000
  C   C32       1.0  0.16681841260788838  0.25635091952192124  0.24954135731967142  1.0000
  O   O1        1.0  0.44062461970228384  0.3072760105996154  0.7582477767140218  1.0000
  O   O2        1.0  0.5593814430727804  0.6927242888757024  0.2417514426150049  1.0000
  O   O3        1.0  0.6751146011445784  0.371196372278007  0.5861327161392254  1.0000
  O   O4        1.0  0.32489634412402785  0.6287953909746594  0.41387022432201787  1.0000
  O   O5        1.0  0.15354169951557137  0.4069201229835785  0.9292767043298865  1.0000
  O   O6        1.0  0.846460175771476  0.5930746134957448  0.07071459985403543  1.0000
  O   O7        1.0  0.43758550127083146  0.04765404777523941  0.8442552086162676  1.0000
  O   O8        1.0  0.562412256354598  0.9523438749188109  0.15573536163130092  1.0000
  O   O9        1.0  0.6938528914683176  0.8518744805499952  0.7855876393386296  1.0000
  O   O10       1.0  0.30614965979624753  0.14812471113017273  0.21441228455199016  1.0000
  O   O11       1.0  0.1332280917340256  0.14349454724582242  0.004892029619476499  1.0000
  O   O12       1.0  0.8667686551281121  0.8565110124964905  0.9951043467706027  1.0000
  F   F1        1.0  0.8552151468961995  0.05295336615532162  0.41056618163393915  1.0000
  F   F2        1.0  0.14478572561730368  0.9470504718068826  0.5894571250409939  1.0000
  F   F3        1.0  0.8531799359504717  0.9226068300741308  0.2528138059130853  1.0000
  F   F4        1.0  0.14682366419355472  0.07740341901268272  0.7472026381419566  1.0000
  F   F5        1.0  0.853904834572944  0.7116772067904338  0.34732322049561765  1.0000
  F   F6        1.0  0.14609643618688034  0.28833185063025024  0.6526873392978201  1.0000
  F   F7        1.0  0.8545118954709139  0.8432292552229941  0.5048655736956248  1.0000
  F   F8        1.0  0.14548142243882012  0.15676682094117217  0.4951496929468603  1.0000
  F   F9        1.0  0.056684208357616166  0.8619406539366783  0.33697162929179564  1.0000
  F   F10       1.0  0.9433149678910554  0.13806634253370487  0.6630472783877295  1.0000
  F   F11       1.0  0.6518407338942609  0.9038910910086174  0.4208737114635354  1.0000
  F   F12       1.0  0.34815825986353127  0.09611690311172792  0.5791396839400206  1.0000
