data_image0
_chemical_formula_structural       Zn8H56C64Br4O26
_chemical_formula_sum              "Zn8 H56 C64 Br4 O26"
_cell_length_a       17.967305093537096
_cell_length_b       18.49462454958884
_cell_length_c       20.39630527859331
_cell_angle_alpha    60.98395025365635
_cell_angle_beta     62.71455019495249
_cell_angle_gamma    89.908441931124

_space_group_name_H-M_alt    "P 1"
_space_group_IT_number       1

loop_
  _space_group_symop_operation_xyz
  'x, y, z'

loop_
  _atom_site_type_symbol
  _atom_site_label
  _atom_site_symmetry_multiplicity
  _atom_site_fract_x
  _atom_site_fract_y
  _atom_site_fract_z
  _atom_site_occupancy
  Zn  Zn1       1.0  0.13071026862001386  0.5437862291705287  0.9237756608361921  1.0000
  Zn  Zn2       1.0  0.9603196137219999  0.5489235698811683  0.06844311943988399  1.0000
  Zn  Zn3       1.0  0.9682067732292268  0.37906859908508755  0.062199579451494534  1.0000
  Zn  Zn4       1.0  0.9559045601604198  0.544000524881227  0.9128736684970705  1.0000
  Zn  Zn5       1.0  0.3768569964678292  0.969222420794992  0.0620719329363553  1.0000
  Zn  Zn6       1.0  0.5444074536434798  0.12918166406314685  0.9192634719666587  1.0000
  Zn  Zn7       1.0  0.5402673092501118  0.9595397681847051  0.9144188551824115  1.0000
  Zn  Zn8       1.0  0.5541514158466613  0.9610252010648567  0.06758555012243761  1.0000
  H   H1        1.0  0.4291082376828328  0.8230071008333797  0.3479144530575056  1.0000
  H   H2        1.0  0.20380003067672445  0.8376863895116246  0.32299819053121587  1.0000
  H   H3        1.0  0.08586759011915031  0.68357369127272  0.635561384104463  1.0000
  H   H4        1.0  0.31089103443425603  0.6705137694968073  0.6608305950531702  1.0000
  H   H5        1.0  0.6774798276957983  0.08503303821309774  0.6388900762274973  1.0000
  H   H6        1.0  0.6668133428212714  0.3084357299885739  0.6548695370897805  1.0000
  H   H7        1.0  0.8219964306288716  0.42296291091744825  0.34366989295870815  1.0000
  H   H8        1.0  0.8331708860682241  0.19962881310863173  0.3276357370451777  1.0000
  H   H9        1.0  0.21706380243650608  0.3153968764153845  0.884241939130334  1.0000
  H   H10       1.0  0.1313293986953068  0.2281860608560323  0.9868706587843407  1.0000
  H   H11       1.0  0.22369931682531782  0.13913803662117627  0.9812406848390085  1.0000
  H   H12       1.0  0.3097354736980264  0.22775066428008026  0.8803933613462507  1.0000
  H   H13       1.0  0.19968625689896405  0.10883143166890362  0.12493798275743731  1.0000
  H   H14       1.0  0.2710073410799154  0.17262252022104016  0.1265221770072813  1.0000
  H   H15       1.0  0.11049569333111008  0.2011724784021993  0.12850219327852846  1.0000
  H   H16       1.0  0.1844081436152081  0.26621517820494495  0.1264621650471298  1.0000
  H   H17       1.0  0.3225316885344967  0.41085426163970606  0.880918367417735  1.0000
  H   H18       1.0  0.3079237242157262  0.392305545498843  0.9796246806881328  1.0000
  H   H19       1.0  0.39648918899020913  0.2994883498473939  0.981361201547337  1.0000
  H   H20       1.0  0.41348020550097425  0.32050864032082427  0.8810923780976411  1.0000
  H   H21       1.0  0.9086326245168196  0.816860585441589  0.8760618742506666  1.0000
  H   H22       1.0  0.8877751252302416  0.7912585643775571  0.9797521748215844  1.0000
  H   H23       1.0  0.7988418252186946  0.8836475619831533  0.9791217287073056  1.0000
  H   H24       1.0  0.8191085057255236  0.9076732438133066  0.8760987557158231  1.0000
  H   H25       1.0  0.6732465374861647  0.7587109302313949  0.11948351701838081  1.0000
  H   H26       1.0  0.6026527693644468  0.6949763516227421  0.1173001680110701  1.0000
  H   H27       1.0  0.7613281828540224  0.6653607360987691  0.11949906238459111  1.0000
  H   H28       1.0  0.6913541189733721  0.6033026465455226  0.1152415280178261  1.0000
  H   H29       1.0  0.8098410841474716  0.7270420373274717  0.8687927283371268  1.0000
  H   H30       1.0  0.7217014245432124  0.6390618827416148  0.965776385812376  1.0000
  H   H31       1.0  0.6309937607848823  0.7295723984822119  0.9684166362416208  1.0000
  H   H32       1.0  0.7188689916160057  0.817205096803093  0.870582135693404  1.0000
  H   H33       1.0  0.17707629063311717  0.8103441331486468  0.917375046011273  1.0000
  H   H34       1.0  0.26793913362422456  0.780277001276936  0.8633392144838867  1.0000
  H   H35       1.0  0.3583371681947654  0.8751358997148913  0.8591443648040668  1.0000
  H   H36       1.0  0.2669144388811375  0.903943445908631  0.9141212001908344  1.0000
  H   H37       1.0  0.40156801066717657  0.750613459927891  0.9452077426046303  1.0000
  H   H38       1.0  0.3424831523704341  0.6917645320747569  0.06131477409699932  1.0000
  H   H39       1.0  0.3096967374270249  0.6544434867659491  0.9516349288496571  1.0000
  H   H40       1.0  0.24980341639589912  0.597650455834561  0.06768878113462053  1.0000
  H   H41       1.0  0.08934299022163118  0.7266347021068853  0.08484350930252303  1.0000
  H   H42       1.0  0.118785802038289  0.6395188100546252  0.1458848512173745  1.0000
  H   H43       1.0  0.2105483485080342  0.7330134522279936  0.14178059154275502  1.0000
  H   H44       1.0  0.1804910178017991  0.8200442533106909  0.0814104236073092  1.0000
  H   H45       1.0  0.914561476655933  0.281145244662028  0.9059681501785236  1.0000
  H   H46       1.0  0.878717488351768  0.3657400569587781  0.8489597086755296  1.0000
  H   H47       1.0  0.7928695333947642  0.26770761438609  0.8523569278181641  1.0000
  H   H48       1.0  0.825869451372533  0.18288820987240242  0.913047424678915  1.0000
  H   H49       1.0  0.6621843142191819  0.30824269991713743  0.9311499947570853  1.0000
  H   H50       1.0  0.5999549003969235  0.2494154997619021  0.04722479947565011  1.0000
  H   H51       1.0  0.7486514038915428  0.4029998503430079  0.9310746860596313  1.0000
  H   H52       1.0  0.6876024009912954  0.34194524437639023  0.047183647777252716  1.0000
  H   H53       1.0  0.8279522815152305  0.192055971497588  0.07347596182277273  1.0000
  H   H54       1.0  0.7370168793587837  0.21789187591753031  0.13185917527988522  1.0000
  H   H55       1.0  0.6452991090441672  0.12543083084320733  0.1349148129074962  1.0000
  H   H56       1.0  0.7356445131180466  0.0963376589293006  0.08054017722616891  1.0000
  C   C1        1.0  0.13917131395823654  0.6376370892051001  0.003393197689057099  1.0000
  C   C2        1.0  0.8792012181174085  0.3731167135872155  0.2289477751011759  1.0000
  C   C3        1.0  0.14678410810682144  0.3654393535951926  0.9981450806447542  1.0000
  C   C4        1.0  0.8643109026985485  0.36735304618940745  0.9866462577301648  1.0000
  C   C5        1.0  0.13509727026555401  0.624983323308868  0.7551620213719874  1.0000
  C   C6        1.0  0.8624360977296915  0.643300140125767  0.987486397652397  1.0000
  C   C7        1.0  0.36499622772834067  0.1456541962232693  0.9948582184849074  1.0000
  C   C8        1.0  0.6182951656488243  0.1348388073761982  0.7537077869243874  1.0000
  C   C9        1.0  0.359395867452491  0.864001949084205  0.9949806901688096  1.0000
  C   C10       1.0  0.6442645300303128  0.8649457476872945  0.9890324547038459  1.0000
  C   C11       1.0  0.37866122860599216  0.8832896876468156  0.2283871200406651  1.0000
  C   C12       1.0  0.6485728249764475  0.1395641443199268  0.9917858164247306  1.0000
  C   C13       1.0  0.3584280153066999  0.8083995274761764  0.3787389460255142  1.0000
  C   C14       1.0  0.23041874498672849  0.8162459369781419  0.36549970353739525  1.0000
  C   C15       1.0  0.17686399142282735  0.7718277004709222  0.4554016699010291  1.0000
  C   C16       1.0  0.21051236603793902  0.743566218444542  0.5122847435825266  1.0000
  C   C17       1.0  0.15651866582341975  0.6983615298421744  0.6048256142072148  1.0000
  C   C18       1.0  0.2842742202243968  0.6913501720927258  0.6183541127382669  1.0000
  C   C19       1.0  0.3379140152052713  0.7351038955757546  0.5284360499142693  1.0000
  C   C20       1.0  0.3044519065871114  0.7632174982798717  0.471357416734918  1.0000
  C   C21       1.0  0.32226258915584083  0.834570727096903  0.326739752895854  1.0000
  C   C22       1.0  0.19244718606088176  0.6727518309983797  0.656988154286438  1.0000
  C   C23       1.0  0.6934196350624685  0.15487164004363044  0.6058133665029504  1.0000
  C   C24       1.0  0.6876900770091794  0.28177517724670764  0.6141834769686412  1.0000
  C   C25       1.0  0.7331904487451979  0.3342323381397563  0.5239579113410286  1.0000
  C   C26       1.0  0.7607905041008891  0.3004215817799506  0.46948368579914057  1.0000
  C   C27       1.0  0.8063414373091222  0.3531334189673103  0.37675177440258534  1.0000
  C   C28       1.0  0.8123156301996843  0.2262379735828263  0.36836998643279634  1.0000
  C   C29       1.0  0.7679487368524885  0.173825149315654  0.4585621961662768  1.0000
  C   C30       1.0  0.7399185154372677  0.20763789987737627  0.5130391887726945  1.0000
  C   C31       1.0  0.667545538771698  0.1910741545422639  0.6554154120478871  1.0000
  C   C32       1.0  0.8312936654182436  0.3168995926786664  0.32720691805370455  1.0000
  C   C33       1.0  0.19976492137715932  0.2649185646699266  0.951302852576383  1.0000
  C   C34       1.0  0.2606998706417656  0.20576235693006592  0.9487632402527737  1.0000
  C   C35       1.0  0.30805178248860443  0.20652163984723887  0.9956108120309396  1.0000
  C   C36       1.0  0.23824953143182634  0.17505404641512004  0.09155304142251453  1.0000
  C   C37       1.0  0.1794762058929322  0.23633816306864477  0.09273083766876772  1.0000
  C   C38       1.0  0.2074512044733438  0.30803803732945323  0.9976461835743822  1.0000
  C   C39       1.0  0.30289939613063416  0.35963286778556386  0.9483351408870107  1.0000
  C   C40       1.0  0.36236925826840133  0.29914013181546306  0.9484594510813268  1.0000
  C   C41       1.0  0.856354347176861  0.7936461059768547  0.9437631992188289  1.0000
  C   C42       1.0  0.79687556267082  0.8546023138243939  0.9437939435604721  1.0000
  C   C43       1.0  0.7013601565182198  0.8037619981615549  0.9885791427047936  1.0000
  C   C44       1.0  0.6712567852062038  0.7304174862253063  0.08364242409363239  1.0000
  C   C45       1.0  0.7301760023474486  0.6692516692609373  0.08297172265112351  1.0000
  C   C46       1.0  0.8018482240741635  0.7012324024147818  0.9875340891017714  1.0000
  C   C47       1.0  0.7588177922321078  0.7046970503160569  0.9364881166078619  1.0000
  C   C48       1.0  0.6988228337784791  0.7648345214656799  0.9377005853994477  1.0000
  C   C49       1.0  0.2323430764050656  0.7863515203736997  0.9200338451836814  1.0000
  C   C50       1.0  0.2923480629037698  0.8488659042835139  0.9175199198867361  1.0000
  C   C51       1.0  0.29842005495212476  0.8009802168988925  0.00090318710864781  1.0000
  C   C52       1.0  0.3356706298029479  0.7249565491462776  0.0035223686919607948  1.0000
  C   C53       1.0  0.2746822394640773  0.6620950385243988  0.007268651357215102  1.0000
  C   C54       1.0  0.1965249944836742  0.6958832757999859  0.005590446311195798  1.0000
  C   C55       1.0  0.14572221173089872  0.7038487666707668  0.0850838595994503  1.0000
  C   C56       1.0  0.20626887702531604  0.7658611612640416  0.08252989572823571  1.0000
  C   C57       1.0  0.856115829755083  0.3009381416455952  0.9081774033754757  1.0000
  C   C58       1.0  0.7978264083430133  0.23629563591575242  0.9111758772999536  1.0000
  C   C59       1.0  0.7049364412986849  0.19906296796038714  0.9937344230563029  1.0000
  C   C60       1.0  0.6668961263817293  0.27509799848474614  0.9900454295204926  1.0000
  C   C61       1.0  0.7249642360000337  0.3375142189421894  0.9895058255367674  1.0000
  C   C62       1.0  0.8039735704279918  0.30554312887693413  0.9905015594340301  1.0000
  C   C63       1.0  0.7714219361918212  0.21447918890167733  0.0733055647675371  1.0000
  C   C64       1.0  0.7111751161747152  0.15194722752542592  0.07623392848766741  1.0000
  Br  Br1       1.0  0.4609086343076782  0.7582473903024792  0.4803818454385365  1.0000
  Br  Br2       1.0  0.05386668444604931  0.7484979559658456  0.503556823429797  1.0000
  Br  Br3       1.0  0.7441097793000251  0.05225787826913125  0.5106525414898684  1.0000
  Br  Br4       1.0  0.7593268542851347  0.455847768527555  0.47176826739763567  1.0000
  O   O1        1.0  0.0026703313029939465  0.5053804570810955  0.9909239190080472  1.0000
  O   O2        1.0  0.17839932469239966  0.6186171638196715  0.9460062563644485  1.0000
  O   O3        1.0  0.8928747245282767  0.4543346535966677  0.19399741364386366  1.0000
  O   O4        1.0  0.06504177872970021  0.32739847624888085  0.0442945745683829  1.0000
  O   O5        1.0  0.056960455632484794  0.613927908621129  0.05677313264031622  1.0000
  O   O6        1.0  0.18143893143646034  0.4466649298199175  0.9518114810056559  1.0000
  O   O7        1.0  0.9022094236570979  0.3342521688432711  0.18857046213032902  1.0000
  O   O8        1.0  0.8941809325550379  0.33301583626148096  0.03714707866319603  1.0000
  O   O9        1.0  0.05266909351234966  0.6083892361934533  0.7881798480336286  1.0000
  O   O10       1.0  0.8818785545022652  0.44817425316850285  0.9326056994648299  1.0000
  O   O11       1.0  0.17458150865496677  0.6050244379944235  0.797298737748477  1.0000
  O   O12       1.0  0.8888243227132264  0.6247260469332261  0.04076005067808101  1.0000
  O   O13       1.0  0.8830054519254844  0.6188790245224142  0.9342687907017224  1.0000
  O   O14       1.0  0.5047500019134004  0.002989283639635672  0.9917842618995113  1.0000
  O   O15       1.0  0.32587907919995734  0.06599013947086262  0.035816225179999606  1.0000
  O   O16       1.0  0.5944518009342376  0.17360509855937076  0.7942016869207792  1.0000
  O   O17       1.0  0.44034498293949287  0.8880571213872629  0.9365431307772951  1.0000
  O   O18       1.0  0.44723228002928284  0.17822081054519862  0.9533812855848114  1.0000
  O   O19       1.0  0.3251379162657102  0.888940956263696  0.04778917207508471  1.0000
  O   O20       1.0  0.6043809044108813  0.05358994143146151  0.7887402291967192  1.0000
  O   O21       1.0  0.6170201937366784  0.8878207559617409  0.9361302970626539  1.0000
  O   O22       1.0  0.4608672072494501  0.8943262651887666  0.1941670012685108  1.0000
  O   O23       1.0  0.6288853333543045  0.8891896602294764  0.041901471905546814  1.0000
  O   O24       1.0  0.3383115911462369  0.9097619905920383  0.1872498583812572  1.0000
  O   O25       1.0  0.6323347230982179  0.1759173482733446  0.9301548449595601  1.0000
  O   O26       1.0  0.622552105019686  0.05901631820627531  0.0500803413126008  1.0000
