data_image0
_chemical_formula_structural       Zr6H36C52N10O32F4
_chemical_formula_sum              "Zr6 H36 C52 N10 O32 F4"
_cell_length_a       14.774884184018696
_cell_length_b       14.761266423278961
_cell_length_c       14.759535167848394
_cell_angle_alpha    60.34237781739569
_cell_angle_beta     60.09287703707307
_cell_angle_gamma    60.23142913289091

_space_group_name_H-M_alt    "P 1"
_space_group_IT_number       1

loop_
  _space_group_symop_operation_xyz
  'x, y, z'

loop_
  _atom_site_type_symbol
  _atom_site_label
  _atom_site_symmetry_multiplicity
  _atom_site_fract_x
  _atom_site_fract_y
  _atom_site_fract_z
  _atom_site_occupancy
  Zr  Zr1       1.0  0.8793815310527502  0.8849976228341205  0.6180933979271404  1.0000
  Zr  Zr2       1.0  0.12161942709854391  0.11795179994366825  0.3864297196869374  1.0000
  Zr  Zr3       1.0  0.11801080316011789  0.8806121674223775  0.6242836604026111  1.0000
  Zr  Zr4       1.0  0.8824774316253894  0.12240294797841493  0.3811690752998731  1.0000
  Zr  Zr5       1.0  0.11969056570712394  0.8824609561011556  0.38305395283440913  1.0000
  Zr  Zr6       1.0  0.8809438978682564  0.12071833016328522  0.6221049216048941  1.0000
  H   H1        1.0  0.09350829252984748  0.7196239040869299  0.5919839734286968  1.0000
  H   H2        1.0  0.09983594681880696  0.09130421775221718  0.22048950582524898  1.0000
  H   H3        1.0  0.09232116054501921  0.09428314845928294  0.6015584847475636  1.0000
  H   H4        1.0  0.7186563311414033  0.0977936931033128  0.5936962916161975  1.0000
  H   H5        1.0  0.13590938132214342  0.5966736751656684  0.35800715145229844  1.0000
  H   H6        1.0  0.8310367396311021  0.4425627540372832  0.6053985864341414  1.0000
  H   H7        1.0  0.5924380617940128  0.13960098678747093  0.9117114138345456  1.0000
  H   H8        1.0  0.4099557081667837  0.8600017866353653  0.0945647533335008  1.0000
  H   H9        1.0  0.8303134749214464  0.10453362710192243  0.12835239221131908  1.0000
  H   H10       1.0  0.13219083524402442  0.8544301908949096  0.9175457254510274  1.0000
  H   H11       1.0  0.5929782006068932  0.41055700738190387  0.3614754415401862  1.0000
  H   H12       1.0  0.4106179601933845  0.5946357810389101  0.6408010463394264  1.0000
  H   H13       1.0  0.9910354520078781  0.5730730452770841  0.7386033388640602  1.0000
  H   H14       1.0  0.9981541271970755  0.23470961006465524  0.07335661119637396  1.0000
  H   H15       1.0  0.5990471284024252  0.8592384016121384  0.634862141168668  1.0000
  H   H16       1.0  0.40779876772644036  0.1378585959276535  0.36372005811489316  1.0000
  H   H17       1.0  0.1667147006259525  0.3615937702284454  0.31512663512027217  1.0000
  H   H18       1.0  0.2141476629378615  0.46868346804927785  0.26611815673583555  1.0000
  H   H19       1.0  0.7975416795966979  0.6833815602777447  0.6407203124063231  1.0000
  H   H20       1.0  0.7480408154100928  0.5781325035949646  0.6907926370950934  1.0000
  H   H21       1.0  0.363711357523087  0.16357182317224067  0.1640822222380437  1.0000
  H   H22       1.0  0.4741612347193749  0.20777066976594225  0.061050564542988274  1.0000
  H   H23       1.0  0.6582991391973108  0.8180211484520892  0.8602138997740312  1.0000
  H   H24       1.0  0.5575067456928476  0.7642487503862083  0.9709521953471524  1.0000
  H   H25       1.0  0.7969203451223876  0.13952063770052794  0.8859814953810173  1.0000
  H   H26       1.0  0.7464623096511216  0.18875120865432374  0.9918229013944284  1.0000
  H   H27       1.0  0.16628743192870835  0.8160200110675504  0.1615470168229508  1.0000
  H   H28       1.0  0.21447665491820786  0.7659433178970404  0.055167636175177545  1.0000
  H   H29       1.0  0.3591021979467754  0.6582770803430549  0.32025700693736797  1.0000
  H   H30       1.0  0.4684138413196949  0.5550480721536033  0.2676374547843352  1.0000
  H   H31       1.0  0.6615618328263936  0.363570740934712  0.6644139909654783  1.0000
  H   H32       1.0  0.5607907372842432  0.47460101578144537  0.709035656596676  1.0000
  H   H33       1.0  0.3667935804277179  0.8112092055290673  0.6658965485384201  1.0000
  H   H34       1.0  0.4805474098745034  0.7593112766858424  0.705121524459365  1.0000
  H   H35       1.0  0.6584226115974161  0.16755196309554074  0.31549947963276287  1.0000
  H   H36       1.0  0.55569945274771  0.21051608514667203  0.26385263540606724  1.0000
  C   C1        1.0  0.9874957081515701  0.7071642613939416  0.492942511417212  1.0000
  C   C2        1.0  0.3096992442776025  0.9989707295012807  0.20205924122758756  1.0000
  C   C3        1.0  0.9957384536488121  0.31308035731299816  0.49308167857011403  1.0000
  C   C4        1.0  0.6960718699289355  0.9980267146797885  0.8074495903148888  1.0000
  C   C5        1.0  0.9935915961629079  0.7016806440753101  0.8085398533589941  1.0000
  C   C6        1.0  0.6993978697002347  0.0030844689050509703  0.49285878105615677  1.0000
  C   C7        1.0  0.0009670214516645262  0.3071588135633121  0.20157712558844312  1.0000
  C   C8        1.0  0.3080843152402506  0.9930094380830711  0.5052422473312816  1.0000
  C   C9        1.0  0.30649263713418406  0.6978316913094813  0.4989976945372022  1.0000
  C   C10       1.0  0.9852378231609503  0.9915032066856142  0.81983729071532  1.0000
  C   C11       1.0  0.6998118687660622  0.3103821859974613  0.5003384858385047  1.0000
  C   C12       1.0  0.996055472092827  0.9919922879171352  0.20391550511475054  1.0000
  C   C13       1.0  0.9904043374579744  0.42125486508145127  0.4808128265988288  1.0000
  C   C14       1.0  0.9781211629280051  0.6160105334207558  0.4851656145213426  1.0000
  C   C15       1.0  0.0775227559993396  0.4668441899293895  0.40436294006084944  1.0000
  C   C16       1.0  0.8869544068974587  0.5755693792352047  0.5549372028681675  1.0000
  C   C17       1.0  0.06819210569030086  0.5629347742779415  0.4104704037418828  1.0000
  C   C18       1.0  0.8971630717738742  0.4783865031085665  0.5504894422970282  1.0000
  C   C19       1.0  0.40792731976754476  0.0025069248995350972  0.10039868794958551  1.0000
  C   C20       1.0  0.5960819675368825  0.9956185343611352  0.9075327799663242  1.0000
  C   C21       1.0  0.4584877666031557  0.08504709425061921  0.04896832767666136  1.0000
  C   C22       1.0  0.544962993264839  0.9135857145576551  0.9582688617839497  1.0000
  C   C23       1.0  0.5514843668886655  0.07817625028900456  0.9534476987496063  1.0000
  C   C24       1.0  0.4518722726447565  0.9205492546007931  0.05360656440713301  1.0000
  C   C25       1.0  0.9760074054987412  0.9834154545762098  0.928267196923713  1.0000
  C   C26       1.0  0.9891225598100346  0.9792314771816988  0.11458464758025896  1.0000
  C   C27       1.0  0.885392186013817  0.05353949571733795  0.9902361892547517  1.0000
  C   C28       1.0  0.07530535428559647  0.9022964052239076  0.05836078582174068  1.0000
  C   C29       1.0  0.8959049964367054  0.04919600810147517  0.08142469568706208  1.0000
  C   C30       1.0  0.06551825655387936  0.9080085686951304  0.9658888349473359  1.0000
  C   C31       1.0  0.40650477051222805  0.5978881831319074  0.49679078849256103  1.0000
  C   C32       1.0  0.5983983106067541  0.40898279132670007  0.5039035928489852  1.0000
  C   C33       1.0  0.45707614259363516  0.5459019043468629  0.4152566909554097  1.0000
  C   C34       1.0  0.5469785286311079  0.460005592244478  0.5863907469785161  1.0000
  C   C35       1.0  0.5520913319391028  0.45262485959463566  0.4220983558286662  1.0000
  C   C36       1.0  0.4522808436527796  0.5534605281566839  0.5792960933443541  1.0000
  C   C37       1.0  0.994557756635736  0.5992227928562953  0.9081219864296629  1.0000
  C   C38       1.0  0.9945662628615891  0.5027336252201025  0.9074144494513875  1.0000
  C   C39       1.0  0.9996470443179251  0.5961005498166895  0.00044341155505377985  1.0000
  C   C40       1.0  0.9959902677685547  0.4999775640675137  0.8118250492410795  1.0000
  C   C41       1.0  0.0019674827585445804  0.40444488869862044  0.8116728177092085  1.0000
  C   C42       1.0  0.0004186045305658655  0.4063060198602527  0.09856914617689942  1.0000
  C   C43       1.0  0.002728501104563421  0.5003978281431856  0.09471315818879598  1.0000
  C   C44       1.0  0.9972091669647583  0.4052107025322159  0.0037746162083823133  1.0000
  C   C45       1.0  0.0003547535156372063  0.3088195963779512  0.0009417675944263345  1.0000
  C   C46       1.0  0.004023615373164053  0.3089662671767639  0.9062343537437486  1.0000
  C   C47       1.0  0.40878622675852194  0.9918219303244487  0.5051011555530279  1.0000
  C   C48       1.0  0.5995038361624836  0.003715792743548558  0.4920647715728349  1.0000
  C   C49       1.0  0.46204477369210645  0.9099487874675348  0.5849192478890188  1.0000
  C   C50       1.0  0.5464218155071733  0.08554609860086516  0.41204297351100655  1.0000
  C   C51       1.0  0.5563065898445598  0.9194996250947441  0.5751704242008274  1.0000
  C   C52       1.0  0.45191495031728107  0.07631680972593809  0.42204396929094656  1.0000
  N   N1        1.0  0.17191857084159065  0.41801143956127623  0.33096215314782285  1.0000
  N   N2        1.0  0.7903749369150572  0.6281855965477448  0.6246371702626234  1.0000
  N   N3        1.0  0.4189279700140958  0.17160620708148852  0.086088591177088  1.0000
  N   N4        1.0  0.5806086459992057  0.8315863609312827  0.916210205810984  1.0000
  N   N5        1.0  0.7890645137046022  0.12298973943218539  0.9646425601657995  1.0000
  N   N6        1.0  0.1691145781032829  0.8290247656353388  0.08615577525833373  1.0000
  N   N7        1.0  0.41506861951049956  0.5808529070502004  0.33384883252007586  1.0000
  N   N8        1.0  0.5840485586225198  0.41972353175663785  0.673050500259933  1.0000
  N   N9        1.0  0.42384027151172865  0.8256094618102596  0.6716078552999393  1.0000
  N   N10       1.0  0.5813545539118506  0.17348398321780675  0.32970153175235595  1.0000
  O   O1        1.0  0.9150869515176434  0.7436077165263131  0.5747103092294241  1.0000
  O   O2        1.0  0.26853996070709485  0.07460905321204338  0.2452479757181152  1.0000
  O   O3        1.0  0.07675509296031884  0.2656093775210948  0.42206926785397764  1.0000
  O   O4        1.0  0.7382598480235883  0.9218639151411877  0.7646124592813451  1.0000
  O   O5        1.0  0.0721265352212655  0.7381099578338136  0.769862666088379  1.0000
  O   O6        1.0  0.7410988550920762  0.07974758710050604  0.4170850051071683  1.0000
  O   O7        1.0  0.9233090032534434  0.26876599585487787  0.24090609600872195  1.0000
  O   O8        1.0  0.265389537191808  0.9173331726200827  0.5821787996666787  1.0000
  O   O9        1.0  0.2645657960929667  0.739735174127169  0.42241963038105007  1.0000
  O   O10       1.0  0.913536071965467  0.07299760547397206  0.7741798080124127  1.0000
  O   O11       1.0  0.7413671008934696  0.26837731363815454  0.5770932158170157  1.0000
  O   O12       1.0  0.07636087683234617  0.9206701341455316  0.2416350515745195  1.0000
  O   O13       1.0  0.06606374927696365  0.9198118350095116  0.7747992901883904  1.0000
  O   O14       1.0  0.740616885089281  0.2708731288464391  0.4227347254052632  1.0000
  O   O15       1.0  0.924322315255999  0.07452167600588674  0.23784765585151046  1.0000
  O   O16       1.0  0.2656641344874089  0.7372488039686971  0.5767143763723723  1.0000
  O   O17       1.0  0.9165945841498059  0.7411723763750683  0.7697510895634708  1.0000
  O   O18       1.0  0.26721759834651226  0.0700100597572656  0.4294512985182237  1.0000
  O   O19       1.0  0.07816014063087809  0.2688488443813739  0.23921688005839306  1.0000
  O   O20       1.0  0.7391966872175573  0.9270876481767089  0.5696553408751229  1.0000
  O   O21       1.0  0.7354388641701987  0.07526643081100544  0.7676173916711023  1.0000
  O   O22       1.0  0.06866250181889202  0.7424001087536638  0.42176143233013613  1.0000
  O   O23       1.0  0.26913872676601613  0.9224863515635136  0.24179223866350721  1.0000
  O   O24       1.0  0.9221398188805238  0.2705781762379615  0.573909227907862  1.0000
  O   O25       1.0  0.7989185601481166  0.07081347100066165  0.5670062091563536  1.0000
  O   O26       1.0  0.06669242336228351  0.06724646869599125  0.5736148643958003  1.0000
  O   O27       1.0  0.06975839214729256  0.06871953341184417  0.3005959227631437  1.0000
  O   O28       1.0  0.06538429204356092  0.7996199835229019  0.56947668771506  1.0000
  O   O29       1.0  0.14856505581328605  0.9503124057682867  0.4554828614188295  1.0000
  O   O30       1.0  0.9508043446158324  0.9535481132807461  0.4502409862928405  1.0000
  O   O31       1.0  0.9525368220590663  0.14941404416432377  0.4530854131279369  1.0000
  O   O32       1.0  0.9496287951344935  0.9519241101216879  0.6506181719374812  1.0000
  F   F1        1.0  0.004735996633272116  0.5055586194386521  0.1826761491911313  1.0000
  F   F2        1.0  0.9990704601099194  0.6855857631481043  0.005090409227165392  1.0000
  F   F3        1.0  0.005312492746042985  0.3993074110911649  0.7209809991183462  1.0000
  F   F4        1.0  0.009143144292671752  0.21758329811732577  0.900862822675272  1.0000
