data_image0
_chemical_formula_structural       Gd4Ag4H32C56N8O32
_chemical_formula_sum              "Gd4 Ag4 H32 C56 N8 O32"
_cell_length_a       9.517405773
_cell_length_b       12.019863298040365
_cell_length_c       16.828
_cell_angle_alpha    96.52050461012207
_cell_angle_beta     90.0
_cell_angle_gamma    113.32253190837879

_space_group_name_H-M_alt    "P 1"
_space_group_IT_number       1

loop_
  _space_group_symop_operation_xyz
  'x, y, z'

loop_
  _atom_site_type_symbol
  _atom_site_label
  _atom_site_symmetry_multiplicity
  _atom_site_fract_x
  _atom_site_fract_y
  _atom_site_fract_z
  _atom_site_occupancy
  Gd  Gd1       1.0  0.7071118378194186  0.0096685781968304  0.9326281930214009  1.0000
  Gd  Gd2       1.0  0.6974741201952456  0.9903399567200282  0.5673850378930683  1.0000
  Gd  Gd3       1.0  0.2928887175382542  0.9903308268067191  0.06737241238940328  1.0000
  Gd  Gd4       1.0  0.3025241960421567  0.009661274266179  0.4326145271323796  1.0000
  Ag  Ag1       1.0  0.043131920927436326  0.3202828369137904  0.0857139042878927  1.0000
  Ag  Ag2       1.0  0.7227856350246284  0.6796718315145326  0.41424741756690503  1.0000
  Ag  Ag3       1.0  0.9568684967229403  0.6797183940724238  0.9142868492329158  1.0000
  Ag  Ag4       1.0  0.2772158333322352  0.3203293994716816  0.5857533359539033  1.0000
  H   H1        1.0  0.762201103215105  0.7151461096861879  0.049331860531459895  1.0000
  H   H2        1.0  0.047076202518731215  0.2848889019792793  0.45063894940186344  1.0000
  H   H3        1.0  0.23779990864215964  0.284854208308694  0.9506676304389857  1.0000
  H   H4        1.0  0.9529249470458228  0.7151095900329381  0.5493615819539458  1.0000
  H   H5        1.0  0.8829572928782384  0.9086710561664119  0.1646268453468025  1.0000
  H   H6        1.0  0.9741416104920547  0.0912826992705789  0.3352916166198626  1.0000
  H   H7        1.0  0.1170437189790334  0.09132926182847  0.8353738341190038  1.0000
  H   H8        1.0  0.025856843452636735  0.9087167057329708  0.6647072060478934  1.0000
  H   H9        1.0  0.8379507770032647  0.411826651705077  0.9505126763927978  1.0000
  H   H10       1.0  0.42620113590607644  0.5881718403071403  0.5494694332848482  1.0000
  H   H11       1.0  0.16205128556049436  0.5881736662898048  0.0494874088253283  1.0000
  H   H12       1.0  0.573798687537412  0.41183030367039913  0.4505302057955944  1.0000
  H   H13       1.0  0.4913458748068251  0.3606388797330808  0.12264428368904849  1.0000
  H   H14       1.0  0.13074476501412852  0.6394399555162806  0.3774091158260902  1.0000
  H   H15       1.0  0.5086566442565258  0.6393623512531335  0.87735646983176  1.0000
  H   H16       1.0  0.8692532324309639  0.36055853649593667  0.6225902270343511  1.0000
  H   H17       1.0  0.4090073086880608  0.8096188006677847  0.2198893562977347  1.0000
  H   H18       1.0  0.5993365578065595  0.19046186056423406  0.2800631692213926  1.0000
  H   H19       1.0  0.5909905510497353  0.19038151732709  0.7801107289203915  1.0000
  H   H20       1.0  0.40066235263773115  0.8095384574306479  0.7199357275013653  1.0000
  H   H21       1.0  0.5611410498501074  0.589665494124894  0.1358355361615295  1.0000
  H   H22       1.0  0.9714796734091709  0.4104352529164146  0.3641869570511105  1.0000
  H   H23       1.0  0.43885996200716454  0.41033482386998793  0.864163954808916  1.0000
  H   H24       1.0  0.028521019655791218  0.5895623261044776  0.6358123117543286  1.0000
  H   H25       1.0  0.45098982299810336  0.6968168957221151  0.32678855994780787  1.0000
  H   H26       1.0  0.7541389056083361  0.3032409407266313  0.1731799416267634  1.0000
  H   H27       1.0  0.5490122395656556  0.3031834222727667  0.6732121195179986  1.0000
  H   H28       1.0  0.24586151204204046  0.6967602902595829  0.8268190291509967  1.0000
  H   H29       1.0  0.9100857657243325  0.7987140322085863  0.2774116653266887  1.0000
  H   H30       1.0  0.11125089208974265  0.2012862857862956  0.22257059246096847  1.0000
  H   H31       1.0  0.08991478963334032  0.2012853727949633  0.7225889400841226  1.0000
  H   H32       1.0  0.8887475618549487  0.7987131192172541  0.7774294187021554  1.0000
  C   C1        1.0  0.7312725837299824  0.6174103876870731  0.0475654326234718  1.0000
  C   C2        1.0  0.11390215256341214  0.3826310149177132  0.4524136209147329  1.0000
  C   C3        1.0  0.2687273774207952  0.3825899303078088  0.9524352468423417  1.0000
  C   C4        1.0  0.8860994535007407  0.6173683900858364  0.5475863902483908  1.0000
  C   C5        1.0  0.6440935235588514  0.8704039375127834  0.18465399506485622  1.0000
  C   C6        1.0  0.7735022181640971  0.1295288191235926  0.3152675176182385  1.0000
  C   C7        1.0  0.3559080825053087  0.1295954674907662  0.8153460160982675  1.0000
  C   C8        1.0  0.226494728574501  0.8704696728886248  0.6847300424991547  1.0000
  C   C9        1.0  0.6262423743324491  0.2374224826730256  0.025218233264311607  1.0000
  C   C10       1.0  0.38873347233664657  0.7626243978797405  0.474893781837075  1.0000
  C   C11       1.0  0.3737560796122424  0.7625769223305241  0.9747859376325892  1.0000
  C   C12       1.0  0.6112711481396859  0.23737683310647378  0.5251099429221427  1.0000
  C   C13       1.0  0.622843225090449  0.9431967363450084  0.12145868555016652  1.0000
  C   C14       1.0  0.6794871326248214  0.0566209833836453  0.378454090450461  1.0000
  C   C15       1.0  0.3771552288542424  0.0568026686585412  0.8785425141083183  1.0000
  C   C16       1.0  0.32051703135191184  0.9433793346112365  0.6215471832630328  1.0000
  C   C17       1.0  0.6622499721253448  0.37186319515818406  0.0365307082675486  1.0000
  C   C18       1.0  0.2903748425252033  0.6282046841952038  0.4635324990458614  1.0000
  C   C19       1.0  0.33775314114489424  0.6281371228366979  0.9634693769505774  1.0000
  C   C20       1.0  0.7096225607130009  0.3717947208083459  0.5364675121172624  1.0000
  C   C21       1.0  0.7850414784978099  0.8640175631514211  0.19994059169341233  1.0000
  C   C22       1.0  0.9208302114984123  0.1359024116063168  0.2999786957243061  1.0000
  C   C23       1.0  0.2149590768598557  0.1359818418521286  0.8000594194697117  1.0000
  C   C24       1.0  0.0791682424462793  0.8640969933972329  0.7000201269434572  1.0000
  C   C25       1.0  0.7747071728952619  0.4490118756312995  0.9918067327533608  1.0000
  C   C26       1.0  0.3257356107108578  0.5510231360341676  0.5082003262885878  1.0000
  C   C27       1.0  0.22529278825551566  0.5509884423635825  0.00819275821707781  1.0000
  C   C28       1.0  0.6742648069395188  0.4489780949520465  0.4918004272322208  1.0000
  C   C29       1.0  0.5815388841053705  0.42130897967035  0.0887687381863458  1.0000
  C   C30       1.0  0.16023590582965852  0.5787662036136823  0.41129446731939373  1.0000
  C   C31       1.0  0.41846377266527673  0.5786904253331926  0.9112318672244586  1.0000
  C   C32       1.0  0.839763142321921  0.4212322883985351  0.5887054697887281  1.0000
  C   C33       1.0  0.5210346025976591  0.8079480265317898  0.23018466521529038  1.0000
  C   C34       1.0  0.7130022797287341  0.1920532044544174  0.26974537283130934  1.0000
  C   C35       1.0  0.47896476434623036  0.1920532044544174  0.7698160883055181  1.0000
  C   C36       1.0  0.28699978283502503  0.8079471135404573  0.7302529296437683  1.0000
  C   C37       1.0  0.6191851627279661  0.5465321316762655  0.0952385931177204  1.0000
  C   C38       1.0  0.07265173597398443  0.453555833486412  0.4047935597831868  1.0000
  C   C39       1.0  0.3808168998357928  0.4534681863186165  0.9047614921004056  1.0000
  C   C40       1.0  0.9273483628840822  0.5464426585258124  0.5952063773249351  1.0000
  C   C41       1.0  0.5444350960497673  0.7458144014906907  0.29015495431858085  1.0000
  C   C42       1.0  0.7985748891648684  0.2542060023134738  0.20978555259827664  1.0000
  C   C43       1.0  0.4555663723071036  0.2541868294955236  0.7098457992022276  1.0000
  C   C44       1.0  0.2014259849851071  0.7457961416640655  0.7902128979868053  1.0000
  C   C45       1.0  0.7080733648736697  0.9290627175475449  0.7446662928456363  1.0000
  C   C46       1.0  0.7790792386549442  0.0709942059098623  0.755349674488528  1.0000
  C   C47       1.0  0.2919267339844041  0.0709357744646724  0.255333050014798  1.0000
  C   C48       1.0  0.22092086020312965  0.9290042861023551  0.24464669713350423  1.0000
  C   C49       1.0  0.8004839719573626  0.8018693302490263  0.2620365083721198  1.0000
  C   C50       1.0  0.9984773701208169  0.1981035980059218  0.237914409629056  1.0000
  C   C51       1.0  0.1995170398999093  0.1981309877458557  0.7379641710936866  1.0000
  C   C52       1.0  0.0015236417364546898  0.80189671998896  0.7620856755890699  1.0000
  C   C53       1.0  0.03406272833308321  0.0697534506908397  0.0119658152964348  1.0000
  C   C54       1.0  0.9643258188083765  0.9302349984167364  0.48804162667422457  1.0000
  C   C55       1.0  0.9659385589387598  0.93024321533872  0.9880345679493702  1.0000
  C   C56       1.0  0.0356682946030702  0.0697662325694779  0.511959126846584  1.0000
  N   N1        1.0  0.6822227530389  0.7443709621961503  0.3073881229456958  1.0000
  N   N2        1.0  0.9377859043295163  0.255630268790064  0.19255498854991523  1.0000
  N   N3        1.0  0.31777720811188465  0.2556293557987317  0.6926119622724229  1.0000
  N   N4        1.0  0.06221510752774866  0.744370049204818  0.8074439081728502  1.0000
  N   N5        1.0  0.8070906410966219  0.569307613423014  0.9959931476898947  1.0000
  N   N6        1.0  0.23783820289344254  0.4307255722597887  0.5039804853718409  1.0000
  N   N7        1.0  0.1929114214671372  0.430692704571868  0.004006937528231393  1.0000
  N   N8        1.0  0.7621617582573351  0.5692747457350933  0.49601959984628513  1.0000
  O   O1        1.0  0.6659929808813203  0.8781488429748947  0.8073157192094058  1.0000
  O   O2        1.0  0.7877973581855073  0.12191812338716088  0.6927147304264736  1.0000
  O   O3        1.0  0.3340039658572849  0.1218496490373298  0.19268718913713198  1.0000
  O   O4        1.0  0.21220228417296036  0.8780794556337241  0.3072863211220138  1.0000
  O   O5        1.0  0.729036905283863  0.9821814661849189  0.07350959093565729  1.0000
  O   O6        1.0  0.7467319785373335  0.0176225586737715  0.4263640423882791  1.0000
  O   O7        1.0  0.27096515727988907  0.017818851809963097  0.926491088530149  1.0000
  O   O8        1.0  0.25326574349317355  0.9823795853037749  0.5736350024444904  1.0000
  O   O9        1.0  0.9685440325791537  0.1289198539057139  0.9806727224094943  1.0000
  O   O10       1.0  0.8396555850201964  0.8710329885399446  0.5193217292055223  1.0000
  O   O11       1.0  0.031453964865939134  0.8710786381065034  0.019326620450947015  1.0000
  O   O12       1.0  0.16034455721560195  0.12897189441159176  0.48067872628761427  1.0000
  O   O13       1.0  0.7282635407249459  0.20440049921683107  0.9955834745549978  1.0000
  O   O14       1.0  0.5237427918093616  0.7956180786046758  0.5045529859870612  1.0000
  O   O15       1.0  0.27174076095907646  0.7955979927953861  0.0044176510484916975  1.0000
  O   O16       1.0  0.476250865102486  0.2043822393902062  0.4954435337449681  1.0000
  O   O17       1.0  0.4959189190369245  0.1684943761455457  0.045683280969690515  1.0000
  O   O18       1.0  0.327401803256656  0.8315588953465394  0.4543638852716399  1.0000
  O   O19       1.0  0.5040878028523821  0.8315068548406686  0.9543198495418467  1.0000
  O   O20       1.0  0.6725915348628818  0.1684386836743457  0.5456336007907581  1.0000
  O   O21       1.0  0.4987374753901933  0.9586472886419841  0.12164643224102895  1.0000
  O   O22       1.0  0.5398899898518151  0.041055394178947296  0.37825938982017254  1.0000
  O   O23       1.0  0.5012647248808477  0.0413512033702403  0.8783535048670927  1.0000
  O   O24       1.0  0.4601057684730065  0.9589449238159347  0.6217377241595372  1.0000
  O   O25       1.0  0.697597695710563  0.8758362359331002  0.6740321074658625  1.0000
  O   O26       1.0  0.8218054304853553  0.1242188615416495  0.8259860887490333  1.0000
  O   O27       1.0  0.302399113320746  0.12416408206178178  0.3259679777522635  1.0000
  O   O28       1.0  0.17819558137190938  0.8757814564532322  0.1740145907167729  1.0000
  O   O29       1.0  0.1489293288399693  0.1153856704128202  0.06089178393584399  1.0000
  O   O30       1.0  0.033585890196896145  0.8846411243306632  0.4390902444561178  1.0000
  O   O31       1.0  0.8510657919002398  0.884609169634075  0.9391078569522763  1.0000
  O   O32       1.0  0.9664196432786344  0.11536193263820849  0.5609059031932375  1.0000
