data_image0
_chemical_formula_structural       Cu8H40C12I8N8
_chemical_formula_sum              "Cu8 H40 C12 I8 N8"
_cell_length_a       7.300729722966098
_cell_length_b       8.92664065395679
_cell_length_c       15.27628035540446
_cell_angle_alpha    91.27292850213793
_cell_angle_beta     89.97519530989258
_cell_angle_gamma    114.13094405656223

_space_group_name_H-M_alt    "P 1"
_space_group_IT_number       1

loop_
  _space_group_symop_operation_xyz
  'x, y, z'

loop_
  _atom_site_type_symbol
  _atom_site_label
  _atom_site_symmetry_multiplicity
  _atom_site_fract_x
  _atom_site_fract_y
  _atom_site_fract_z
  _atom_site_occupancy
  Cu  Cu1       1.0  0.5351577221234148  0.9333978441521534  0.17377376360212793  1.0000
  Cu  Cu2       1.0  0.6014155911995472  0.06671978799387547  0.32606021542068936  1.0000
  Cu  Cu3       1.0  0.4648345403136743  0.06659902147417539  0.8262302058911501  1.0000
  Cu  Cu4       1.0  0.3985900784211365  0.9332819765550152  0.6739431363032439  1.0000
  Cu  Cu5       1.0  0.8949286052611851  0.14295966171385285  0.2226925154805812  1.0000
  Cu  Cu6       1.0  0.7512290122911907  0.857075265532927  0.2774361496819822  1.0000
  Cu  Cu7       1.0  0.10506545382118997  0.8570407930821698  0.7773062447514931  1.0000
  Cu  Cu8       1.0  0.24877773168303455  0.14293138676350736  0.7225659308424996  1.0000
  H   H1        1.0  0.23320705313893325  0.8916079867476581  0.0770007792267933  1.0000
  H   H2        1.0  0.34113164574311833  0.10845406617544028  0.4228336301444244  1.0000
  H   H3        1.0  0.7667990042462876  0.10839728455663789  0.9229927802617086  1.0000
  H   H4        1.0  0.6588716126820628  0.8915319250829155  0.5771800728162548  1.0000
  H   H5        1.0  0.38959412630207146  0.8436811978640859  0.01746312708228  1.0000
  H   H6        1.0  0.5453543858294622  0.15646433846132615  0.48236674297194077  1.0000
  H   H7        1.0  0.6104199147408734  0.15631813415497214  0.9825415140329172  1.0000
  H   H8        1.0  0.4546556889469142  0.8435434943790411  0.5176327278679835  1.0000
  H   H9        1.0  0.15040188765473056  0.43952664936891483  0.22442374239243892  1.0000
  H   H10       1.0  0.710672201043664  0.5606965834212543  0.2756403545352414  1.0000
  H   H11       1.0  0.8495904496734495  0.5604676191692803  0.775572351121916  1.0000
  H   H12       1.0  0.2893185216382291  0.43930267904771353  0.724360360650131  1.0000
  H   H13       1.0  0.271610689156553  0.3210085949963925  0.21743863703017752  1.0000
  H   H14       1.0  0.9504002360177067  0.6792920224034446  0.28269219426808695  1.0000
  H   H15       1.0  0.7283829205796052  0.6789882234298827  0.7825627133934888  1.0000
  H   H16       1.0  0.049601558282937185  0.32070472491869845  0.7173052269005993  1.0000
  H   H17       1.0  0.06749067997643  0.6119210421564956  0.0408556068484103  1.0000
  H   H18       1.0  0.4546109812503828  0.38820698293579153  0.458755032996912  1.0000
  H   H19       1.0  0.9325212544000933  0.38807680288990537  0.9591346207940461  1.0000
  H   H20       1.0  0.5453866570735925  0.611792420592799  0.5412535382407099  1.0000
  H   H21       1.0  0.12860491230017596  0.6377949372282855  0.15333975598748853  1.0000
  H   H22       1.0  0.4908178096303997  0.3622796658996562  0.3463558090220005  1.0000
  H   H23       1.0  0.8713890963971876  0.36220541151964614  0.8466531116632582  1.0000
  H   H24       1.0  0.5091663879199685  0.6377147680076405  0.6536494515974098  1.0000
  H   H25       1.0  0.4483255011588694  0.5939051828545414  0.1154726107419748  1.0000
  H   H26       1.0  0.8541011161462178  0.4063551768077359  0.38461147993111683  1.0000
  H   H27       1.0  0.5516734564725211  0.4060941145583853  0.8845300677697452  1.0000
  H   H28       1.0  0.14588836771769545  0.5936416064718768  0.6153879067324937  1.0000
  H   H29       1.0  0.3582089849543235  0.550277771450574  0.006243818883355301  1.0000
  H   H30       1.0  0.8067693644625108  0.44969416799308676  0.4938236687030014  1.0000
  H   H31       1.0  0.6417983440993209  0.44971909343252026  0.9937601490196215  1.0000
  H   H32       1.0  0.19323623237982443  0.5503074433752245  0.5061711715145734  1.0000
  H   H33       1.0  0.034395106905463935  0.32506330689273694  0.0658401083526599  1.0000
  H   H34       1.0  0.708534143699154  0.6750164663055923  0.43419535928954645  1.0000
  H   H35       1.0  0.9656019477122795  0.6749321774711915  0.9341553395263418  1.0000
  H   H36       1.0  0.2914648482618033  0.3249938581153556  0.5658060961045521  1.0000
  H   H37       1.0  0.2511078828417013  0.28570572386096416  0.072087596189931  1.0000
  H   H38       1.0  0.9646347562769506  0.7144927121247945  0.42807910105202757  1.0000
  H   H39       1.0  0.7488941382446297  0.7142997008266148  0.9279144752386445  1.0000
  H   H40       1.0  0.03536355395377197  0.28550528677784826  0.5719196395425143  1.0000
  C   C1        1.0  0.1941280070871513  0.6517797171237161  0.0875716342734378  1.0000
  C   C2        1.0  0.5417973787688125  0.3483181075193399  0.4122205303517462  1.0000
  C   C3        1.0  0.8058716392459785  0.34821821101263584  0.9124231777889804  1.0000
  C   C4        1.0  0.45819943089506393  0.6516823707077888  0.587779539053706  1.0000
  C   C5        1.0  0.3104444659353475  0.5449948623341567  0.0750003817731653  1.0000
  C   C6        1.0  0.7647414929892233  0.4550948709998862  0.4250316445219085  1.0000
  C   C7        1.0  0.6895585895766131  0.4550044113098294  0.9250009868423207  1.0000
  C   C8        1.0  0.2352410920276141  0.5449018065694701  0.5749618502832378  1.0000
  C   C9        1.0  0.1830247902391092  0.3669769785220465  0.0972591657562347  1.0000
  C   C10       1.0  0.8154291008419603  0.6331456641039775  0.40283028522952696  1.0000
  C   C11       1.0  0.8169675638840772  0.6330173253655074  0.9027388919518915  1.0000
  C   C12       1.0  0.18456161624160208  0.366853586581861  0.5971697752245931  1.0000
  I   I1        1.0  0.8622979766862358  0.8973498623251429  0.1089494759345371  1.0000
  I   I2        1.0  0.9644914628186922  0.10275190352098207  0.3911397668305767  1.0000
  I   I3        1.0  0.13768908552506787  0.10264208040698006  0.8910538009981296  1.0000
  I   I4        1.0  0.03552023780063244  0.8972509589548635  0.608856391800842  1.0000
  I   I5        1.0  0.6094700466494485  0.2533009443270017  0.1773062980920059  1.0000
  I   I6        1.0  0.3558643641164564  0.7466282324725879  0.3228604077379487  1.0000
  I   I7        1.0  0.39052569985755525  0.7466946697188347  0.8226963519754166  1.0000
  I   I8        1.0  0.6441408393630113  0.2533698603571962  0.6771435699838053  1.0000
  N   N1        1.0  0.3236203210026147  0.8283955957195914  0.0779375338986057  1.0000
  N   N2        1.0  0.49472001599399806  0.1717486675274244  0.4219235738979705  1.0000
  N   N3        1.0  0.6764110508165757  0.17159728986704437  0.9220500343871691  1.0000
  N   N4        1.0  0.5053126023539176  0.8282631776615115  0.5780942558374917  1.0000
  N   N5        1.0  0.1511850474542697  0.337716994969  0.1922132613200134  1.0000
  N   N6        1.0  0.8131679612190935  0.6625285680354054  0.3078630611277049  1.0000
  N   N7        1.0  0.8487991508356669  0.6622883952475787  0.8077868477942189  1.0000
  N   N8        1.0  0.18681511793063516  0.3374718401686606  0.6921330813359178  1.0000
