data_image0
_chemical_formula_structural       Dy4H36C40N16O40
_chemical_formula_sum              "Dy4 H36 C40 N16 O40"
_cell_length_a       9.227117171
_cell_length_b       10.89327383424871
_cell_length_c       14.23
_cell_angle_alpha    104.92402601446103
_cell_angle_beta     90.0
_cell_angle_gamma    90.0

_space_group_name_H-M_alt    "P 1"
_space_group_IT_number       1

loop_
  _space_group_symop_operation_xyz
  'x, y, z'

loop_
  _atom_site_type_symbol
  _atom_site_label
  _atom_site_symmetry_multiplicity
  _atom_site_fract_x
  _atom_site_fract_y
  _atom_site_fract_z
  _atom_site_occupancy
  Dy  Dy1       1.0  0.3724034209514215  0.5422378449939629  0.7647984119435804  1.0000
  Dy  Dy2       1.0  0.8724035742495744  0.9577625672303044  0.7352008260372499  1.0000
  Dy  Dy3       1.0  0.627597969406992  0.4577627465036826  0.23520114247711627  1.0000
  Dy  Dy4       1.0  0.12759564858461664  0.04223897431175061  0.2647968074617992  1.0000
  H   H1        1.0  0.605509813786668  0.220880574282738  0.016074872190522196  1.0000
  H   H2        1.0  0.1055085767264075  0.2791182963994743  0.4839239213285039  1.0000
  H   H3        1.0  0.3944894090475159  0.7791190671705054  0.9839230894483677  1.0000
  H   H4        1.0  0.8944928136320058  0.7208822950981714  0.5160735248701229  1.0000
  H   H5        1.0  0.1085842936024406  0.1845632267565236  0.9257940676293755  1.0000
  H   H6        1.0  0.6085822793763642  0.3154346938812793  0.5742052413299206  1.0000
  H   H7        1.0  0.8914170967559728  0.8154364146967126  0.07420389400951419  1.0000
  H   H8        1.0  0.39141802721993463  0.6845658976163662  0.4257943130907691  1.0000
  H   H9        1.0  0.09383754253401123  0.3054924791675475  0.731296442502881  1.0000
  H   H10       1.0  0.5938366120700493  0.19450544147025542  0.7687042719377928  1.0000
  H   H11       1.0  0.9061616803001799  0.6945081123300981  0.2687031119178087  1.0000
  H   H12       1.0  0.4061615270020269  0.8054932499385786  0.23129561062274456  1.0000
  H   H13       1.0  0.4441051223321466  0.9100370864711778  0.8426709180304285  1.0000
  H   H14       1.0  0.94410310810607  0.5899614256642778  0.6573279453495573  1.0000
  H   H15       1.0  0.5558962680262667  0.0899644550708771  0.157325309987236  1.0000
  H   H16       1.0  0.05589936601445801  0.4100363157001468  0.34267104716987257  1.0000
  H   H17       1.0  0.8388058649916559  0.5583952502148364  0.9493935280112922  1.0000
  H   H18       1.0  0.3388046279313883  0.9416042119650285  0.5506055226691089  1.0000
  H   H19       1.0  0.1611933578425351  0.4416034411939975  0.05060565180855999  1.0000
  H   H20       1.0  0.6611935111406879  0.058397329577026404  0.4493928135706184  1.0000
  H   H21       1.0  0.346107017047224  0.39039414759633934  0.5588534247561157  1.0000
  H   H22       1.0  0.8461082541074847  0.10960377304147072  0.9411465869438728  1.0000
  H   H23       1.0  0.6538932895490817  0.6096035937680924  0.44114627050400657  1.0000
  H   H24       1.0  0.1538866336782547  0.8904015686782075  0.058851093016166076  1.0000
  H   H25       1.0  0.2056373583250348  0.4784100615895426  0.5823026630994548  1.0000
  H   H26       1.0  0.7056375116231877  0.021588809092669702  0.9176968331602566  1.0000
  H   H27       1.0  0.7943640320333785  0.5215895798637007  0.4176974067615049  1.0000
  H   H28       1.0  0.2943584599246663  0.9784127324493853  0.08230080033878553  1.0000
  H   H29       1.0  0.5845899537239134  0.4286932877544487  0.874300060973404  1.0000
  H   H30       1.0  0.0845908841878753  0.0713055829277636  0.6257001380269998  1.0000
  H   H31       1.0  0.4154081853481628  0.5713054036543852  0.1257005243278257  1.0000
  H   H32       1.0  0.9154115899326528  0.9286921584366612  0.3742974490110527  1.0000
  H   H33       1.0  0.5556730130310399  0.5726107646688804  0.9360618807270952  1.0000
  H   H34       1.0  0.055672859732887  0.9273886975109847  0.5639364672126205  1.0000
  H   H35       1.0  0.4443262098031511  0.4273879267399536  0.0639372990927569  1.0000
  H   H36       1.0  0.9443296143876411  0.0726080938090377  0.4360609325250095  1.0000
  C   C1        1.0  0.16441213131745513  0.7947653485006967  0.7389613591830653  1.0000
  C   C2        1.0  0.6644112008534935  0.7052322135903567  0.7610366141558131  1.0000
  C   C3        1.0  0.8355860077546211  0.2052342929525466  0.2610366024558317  1.0000
  C   C4        1.0  0.3355956083154865  0.294768377907296  0.23896153478349902  1.0000
  C   C5        1.0  0.2107711394532146  0.918341424628146  0.8045913155008719  1.0000
  C   C6        1.0  0.7107702089892527  0.5816561374629005  0.6954087660600692  1.0000
  C   C7        1.0  0.7892280833809765  0.0816591668694997  0.19540823891981773  1.0000
  C   C8        1.0  0.2892322651312753  0.4183406538571219  0.3045921473810012  1.0000
  C   C9        1.0  0.34318302686697433  0.9626068436589038  0.8495480001840932  1.0000
  C   C10       1.0  0.843183180165127  0.5373916684765518  0.6504515659365779  1.0000
  C   C11       1.0  0.6568172797293315  0.0373937478387418  0.1504487432738415  1.0000
  C   C12       1.0  0.1568214614796304  0.4626079729766914  0.34954850392438164  1.0000
  C   C13       1.0  0.314265002411986  0.0865870472058674  0.9031893234727235  1.0000
  C   C14       1.0  0.8142629881859095  0.41341087343193555  0.5968085800051952  1.0000
  C   C15       1.0  0.6857363879464273  0.9134154443805897  0.09680709184536339  1.0000
  C   C16       1.0  0.18573840217250392  0.5865868679324892  0.40318970977354956  1.0000
  C   C17       1.0  0.4055459501219759  0.1882455988760157  0.9626542675295796  1.0000
  C   C18       1.0  0.9055439358958992  0.31175137171739215  0.5373441513886092  1.0000
  C   C19       1.0  0.5944554402364375  0.8117540425772276  0.0373436941093104  1.0000
  C   C20       1.0  0.09445745446251413  0.6882473196914489  0.4626543256905578  1.0000
  C   C21       1.0  0.138914460090362  0.6821565850015503  0.9409082159222848  1.0000
  C   C22       1.0  0.6389167809127443  0.8178457273115285  0.5590899911780055  1.0000
  C   C23       1.0  0.8610858465059366  0.3178449565404975  0.05909152579882711  1.0000
  C   C24       1.0  0.3610846094456761  0.18215676427493582  0.440908532362144  1.0000
  C   C25       1.0  0.0598811080167678  0.5673332679909251  0.8864761001185073  1.0000
  C   C26       1.0  0.5598812613149136  0.9326680942777514  0.6135247306441158  1.0000
  C   C27       1.0  0.9401181148174231  0.43266732350672044  0.11352485978356701  1.0000
  C   C28       1.0  0.4401179615192703  0.0673334472643035  0.38647360559561145  1.0000
  C   C29       1.0  0.9234455184746011  0.5157173553872951  0.8986668989289441  1.0000
  C   C30       1.0  0.4234453651764483  0.984283056836972  0.6013337445332567  1.0000
  C   C31       1.0  0.0765537043595899  0.4842841861547598  0.1013342482735453  1.0000
  C   C32       1.0  0.5765516901335134  0.0157175346606735  0.3986651071467406  1.0000
  C   C33       1.0  0.9239245413284465  0.3955519386790769  0.8330993722018505  1.0000
  C   C34       1.0  0.4239254717924084  0.10444788204754471  0.6669017168396606  1.0000
  C   C35       1.0  0.0760735977436298  0.6044486528185757  0.1669015877002167  1.0000
  C   C36       1.0  0.5760726672796679  0.8955527094501008  0.33309713484033665  1.0000
  C   C37       1.0  0.8231790990876533  0.2857667071559717  0.8127089996338696  1.0000
  C   C38       1.0  0.32318002955161523  0.2142321635262476  0.6872904966258416  1.0000
  C   C39       1.0  0.17682120750864533  0.7142329342972716  0.18728825926433504  1.0000
  C   C40       1.0  0.6768202770446834  0.7857693780158073  0.3127092450952702  1.0000
  N   N1        1.0  0.1714587525746722  0.10959902281943812  0.8884162056069158  1.0000
  N   N2        1.0  0.6714578221107104  0.39039889781837195  0.6115824006116952  1.0000
  N   N3        1.0  0.8285404702595187  0.8904006186338053  0.11158035055060368  1.0000
  N   N4        1.0  0.32854465200981764  0.6096016936792809  0.3884171538090015  1.0000
  N   N5        1.0  0.1077162001501151  0.0094225404233939  0.8296215246960728  1.0000
  N   N6        1.0  0.6077141859240385  0.49057633025882563  0.6703779715636456  1.0000
  N   N7        1.0  0.8922841064461835  0.9905771010298495  0.17037713968350943  1.0000
  N   N8        1.0  0.3922872044343748  0.5094223611500084  0.3296205055155141  1.0000
  N   N9        1.0  0.13535646907414642  0.4852750824707073  0.8160503334621225  1.0000
  N   N10       1.0  0.6353566223722995  0.0147247382559144  0.683951458320081  1.0000
  N   N11       1.0  0.8646405862358151  0.5147245589825289  0.1839504391395295  1.0000
  N   N12       1.0  0.36464151669977707  0.9852749031973291  0.31604790880018646  1.0000
  N   N13       1.0  0.05277487984334781  0.38309780655463044  0.7854016054559523  1.0000
  N   N14       1.0  0.552773949379386  0.1169001140831725  0.7145998117254138  1.0000
  N   N15       1.0  0.9472232592287285  0.6169018348986057  0.2145991671456997  1.0000
  N   N16       1.0  0.4472241896926903  0.8830995273700637  0.2853995553948607  1.0000
  O   O1        1.0  0.24839827624640523  0.7002739318329746  0.7217899435790613  1.0000
  O   O2        1.0  0.7483973457824433  0.7997255303468833  0.7782084043606545  1.0000
  O   O3        1.0  0.7516020303499005  0.2997257096202617  0.2782101262818983  1.0000
  O   O4        1.0  0.2516062121001994  0.20027316106195062  0.2217900727185054  1.0000
  O   O5        1.0  0.0368403254993197  0.7913432885485818  0.7042178344820371  1.0000
  O   O6        1.0  0.5368415625595802  0.7086552235868737  0.7957831371200114  1.0000
  O   O7        1.0  0.9631588973348714  0.2086554028602521  0.2957827508191854  1.0000
  O   O8        1.0  0.4631641628472849  0.2913444178663696  0.2042183382223257  1.0000
  O   O9        1.0  0.27447034139326126  0.6864745368289675  0.9191748160790709  1.0000
  O   O10       1.0  0.7744726622156364  0.813529675572923  0.5808230628813718  1.0000
  O   O11       1.0  0.7255288814409298  0.3135251046242686  0.0808238483005113  1.0000
  O   O12       1.0  0.2255276443806622  0.1864747161023459  0.4191744297782448  1.0000
  O   O13       1.0  0.0721774729482334  0.7647410951229575  0.004766629653758508  1.0000
  O   O14       1.0  0.5721797937706086  0.7352593171013098  0.4952326083270648  1.0000
  O   O15       1.0  0.9278217498859577  0.23525854633028592  0.9952341429478864  1.0000
  O   O16       1.0  0.4278205128256971  0.2647403243519264  0.5047660560525173  1.0000
  O   O17       1.0  0.6925413302524961  0.30323517365777525  0.8413531735562216  1.0000
  O   O18       1.0  0.1925400931922354  0.19676369702444424  0.6586477281848673  1.0000
  O   O19       1.0  0.3074578925816951  0.6967635177510658  0.15864741174500102  1.0000
  O   O20       1.0  0.8074580458798408  0.8032368944732087  0.3413511234951372  1.0000
  O   O21       1.0  0.8773260217657608  0.18007711706916754  0.7662841958322985  1.0000
  O   O22       1.0  0.3773258684676151  0.319921753613052  0.7337145976867276  1.0000
  O   O23       1.0  0.1226721173063154  0.8199244244728874  0.23371203218537318  1.0000
  O   O24       1.0  0.6226722706044613  0.6800778878401914  0.2662847694335396  1.0000
  O   O25       1.0  0.35759597920467473  0.2970836361258691  0.9941544581492536  1.0000
  O   O26       1.0  0.8575939649785982  0.20291428451194093  0.5058427425879799  1.0000
  O   O27       1.0  0.6424054111537387  0.7029169553717836  0.005841582567995776  1.0000
  O   O28       1.0  0.14240850914193  0.7970844068968931  0.4941543290098096  1.0000
  O   O29       1.0  0.5391196305206236  0.1505003346068747  0.9761081134727192  1.0000
  O   O30       1.0  0.0391183934603561  0.3494994861197469  0.5238908673467222  1.0000
  O   O31       1.0  0.4608817598377897  0.8494993068463687  0.02388984816617071  1.0000
  O   O32       1.0  0.9608819131359426  0.6505001553334964  0.47610779703286  1.0000
  O   O33       1.0  0.3073625215157705  0.47438472343932153  0.5996742152809418  1.0000
  O   O34       1.0  0.8073626748139162  0.025613197198488504  0.9003250936783544  1.0000
  O   O35       1.0  0.6926388688426499  0.5256130179251103  0.40032618271986553  1.0000
  O   O36       1.0  0.19263221297181596  0.974393094565599  0.09966996261935177  1.0000
  O   O37       1.0  0.5125316946080858  0.4995590001220195  0.8873533945769694  1.0000
  O   O38       1.0  0.0125326250720477  0.0004389205157906  0.6126459143823196  1.0000
  O   O39       1.0  0.4874664444639905  0.5004396912868145  0.1126471907242532  1.0000
  O   O40       1.0  0.9874698490484803  0.999558820848641  0.38735167265573267  1.0000
