data_image0
_chemical_formula_structural       Ag4H14C14S2Br2O16
_chemical_formula_sum              "Ag4 H14 C14 S2 Br2 O16"
_cell_length_a       6.615373850472571
_cell_length_b       9.318668675302888
_cell_length_c       10.136458092946453
_cell_angle_alpha    83.58699414825662
_cell_angle_beta     75.92893195529366
_cell_angle_gamma    86.40595849944683

_space_group_name_H-M_alt    "P 1"
_space_group_IT_number       1

loop_
  _space_group_symop_operation_xyz
  'x, y, z'

loop_
  _atom_site_type_symbol
  _atom_site_label
  _atom_site_symmetry_multiplicity
  _atom_site_fract_x
  _atom_site_fract_y
  _atom_site_fract_z
  _atom_site_occupancy
  Ag  Ag1       1.0  0.6580062727394775  0.0246904380802135  0.639696464692669  1.0000
  Ag  Ag2       1.0  0.34199154217760247  0.9753174220206373  0.3603044385889262  1.0000
  Ag  Ag3       1.0  0.96815489880575  0.6514470311968877  0.025433605272816386  1.0000
  Ag  Ag4       1.0  0.031846520245864  0.34855110983572496  0.9745657066321058  1.0000
  H   H1        1.0  0.5027017706246539  0.10587342373154482  0.8880564530470281  1.0000
  H   H2        1.0  0.49729181508070047  0.8941257951132258  0.1119459904831075  1.0000
  H   H3        1.0  0.711345815580323  0.19440247413560027  0.8469050907778808  1.0000
  H   H4        1.0  0.2886492727986436  0.8055978241329668  0.1530970029486625  1.0000
  H   H5        1.0  0.7718415037065114  0.9456881050098217  0.9685031032681691  1.0000
  H   H6        1.0  0.22815525463154526  0.0543100308917275  0.03149893515742261  1.0000
  H   H7        1.0  0.8053791630009997  0.9539334034001141  0.11433657218312013  1.0000
  H   H8        1.0  0.19461916106887864  0.04606472700306341  0.8856662004126646  1.0000
  H   H9        1.0  0.38420097073444026  0.2587127861655603  0.14165807918944748  1.0000
  H   H10       1.0  0.615803557891667  0.7412853568460206  0.8583397436371242  1.0000
  H   H11       1.0  0.46892149535194255  0.686950424427117  0.2709032946793499  1.0000
  H   H12       1.0  0.5310766734160098  0.3130498931213808  0.7290933667438325  1.0000
  H   H13       1.0  0.9262363849447655  0.3965221968588182  0.4080370557688439  1.0000
  H   H14       1.0  0.07376015034599702  0.6034802614304836  0.5919645899865458  1.0000
  C   C1        1.0  0.7337527404612628  0.3056661219041031  0.2985647953565261  1.0000
  C   C2        1.0  0.2662485743630826  0.6943341759971489  0.7014353060195545  1.0000
  C   C3        1.0  0.5678001845830565  0.3270393003146522  0.23238748793905017  1.0000
  C   C4        1.0  0.4322026740839676  0.6729610050639393  0.76761039018848  1.0000
  C   C5        1.0  0.4734171727432681  0.4678839963287373  0.22057939535569904  1.0000
  C   C6        1.0  0.5265841201919415  0.5321163145482402  0.7794177486016238  1.0000
  C   C7        1.0  0.5430837890904598  0.5798500552378201  0.2780376544428266  1.0000
  C   C8        1.0  0.45691750384474267  0.42015025563915737  0.7219594895144964  1.0000
  C   C9        1.0  0.7038069098824167  0.5545335491883918  0.3449565753247228  1.0000
  C   C10       1.0  0.2961943903491715  0.4454667573633415  0.6550415544388528  1.0000
  C   C11       1.0  0.8001231851305305  0.4175684649576254  0.3556394134667471  1.0000
  C   C12       1.0  0.19987645973473184  0.5824339953106372  0.6443607432102851  1.0000
  C   C13       1.0  0.3040721871108545  0.4954270943014834  0.1470356770249026  1.0000
  C   C14       1.0  0.6959307273180002  0.5045721304801775  0.8529622992701746  1.0000
  S   S1        1.0  0.8537102620790264  0.1309948690674219  0.31674904163096335  1.0000
  S   S2        1.0  0.14629101157625257  0.8690065007802871  0.6832529331900759  1.0000
  Br  Br1       1.0  0.7947707572114595  0.7066173863730185  0.4234122510355219  1.0000
  Br  Br2       1.0  0.20522426081292616  0.293384001142968  0.5765877729109689  1.0000
  O   O1        1.0  0.6879982032355086  0.0414669245311927  0.4086918591770329  1.0000
  O   O2        1.0  0.3120046288552132  0.9585344441433675  0.5913098640079539  1.0000
  O   O3        1.0  0.6578664899995418  0.09772910444502968  0.8465408151691989  1.0000
  O   O4        1.0  0.342128598379432  0.9022711938235375  0.15346127855734437  1.0000
  O   O5        1.0  0.9161445707221176  0.0811133696205104  0.17967159267488605  1.0000
  O   O6        1.0  0.08385680716043711  0.9188858433585592  0.8203295926749945  1.0000
  O   O7        1.0  0.7509781020731623  0.8897866295637938  0.05929137172878994  1.0000
  O   O8        1.0  0.249018712026718  0.11021042574081723  0.9407107648643489  1.0000
  O   O9        1.0  0.028501477222789603  0.1487544522676032  0.377533559122547  1.0000
  O   O10       1.0  0.9714997818397323  0.8512469262305798  0.622466444085987  1.0000
  O   O11       1.0  0.5028462080082009  0.21459535866656407  0.18383327176101008  1.0000
  O   O12       1.0  0.4971582163906448  0.7854049412136489  0.8161653405367133  1.0000
  O   O13       1.0  0.2228492698819622  0.6220495733580833  0.1327325159420454  1.0000
  O   O14       1.0  0.7771521418732732  0.37794857199978077  0.8672658101566312  1.0000
  O   O15       1.0  0.24951773159276772  0.3846139984873247  0.0999683936094868  1.0000
  O   O16       1.0  0.7504836244006442  0.6153852274674704  0.9000298343216427  1.0000
