data_image0
_chemical_formula_structural       Zn4H40C52N40
_chemical_formula_sum              "Zn4 H40 C52 N40"
_cell_length_a       8.850327398
_cell_length_b       12.110154685976388
_cell_length_c       15.976
_cell_angle_alpha    107.11780703982221
_cell_angle_beta     90.0
_cell_angle_gamma    111.43233194719078

_space_group_name_H-M_alt    "P 1"
_space_group_IT_number       1

loop_
  _space_group_symop_operation_xyz
  'x, y, z'

loop_
  _atom_site_type_symbol
  _atom_site_label
  _atom_site_symmetry_multiplicity
  _atom_site_fract_x
  _atom_site_fract_y
  _atom_site_fract_z
  _atom_site_occupancy
  Zn  Zn1       1.0  0.443182825725657  0.5648768505053923  0.901222280433011  1.0000
  Zn  Zn2       1.0  0.8781994839322352  0.4350914805253083  0.5987675866724802  1.0000
  Zn  Zn3       1.0  0.5568193600239368  0.4351232730177941  0.09877780972064443  1.0000
  Zn  Zn4       1.0  0.121801571915654  0.5649086429978709  0.40123187754226564  1.0000
  H   H1        1.0  0.41348160356277935  0.2916147671642619  0.7196709051532794  1.0000
  H   H2        1.0  0.12190890038617397  0.7082666020487594  0.780265758842724  1.0000
  H   H3        1.0  0.5865183223834053  0.7083853563589244  0.28032855906147364  1.0000
  H   H4        1.0  0.8780894281309058  0.2917325864011104  0.21973662643851816  1.0000
  H   H5        1.0  0.2154300071704753  0.1715261073918484  0.7042882971670681  1.0000
  H   H6        1.0  0.04419773655989451  0.8284861720843467  0.7956982307395891  1.0000
  H   H7        1.0  0.7845683213465975  0.8284730810580285  0.2957109584196261  1.0000
  H   H8        1.0  0.9558005919571786  0.1715130163655303  0.2043016507860217  1.0000
  H   H9        1.0  0.5952955421174267  0.7512481817407206  0.7969875036065022  1.0000
  H   H10       1.0  0.8438469984029952  0.2484527183237901  0.7028344084461867  1.0000
  H   H11       1.0  0.4047041111482343  0.2487491365625374  0.20301133472410277  1.0000
  H   H12       1.0  0.15615358991748005  0.7515464701260868  0.29716547307941715  1.0000
  H   H13       1.0  0.5582858606736565  0.9313947299623138  0.7694234792503425  1.0000
  H   H14       1.0  0.6263599939035559  0.0684623273446974  0.730498371332793  1.0000
  H   H15       1.0  0.4417137925920045  0.0686025883409513  0.23057473314135285  1.0000
  H   H16       1.0  0.37363700986492904  0.9315387312517985  0.2695019274489142  1.0000
  H   H17       1.0  0.3775886887329989  0.0277426899856579  0.8630162752826678  1.0000
  H   H18       1.0  0.3492714850289432  0.9724051751202509  0.637036808147599  1.0000
  H   H19       1.0  0.6224088995761435  0.9722527581709883  0.1369808939140285  1.0000
  H   H20       1.0  0.6507284409172415  0.027594948402935398  0.3629626560671469  1.0000
  H   H21       1.0  0.2409447151769655  0.9330030560526835  0.973566120193489  1.0000
  H   H22       1.0  0.3075679938430937  0.0671756664723944  0.5264550397500329  1.0000
  H   H23       1.0  0.7590549380886955  0.0669942622505744  0.026432092198206206  1.0000
  H   H24       1.0  0.6924339970596166  0.9328263271974038  0.4735454676597187  1.0000
  H   H25       1.0  0.1347275469490725  0.8454979607832911  0.06358869315042172  1.0000
  H   H26       1.0  0.2889091650010728  0.1547387362869088  0.43647920243310523  1.0000
  H   H27       1.0  0.8652767037570399  0.154504032886507  0.9364111883204205  1.0000
  H   H28       1.0  0.7110892413496402  0.8452651275295083  0.5635229741105547  1.0000
  H   H29       1.0  0.0011084910149107372  0.7227424719354403  0.16128158373073387  1.0000
  H   H30       1.0  0.278383895211384  0.2774502766892653  0.3386819895593902  1.0000
  H   H31       1.0  0.9988930323603854  0.2772585866610484  0.8387180891120636  1.0000
  H   H32       1.0  0.721615835887917  0.72255171698054  0.661317891911452  1.0000
  H   H33       1.0  0.049425009209727505  0.5271157850939971  0.15295248683085563  1.0000
  H   H34       1.0  0.5225528386338923  0.4729282868746836  0.346979166477496  1.0000
  H   H35       1.0  0.950575384263864  0.4728852735024986  0.8470478119508443  1.0000
  H   H36       1.0  0.4774470873122922  0.5270718366485028  0.6530209236761595  1.0000
  H   H37       1.0  0.22460912729540894  0.461339923364207  0.04165578229681442  1.0000
  H   H38       1.0  0.7633224350476269  0.5386807717717588  0.45839646903092307  1.0000
  H   H39       1.0  0.7753907986507756  0.5386602001589722  0.9583443078568411  1.0000
  H   H40       1.0  0.23667569862256244  0.461320286824737  0.541605081628596  1.0000
  C   C1        1.0  0.219509915902087  0.3550005815178849  0.7297351826366807  1.0000
  C   C2        1.0  0.8646087366640886  0.6450285292778588  0.7702382002243129  1.0000
  C   C3        1.0  0.7804888801423928  0.6449995420053014  0.2702642815780649  1.0000
  C   C4        1.0  0.135390254227282  0.3549697240987086  0.22976209861215582  1.0000
  C   C5        1.0  0.292312696674017  0.2675712271864654  0.7434076038896223  1.0000
  C   C6        1.0  0.024875630042984716  0.732413935163784  0.7565553475142225  1.0000
  C   C7        1.0  0.7076860993704629  0.7324288963367138  0.2565918603251306  1.0000
  C   C8        1.0  0.9751238283757929  0.267585253286093  0.2434451599502978  1.0000
  C   C9        1.0  0.3141185492860643  0.2737810490272707  0.8374721212823817  1.0000
  C   C10       1.0  0.0404424845219182  0.7261816715635803  0.6624858230483144  1.0000
  C   C11       1.0  0.6858809091327132  0.7262181394226062  0.16252650836540997  1.0000
  C   C12       1.0  0.9595597012276755  0.273818451959599  0.3375155189831531  1.0000
  C   C13       1.0  0.5155424969133762  0.7927140075998268  0.8336796501867384  1.0000
  C   C14       1.0  0.7225570979482967  0.2071505302936458  0.6662332284593335  1.0000
  C   C15       1.0  0.4844580914071059  0.2072851808500502  0.16631897946105315  1.0000
  C   C16       1.0  0.2774439578995925  0.7928495932295406  0.33376686169432196  1.0000
  C   C17       1.0  0.4966827563779077  0.8955337335134956  0.8202944430790284  1.0000
  C   C18       1.0  0.6007190216610637  0.10444114303036402  0.6796762284388222  1.0000
  C   C19       1.0  0.5033196242185696  0.10446451986307179  0.17970460387962114  1.0000
  C   C20       1.0  0.39928137181252776  0.8955599155661318  0.3203234444039752  1.0000
  C   C21       1.0  0.39796557917189546  0.9479623588397884  0.871631468275915  1.0000
  C   C22       1.0  0.44952504477996774  0.05211070040144959  0.6283974136436329  1.0000
  C   C23       1.0  0.6020322818177704  0.05203589453677889  0.1283663268049224  1.0000
  C   C24       1.0  0.5504744136388098  0.9478884880484272  0.3716012160041587  1.0000
  C   C25       1.0  0.31935540036766236  0.8934354290095426  0.93342230076847  1.0000
  C   C26       1.0  0.4255748645608861  0.10661892876552771  0.5665554631719945  1.0000
  C   C27       1.0  0.6806442528979986  0.10656188929371518  0.06657653756213482  1.0000
  C   C28       1.0  0.574427126341824  0.8933830649042774  0.4334444182988478  1.0000
  C   C29       1.0  0.33918821236348157  0.7869913589526761  0.9409199972607284  1.0000
  C   C30       1.0  0.5519551531015097  0.2129666862716277  0.5590168738846587  1.0000
  C   C31       1.0  0.6608123759569935  0.2130078294971938  0.05907925832597271  1.0000
  C   C32       1.0  0.4480457078994959  0.7870353073981704  0.4409836335250931  1.0000
  C   C33       1.0  0.2525095189232403  0.7185711099068612  0.0008748048761119942  1.0000
  C   C34       1.0  0.5337665777037301  0.2814299486896346  0.49908293005982074  1.0000
  C   C35       1.0  0.7474928616732371  0.2814271434697062  0.9991242420825375  1.0000
  C   C36       1.0  0.4662324910212803  0.7185729800534801  0.5009196637947042  1.0000
  C   C37       1.0  0.1539383389852134  0.760629772243469  0.060340057892993626  1.0000
  C   C38       1.0  0.39314617533326407  0.2394947160297249  0.4396439640674289  1.0000
  C   C39       1.0  0.8460636519174898  0.23937222142633627  0.9396591976389459  1.0000
  C   C40       1.0  0.6068517634900346  0.7605082127133826  0.5603580038481868  1.0000
  C   C41       1.0  0.07945998203005193  0.6917681685961057  0.11549934750149761  1.0000
  C   C42       1.0  0.38771168897557823  0.3083507092372386  0.38445400356194176  1.0000
  C   C43       1.0  0.9205428660938398  0.3082310198537712  0.8844999080852036  1.0000
  C   C44       1.0  0.6122885096511297  0.691652219505869  0.6155479643536739  1.0000
  C   C45       1.0  0.10521854468188249  0.5832800282871702  0.11080525448853251  1.0000
  C   C46       1.0  0.5220651471844633  0.416769654121353  0.3891382915495498  1.0000
  C   C47       1.0  0.894782316319123  0.416721965382628  0.8891946269823097  1.0000
  C   C48       1.0  0.47793345401313303  0.5832323395484451  0.6108628417991113  1.0000
  C   C49       1.0  0.2023950549557014  0.5462894632818589  0.04895298882534858  1.0000
  C   C50       1.0  0.6561669314749423  0.4537237512676384  0.45103562552608184  1.0000
  C   C51       1.0  0.7976050658373666  0.45370879009470855  0.9510466840722105  1.0000
  C   C52       1.0  0.34383213725006806  0.5462791774754692  0.5489663423895338  1.0000
  N   N1        1.0  0.25898443881571603  0.4733855377224714  0.7833687419273405  1.0000
  N   N2        1.0  0.7856488245011803  0.5266529238063598  0.7166017197028652  1.0000
  N   N3        1.0  0.741016617032173  0.526614585800715  0.21663072228741245  1.0000
  N   N4        1.0  0.2143517638192947  0.4733462646435171  0.2833987877616552  1.0000
  N   N5        1.0  0.16594014142935262  0.5200915144016136  0.7500226039328128  1.0000
  N   N6        1.0  0.6459145518880263  0.4799703239599253  0.7499643402989309  1.0000
  N   N7        1.0  0.8340597845168389  0.4799086091215726  0.24997686028193306  1.0000
  N   N8        1.0  0.3540855689050488  0.5200279294166421  0.2500353325986282  1.0000
  N   N9        1.0  0.07482061956336138  0.43172521661522006  0.6784822242484765  1.0000
  N   N10       1.0  0.6432240626877004  0.5683412971128519  0.8215182819016748  1.0000
  N   N11       1.0  0.9251788388554161  0.5682739718346497  0.3215176572771271  1.0000
  N   N12       1.0  0.356774460676256  0.4316560211904061  0.17848118236783966  1.0000
  N   N13       1.0  0.1055245369268221  0.3268071861975983  0.6634598609034159  1.0000
  N   N14       1.0  0.7788738591549915  0.6732378208443848  0.8365302133514663  1.0000
  N   N15       1.0  0.8944753890193623  0.673192937325588  0.3365402292502396  1.0000
  N   N16       1.0  0.22112466420896484  0.3267594974588732  0.16346987685695785  1.0000
  N   N17       1.0  0.3827085484706174  0.3794162806724017  0.9060208017892253  1.0000
  N   N18       1.0  0.0033254297498289563  0.6205455048451398  0.5939344301577877  1.0000
  N   N19       1.0  0.6172902475738695  0.6205838428507846  0.09397866242552062  1.0000
  N   N20       1.0  0.9966740286689486  0.379453683604737  0.406065451367816  1.0000
  N   N21       1.0  0.3818840899858174  0.3402357739789181  0.9772396438101156  1.0000
  N   N22       1.0  0.04164622161307825  0.659731621978473  0.522717465844096  1.0000
  N   N23       1.0  0.6181158359603742  0.6597643495442611  0.02275982040463021  1.0000
  N   N24       1.0  0.9583537043331063  0.3402685015447133  0.4772832502484692  1.0000
  N   N25       1.0  0.3160875468055764  0.2171099961009588  0.9523211244937431  1.0000
  N   N26       1.0  0.09902752958914358  0.7828602050763536  0.5476453741893297  1.0000
  N   N27       1.0  0.6839130415148986  0.7828891923489181  0.0476781310929582  1.0000
  N   N28       1.0  0.9009735262587454  0.2171399184468257  0.452355967842145  1.0000
  N   N29       1.0  0.27174175349504287  0.1726622214615006  0.8647107837503187  1.0000
  N   N30       1.0  0.09919794570731709  0.8273042394225811  0.6352580101151022  1.0000
  N   N31       1.0  0.7282593023528463  0.8273379020616858  0.13528868046442713  1.0000
  N   N32       1.0  0.9008042400422767  0.1726958841005981  0.36474270597746283  1.0000
  N   N33       1.0  0.43869057612453594  0.7394709334219556  0.8920225774615389  1.0000
  N   N34       1.0  0.6990100049534221  0.260419786524146  0.6078817461749821  1.0000
  N   N35       1.0  0.5613106745702368  0.2605273199546119  0.10797646949711753  1.0000
  N   N36       1.0  0.30099151842187416  0.7395812720723427  0.3921185526067178  1.0000
  N   N37       1.0  0.273141104100965  0.6115800219646061  0.9951695826534961  1.0000
  N   N38       1.0  0.6614851258256352  0.3883752180397764  0.5048029670644356  1.0000
  N   N39       1.0  0.726859951746924  0.3884201015585731  0.004830507500159335  1.0000
  N   N40       1.0  0.3385123454702565  0.6116267756300289  0.49520004410094753  1.0000
