data_image0
_chemical_formula_structural       Li4H20C16O8
_chemical_formula_sum              "Li4 H20 C16 O8"
_cell_length_a       5.04668402713776
_cell_length_b       8.583703087200195
_cell_length_c       11.081904008634565
_cell_angle_alpha    103.91451807179536
_cell_angle_beta     103.20387446684052
_cell_angle_gamma    89.98016274253207

_space_group_name_H-M_alt    "P 1"
_space_group_IT_number       1

loop_
  _space_group_symop_operation_xyz
  'x, y, z'

loop_
  _atom_site_type_symbol
  _atom_site_label
  _atom_site_symmetry_multiplicity
  _atom_site_fract_x
  _atom_site_fract_y
  _atom_site_fract_z
  _atom_site_occupancy
  Li  Li1       1.0  0.0953565966521737  0.6478222749439128  0.4910977238126081  1.0000
  Li  Li2       1.0  0.6040729484629922  0.8521801414267216  0.5088998125406619  1.0000
  Li  Li3       1.0  0.9046424431661961  0.35217882854230703  0.5089011241232982  1.0000
  Li  Li4       1.0  0.395922034426846  0.14782095089127276  0.4910995266296468  1.0000
  H   H1        1.0  0.1286992812599692  0.3962674207554997  0.2728804993030352  1.0000
  H   H2        1.0  0.8557610435504657  0.1035815038764056  0.7271022063323542  1.0000
  H   H3        1.0  0.8713055979861437  0.6037312850174673  0.7271175564216037  1.0000
  H   H4        1.0  0.1442378827357231  0.8964183767858815  0.2728972886630033  1.0000
  H   H5        1.0  0.6623061425549253  0.2559162358240528  0.2182867588848794  1.0000
  H   H6        1.0  0.4438332551815449  0.24411847310896917  0.7817827770819578  1.0000
  H   H7        1.0  0.33769471756402686  0.7440823964161468  0.7817144870313089  1.0000
  H   H8        1.0  0.556163535408416  0.7558801687511904  0.21821806041625535  1.0000
  H   H9        1.0  0.33247923596306345  0.0079402031785776  0.13868245873539564  1.0000
  H   H10       1.0  0.19422386293721416  0.4921104218854993  0.8615641664703304  1.0000
  H   H11       1.0  0.6675195767909371  0.992058454659784  0.8613176833194205  1.0000
  H   H12       1.0  0.805775075949427  0.5078894379886094  0.13843622817741874  1.0000
  H   H13       1.0  0.2970652209335968  0.1109640160435035  0.01652041941185439  1.0000
  H   H14       1.0  0.2804687145270607  0.38877913430030026  0.9835519232230894  1.0000
  H   H15       1.0  0.7029357527175364  0.8890358390206289  0.9834801794448823  1.0000
  H   H16       1.0  0.7195301108273994  0.6112195027498757  0.016449118484111028  1.0000
  H   H17       1.0  0.0529469073726574  0.1325715452241525  0.11240561840008922  1.0000
  H   H18       1.0  0.9404157733288869  0.36764206993682064  0.8874590523730889  1.0000
  H   H19       1.0  0.9470563407077961  0.8674307298896836  0.8875947901991098  1.0000
  H   H20       1.0  0.05958724768719749  0.6323577595291496  0.11254265034501999  1.0000
  C   C1        1.0  0.5284155705580389  0.5208086516058401  0.36821197104574577  1.0000
  C   C2        1.0  0.1602911463885306  0.9792029491920501  0.6318271392607074  1.0000
  C   C3        1.0  0.47158551662528236  0.47919242628222497  0.6317879807515326  1.0000
  C   C4        1.0  0.8397078050985697  0.020796889893880198  0.3681741550394194  1.0000
  C   C5        1.0  0.3464813331581453  0.3862707818487081  0.27811294169576684  1.0000
  C   C6        1.0  0.0682795227058719  0.11363689538728748  0.7218990923618095  1.0000
  C   C7        1.0  0.6535216626570274  0.613729089193626  0.7218869617175727  1.0000
  C   C8        1.0  0.9317214635457207  0.8863629388886594  0.2781024061473119  1.0000
  C   C9        1.0  0.44124849394428634  0.25923382136199535  0.20666101867548295  1.0000
  C   C10       1.0  0.23440367063400908  0.24075160951109342  0.793346751771047  1.0000
  C   C11       1.0  0.5587504449423621  0.7407660385121134  0.7933393759722593  1.0000
  C   C12       1.0  0.7655953943852793  0.7592494523987696  0.20665389546962837  1.0000
  C   C13       1.0  0.2701722189185318  0.12138699325207372  0.11395225586914391  1.0000
  C   C14       1.0  0.1561819631211492  0.3785911398714532  0.88607223169236  1.0000
  C   C15       1.0  0.7298307894970933  0.8786128570020821  0.8860485471965874  1.0000
  C   C16       1.0  0.8438169883659511  0.6214086992144774  0.11392906260776667  1.0000
  O   O1        1.0  0.4159513117527922  0.6461946336170143  0.4181528193964681  1.0000
  O   O2        1.0  0.9979551871666741  0.8537918344261614  0.5817722253188293  1.0000
  O   O3        1.0  0.5840476145333966  0.3538052470452726  0.5818466755988965  1.0000
  O   O4        1.0  0.0020418304876627974  0.14620925308185656  0.418227318060474  1.0000
  O   O5        1.0  0.7859147191359456  0.5070893512399692  0.39265578936884543  1.0000
  O   O6        1.0  0.39332961551868817  0.9929804300604846  0.6074657255355405  1.0000
  O   O7        1.0  0.2140862419147354  0.4929105246123414  0.6073439098355069  1.0000
  O   O8        1.0  0.6066675282682822  0.007021859483288  0.392534070436696  1.0000
