data_image0
_chemical_formula_structural       Al4H40C44O20
_chemical_formula_sum              "Al4 H40 C44 O20"
_cell_length_a       6.6577963442820405
_cell_length_b       16.043264026679854
_cell_length_c       17.13089369922778
_cell_angle_alpha    78.48671150887479
_cell_angle_beta     90.0006695780445
_cell_angle_gamma    90.00055122913035

_space_group_name_H-M_alt    "P 1"
_space_group_IT_number       1

loop_
  _space_group_symop_operation_xyz
  'x, y, z'

loop_
  _atom_site_type_symbol
  _atom_site_label
  _atom_site_symmetry_multiplicity
  _atom_site_fract_x
  _atom_site_fract_y
  _atom_site_fract_z
  _atom_site_occupancy
  Al  Al1       1.0  0.8861204537017499  0.49988029507935744  0.504047786996317  1.0000
  Al  Al2       1.0  0.3861200965988799  0.5001179719393392  0.4959603579820921  1.0000
  Al  Al3       1.0  0.3471356233361717  0.9979826896185883  0.9985438469325704  1.0000
  Al  Al4       1.0  0.8471331817119249  0.002016224016316  0.0014569566555663997  1.0000
  H   H1        1.0  0.3737977268003475  0.8078592348785704  0.8571529843183042  1.0000
  H   H2        1.0  0.8738220644927491  0.1921526013410286  0.14285554881112011  1.0000
  H   H3        1.0  0.7686432572099308  0.8970891153989554  0.8102896596008123  1.0000
  H   H4        1.0  0.2686727143945332  0.10290652486238372  0.18970363975950022  1.0000
  H   H5        1.0  0.5095888692349391  0.6958496974647943  0.7889968353379117  1.0000
  H   H6        1.0  0.009579682382479896  0.3041681207225863  0.21100321417662832  1.0000
  H   H7        1.0  0.726582570057303  0.8045850476795522  0.710163472107098  1.0000
  H   H8        1.0  0.22658393659165907  0.1954107696566183  0.2898278246990884  1.0000
  H   H9        1.0  0.46754920966188956  0.6038672045263949  0.6884633300685579  1.0000
  H   H10       1.0  0.967526000090622  0.39615356814766745  0.3115342992566  1.0000
  H   H11       1.0  0.8609107732168083  0.6918536631120844  0.6432132775607046  1.0000
  H   H12       1.0  0.3608926679581543  0.30814913010869566  0.35678101765685716  1.0000
  H   H13       1.0  0.12495168429574478  0.894207972322583  0.2733338325470385  1.0000
  H   H14       1.0  0.6249298418815669  0.1057864418059609  0.7266617092434587  1.0000
  H   H15       1.0  0.15762948576352898  0.7830736107081647  0.3829054210158064  1.0000
  H   H16       1.0  0.6576490543466489  0.21692445366842608  0.6170914402107358  1.0000
  H   H17       1.0  0.3836510711986491  0.7498609248587511  0.3442214413653702  1.0000
  H   H18       1.0  0.883655414111544  0.25013610631502553  0.6557896760037777  1.0000
  H   H19       1.0  0.37328831297148907  0.7579152399233421  0.14924727964601908  1.0000
  H   H20       1.0  0.8732740711912328  0.24207854996461003  0.8507549017755877  1.0000
  H   H21       1.0  0.37932510393007846  0.6416503564360668  0.2563618747523861  1.0000
  H   H22       1.0  0.8793088420911273  0.3583449977516293  0.7436450768406218  1.0000
  H   H23       1.0  0.8122430392273898  0.7596793169166671  0.16488415036562998  1.0000
  H   H24       1.0  0.31222939825200063  0.24031562397593115  0.8351075982358296  1.0000
  H   H25       1.0  0.8007118898670669  0.8358389608683935  0.22565609341111778  1.0000
  H   H26       1.0  0.3007018669214289  0.16415518506663318  0.7743361984038799  1.0000
  H   H27       1.0  0.8241164327903473  0.7290226211262547  0.3398562518688664  1.0000
  H   H28       1.0  0.3241146167043779  0.2709723957343613  0.660138529460177  1.0000
  H   H29       1.0  0.8191946918866859  0.6524999351358076  0.27944711843161235  1.0000
  H   H30       1.0  0.3191892555366989  0.34749417119268594  0.7205458637436238  1.0000
  H   H31       1.0  0.15108349983558605  0.716696395466215  0.11510810298619838  1.0000
  H   H32       1.0  0.6510735815193341  0.2832947931543615  0.8848917687772299  1.0000
  H   H33       1.0  0.14831413786792066  0.6049695833815603  0.2251690996576272  1.0000
  H   H34       1.0  0.648303573120465  0.3950237316298697  0.774832518723919  1.0000
  H   H35       1.0  0.35844426927173595  0.8655309302781689  0.23711067364853727  1.0000
  H   H36       1.0  0.8584326169002096  0.13446056070252868  0.762893238536279  1.0000
  H   H37       1.0  0.6395963149803945  0.6090479689198104  0.46270228197364105  1.0000
  H   H38       1.0  0.13959520963487648  0.3909486717106533  0.5372980675624177  1.0000
  H   H39       1.0  0.6012148867894352  0.8908058057188838  0.0366335903711317  1.0000
  H   H40       1.0  0.1012140016806029  0.10919931860229332  0.9633854933688326  1.0000
  C   C1        1.0  0.6318294276730826  0.38507573113443533  0.6160640655999999  1.0000
  C   C2        1.0  0.1318284287024056  0.6149246479890208  0.38393917664113536  1.0000
  C   C3        1.0  0.642078513526428  0.410958044356903  0.400696684745526  1.0000
  C   C4        1.0  0.14207861810264427  0.5890465835428172  0.59930121592474  1.0000
  C   C5        1.0  0.07475601219312718  0.8571200732673886  0.8391010022342159  1.0000
  C   C6        1.0  0.5747769955167283  0.1428850063362006  0.1608959514475572  1.0000
  C   C7        1.0  0.16045210029986373  0.6430932673883872  0.6605381567065436  1.0000
  C   C8        1.0  0.6604379062008404  0.3569142994362409  0.3394580246786346  1.0000
  C   C9        1.0  0.3689879519716897  0.695851500992987  0.7562398555743428  1.0000
  C   C10       1.0  0.8689619730084316  0.30416446983121387  0.24375731495191397  1.0000
  C   C11       1.0  0.3458276877552534  0.6444287693696535  0.7015074927213831  1.0000
  C   C12       1.0  0.8458081140814  0.35558762947483297  0.29849312022225405  1.0000
  C   C13       1.0  0.0024859430833429996  0.694016464419562  0.6748915893487962  1.0000
  C   C14       1.0  0.502463188773305  0.30599053473090976  0.32510318732195026  1.0000
  C   C15       1.0  0.024407082181923594  0.7496472044295857  0.7289139450666084  1.0000
  C   C16       1.0  0.5244004053727095  0.25035991444327976  0.27108391580069485  1.0000
  C   C17       1.0  0.21131621643876025  0.7505573249230223  0.7707936671690022  1.0000
  C   C18       1.0  0.7113266772705628  0.2494497671391897  0.2292093208108383  1.0000
  C   C19       1.0  0.2327371911828705  0.8060038501592357  0.8250557300044932  1.0000
  C   C20       1.0  0.7327532132416931  0.1940027347484232  0.1749503461513982  1.0000
  C   C21       1.0  0.8899817709130814  0.8561518606129043  0.7976465245036409  1.0000
  C   C22       1.0  0.38999707545308127  0.14384459656070447  0.20235214863414797  1.0000
  C   C23       1.0  0.8669356592315935  0.8045755916542915  0.743085188488017  1.0000
  C   C24       1.0  0.36693934374269327  0.19542573832060126  0.256910342159749  1.0000
  C   C25       1.0  0.20918770610595766  0.8410881710574285  0.25727827223194316  1.0000
  C   C26       1.0  0.7091759937963287  0.1589066340823564  0.7427206728766365  1.0000
  C   C27       1.0  0.22584056489684198  0.766109669150154  0.32967155201762927  1.0000
  C   C28       1.0  0.7258374613766208  0.23389071051305868  0.6703280149782672  1.0000
  C   C29       1.0  0.22051856943467388  0.736132572353732  0.16696460291062462  1.0000
  C   C30       1.0  0.7205072835843749  0.2638639159767919  0.8330355719075655  1.0000
  C   C31       1.0  0.8882959048908672  0.781517605699065  0.2141540172243097  1.0000
  C   C32       1.0  0.388279412847261  0.2184796604154684  0.7858375054684289  1.0000
  C   C33       1.0  0.10094223714100539  0.8115779659958021  0.18754552391580157  1.0000
  C   C34       1.0  0.6009279076349116  0.1884213652791829  0.812452814278913  1.0000
  C   C35       1.0  0.11844689594699526  0.686728981784526  0.3112339157829993  1.0000
  C   C36       1.0  0.6184483514285616  0.31326670192523665  0.688767523396777  1.0000
  C   C37       1.0  0.22449756409761787  0.6609258489047035  0.23942920325549727  1.0000
  C   C38       1.0  0.7244873788838573  0.3390683023800989  0.7605733944130649  1.0000
  C   C39       1.0  0.8985593111626499  0.7096500486269762  0.2890498107380709  1.0000
  C   C40       1.0  0.39855883982167467  0.2903462772733931  0.7109435582005974  1.0000
  C   C41       1.0  0.5915367588619843  0.0888662368829785  0.09954883859720101  1.0000
  C   C42       1.0  0.09152385892708988  0.9111330534462636  0.9004494514323654  1.0000
  C   C43       1.0  0.5975831728464555  0.11575496910488427  0.8845732613237729  1.0000
  C   C44       1.0  0.09761809864549058  0.8842434585565399  0.11542328585556312  1.0000
  O   O1        1.0  0.46665896496506315  0.43055667021269517  0.4209985594106059  1.0000
  O   O2        1.0  0.9666874444808612  0.5694464160832736  0.5790063845516543  1.0000
  O   O3        1.0  0.8056211256540065  0.4127831460884935  0.5925904688288951  1.0000
  O   O4        1.0  0.30562771737496053  0.5872207285695409  0.4074124458262744  1.0000
  O   O5        1.0  0.8074805342050694  0.43155426841319394  0.4289055548057377  1.0000
  O   O6        1.0  0.3075082850132346  0.5684437521269244  0.5710986199206758  1.0000
  O   O7        1.0  0.9676922350889681  0.5878550688281194  0.41741945230118194  1.0000
  O   O8        1.0  0.46768637821242715  0.4121449700972377  0.582578990234275  1.0000
  O   O9        1.0  0.6356730059092042  0.5519315210714737  0.49456976102763417  1.0000
  O   O10       1.0  0.13566907469510878  0.44806750534099393  0.5054341097176689  1.0000
  O   O11       1.0  0.7669967055208033  0.08985416630927294  0.914405188347928  1.0000
  O   O12       1.0  0.2670253838813749  0.9101607139838421  0.08561940494035271  1.0000
  O   O13       1.0  0.4252125209720603  0.0659741071723658  0.0739100444994918  1.0000
  O   O14       1.0  0.9251649942433459  0.9340622643045361  0.9260616415539501  1.0000
  O   O15       1.0  0.42816380474002347  0.08583989648237626  0.9107884042579714  1.0000
  O   O16       1.0  0.9281766439501239  0.914131377287397  0.0891816039320972  1.0000
  O   O17       1.0  0.26607297243139527  0.9285230407786141  0.9234497877076963  1.0000
  O   O18       1.0  0.7661151765455897  0.0714508712948714  0.07657701487475072  1.0000
  O   O19       1.0  0.599028072656388  0.9481546073297409  0.0052368179149269  1.0000
  O   O20       1.0  0.09903901197222348  0.051841616532939755  0.9947645152704753  1.0000
