data_image0
_chemical_formula_structural       Sm2P8H54C36N4O24
_chemical_formula_sum              "Sm2 P8 H54 C36 N4 O24"
_cell_length_a       7.979565117986441
_cell_length_b       12.692297147003377
_cell_length_c       13.498
_cell_angle_alpha    115.52944819794172
_cell_angle_beta     92.51386594878561
_cell_angle_gamma    92.99543365868394

_space_group_name_H-M_alt    "P 1"
_space_group_IT_number       1

loop_
  _space_group_symop_operation_xyz
  'x, y, z'

loop_
  _atom_site_type_symbol
  _atom_site_label
  _atom_site_symmetry_multiplicity
  _atom_site_fract_x
  _atom_site_fract_y
  _atom_site_fract_z
  _atom_site_occupancy
  Sm  Sm1       1.0  0.7877331467007096  0.8912579336749644  0.5126809336499605  1.0000
  Sm  Sm2       1.0  0.21226555107588757  0.1087407918594536  0.4873181456821741  1.0000
  P   P1        1.0  0.13988360401137362  0.9811729655428891  0.6373740729339374  1.0000
  P   P2        1.0  0.8601164475000332  0.0188266358526903  0.362626137292601  1.0000
  P   P3        1.0  0.5468530751537912  0.6867679986931137  0.5920098000296008  1.0000
  P   P4        1.0  0.45314823076593314  0.3132316027024658  0.4079904427227987  1.0000
  P   P5        1.0  0.5889669955442401  0.1596905119890977  0.6650052842690498  1.0000
  P   P6        1.0  0.4110329566406819  0.8403082135453133  0.3349938275889528  1.0000
  P   P7        1.0  0.0284121937670534  0.393274803321475  0.5866203605081779  1.0000
  P   P8        1.0  0.9715854482541745  0.60672567393528  0.4133786604836729  1.0000
  H   H1        1.0  0.1932289470109438  0.7435115404634018  0.6105336348274903  1.0000
  H   H2        1.0  0.8067712038269336  0.2564889367933532  0.38946693291708095  1.0000
  H   H3        1.0  0.6663456558532631  0.35362281642578347  0.6164176208025438  1.0000
  H   H4        1.0  0.3336532405762895  0.6463776608309715  0.3835829144161664  1.0000
  H   H5        1.0  0.14095583376476387  0.044858105691155  0.8951667042865594  1.0000
  H   H6        1.0  0.8590467265632854  0.9551414957044314  0.10483357099170128  1.0000
  H   H7        1.0  0.23099655668475805  0.1542820692633313  0.09414207010093631  1.0000
  H   H8        1.0  0.7690034948266418  0.8457175321322481  0.9058588809760906  1.0000
  H   H9        1.0  0.31359532912243543  0.0459336632081175  0.20316759191443617  1.0000
  H   H10       1.0  0.6864047223889644  0.9540659381874689  0.7968333591625907  1.0000
  H   H11       1.0  0.3266547186082462  0.8313665468591012  0.10938386583012533  1.0000
  H   H12       1.0  0.6733464879850076  0.1686321786753098  0.8906167602547298  1.0000
  H   H13       1.0  0.23843466973405478  0.7214494734481249  0.9094898366419317  1.0000
  H   H14       1.0  0.7615651831243895  0.2785483762251175  0.0905103993990224  1.0000
  H   H15       1.0  0.020631733165387793  0.8484449638161421  0.7477624476105972  1.0000
  H   H16       1.0  0.9793708271626614  0.1515546375794372  0.2522385685181661  1.0000
  H   H17       1.0  0.088801227723998  0.717544008490357  0.7502326287054046  1.0000
  H   H18       1.0  0.9111999788692489  0.2824547170440539  0.24976651567845923  1.0000
  H   H19       1.0  0.4107016668610157  0.90242779117807  0.631331951159936  1.0000
  H   H20       1.0  0.5892984839768687  0.09757268607867789  0.3686678757341397  1.0000
  H   H21       1.0  0.3572003031017773  0.9776266036648948  0.7690150941309781  1.0000
  H   H22       1.0  0.6428011021444249  0.0223738735918531  0.2309847652889658  1.0000
  H   H23       1.0  0.35335361410524513  0.6643293113746651  0.7140275457918435  1.0000
  H   H24       1.0  0.6466464374061546  0.3356702900209143  0.2859719235841993  1.0000
  H   H25       1.0  0.47655324988691933  0.8009189850006706  0.7815592537056161  1.0000
  H   H26       1.0  0.5234479567063347  0.1990797405337403  0.2184406315287433  1.0000
  H   H27       1.0  0.765528885785713  0.6677740733569237  0.8824303848405463  1.0000
  H   H28       1.0  0.23446865690904423  0.3322255280386557  0.11756901948376001  1.0000
  H   H29       1.0  0.8856352281662866  0.7715785116613247  0.07686460416852726  1.0000
  H   H30       1.0  0.11436376758975095  0.2284228414565987  0.9231340660167291  1.0000
  H   H31       1.0  0.8676713113299928  0.673324405592254  0.20040710697652037  1.0000
  H   H32       1.0  0.1323278830789931  0.3266786992480064  0.799592278244809  1.0000
  H   H33       1.0  0.744198084901406  0.4674672513237823  0.12701948200026442  1.0000
  H   H34       1.0  0.25580236391591177  0.5325358535164781  0.87298215829842  1.0000
  H   H35       1.0  0.6231811795441615  0.36397374373478897  0.9327965620961292  1.0000
  H   H36       1.0  0.37681926927315607  0.6360293611054786  0.06720655990354635  1.0000
  H   H37       1.0  0.5750156259500658  0.5138108175595306  0.7493457158315664  1.0000
  H   H38       1.0  0.4249831711530094  0.4861887838360488  0.2506537210186083  1.0000
  H   H39       1.0  0.5045650885255526  0.3889349112233091  0.7691548620080227  1.0000
  H   H40       1.0  0.49543486365936934  0.6110638143111018  0.23084499070046854  1.0000
  H   H41       1.0  0.8235608442778856  0.2900326678883189  0.7871260339269384  1.0000
  H   H42       1.0  0.1764391079070435  0.709966057646092  0.21287233708056155  1.0000
  H   H43       1.0  0.8656005354355828  0.2240356528552425  0.6450846821401227  1.0000
  H   H44       1.0  0.134399516075824  0.7759639485403369  0.3549140463854172  1.0000
  H   H45       1.0  0.9611847723556082  0.4716740125240833  0.7778733171082023  1.0000
  H   H46       1.0  0.03881527915579141  0.5283255888715033  0.22212615226783333  1.0000
  H   H47       1.0  0.8472942420450168  0.5325200880154171  0.70092346653918  1.0000
  H   H48       1.0  0.15270590879286064  0.4674803892413308  0.29907710120539127  1.0000
  H   H49       1.0  0.6042702391213481  0.5098668147102785  0.5736882087723031  1.0000
  H   H50       1.0  0.3957323212067011  0.4901327866853009  0.42631206650596454  1.0000
  H   H51       1.0  0.36290352188612474  0.17448818645902966  0.7475170314516149  1.0000
  H   H52       1.0  0.6370952752169574  0.8255114149365496  0.25248240539855255  1.0000
  H   H53       1.0  0.12121832412462653  0.5515297788526752  0.5726505889824978  1.0000
  H   H54       1.0  0.8787818267132581  0.4484706984040798  0.42734997876207365  1.0000
  C   C1        1.0  0.1875911127537009  0.998515892573323  0.9412645885825625  1.0000
  C   C2        1.0  0.8124113482478705  0.0014828329610879  0.058735329177665094  1.0000
  C   C3        1.0  0.23609566559635206  0.0594744768988562  0.05335315649306689  1.0000
  C   C4        1.0  0.7639030321802524  0.9405242486355547  0.9466474045400587  1.0000
  C   C5        1.0  0.2843385841452602  0.9995222570578406  0.11443734112958041  1.0000
  C   C6        1.0  0.7156614673661396  0.0004773443377388  0.8855636099474467  1.0000
  C   C7        1.0  0.28705667182155287  0.8778230991858038  0.06199915567634666  1.0000
  C   C8        1.0  0.7129445347717009  0.12217562634860707  0.9380007295580128  1.0000
  C   C9        1.0  0.23976120199173323  0.8168482721024546  0.9498100041014936  1.0000
  C   C10       1.0  0.7602374957848639  0.1831504534319564  0.050189816081136505  1.0000
  C   C11       1.0  0.18876263733832127  0.8761983767151519  0.8881823267640527  1.0000
  C   C12       1.0  0.8112374141730783  0.1238012246804345  0.11181788346247859  1.0000
  C   C13       1.0  0.1265040208616242  0.8090242042693703  0.7696627706791759  1.0000
  C   C14       1.0  0.8734972850581002  0.1909753971262091  0.2303374720732165  1.0000
  C   C15       1.0  0.30750037527089097  0.9158021912464847  0.6857132719437189  1.0000
  C   C16       1.0  0.6925008313223558  0.0841965342879263  0.3142866132906406  1.0000
  C   C17       1.0  0.40491396837504834  0.741109929134808  0.7046528608472755  1.0000
  C   C18       1.0  0.5950872382181985  0.2588887963996029  0.295347024387091  1.0000
  C   C19       1.0  0.7638196649990263  0.6232899603854278  0.9358983748183363  1.0000
  C   C20       1.0  0.2361780763486792  0.3767113927324885  0.06410100369155461  1.0000
  C   C21       1.0  0.8303116507262658  0.6817344245481749  0.04480018042565349  1.0000
  C   C22       1.0  0.16968473688663727  0.318266052708573  0.9551973263393378  1.0000
  C   C23       1.0  0.8236105180395159  0.6255750821783934  0.11379110988377053  1.0000
  C   C24       1.0  0.17639158249204465  0.37443152610655517  0.886210511311944  1.0000
  C   C25       1.0  0.7524455956943471  0.5105272140325852  0.07250157096009259  1.0000
  C   C26       1.0  0.24755841769498235  0.4894741390853383  0.9274972293286226  1.0000
  C   C27       1.0  0.6858925912700542  0.45174379159698214  0.9634289638351561  1.0000
  C   C28       1.0  0.3141063051595054  0.5482566856597657  0.036571571383547094  1.0000
  C   C29       1.0  0.6907522637178475  0.507936416691237  0.8939014778777832  1.0000
  C   C30       1.0  0.3092515510185265  0.4920631847043424  0.10609734822535447  1.0000
  C   C31       1.0  0.6134026036816211  0.44916438045085266  0.7776940010911275  1.0000
  C   C32       1.0  0.3865960940949762  0.5508343450835582  0.22230507824099993  1.0000
  C   C33       1.0  0.7712268226421133  0.2665263058034384  0.7030937477191228  1.0000
  C   C34       1.0  0.2287733281957713  0.7334741714533095  0.29690607917495276  1.0000
  C   C35       1.0  0.8891534404072061  0.45102733715979326  0.6998188604257933  1.0000
  C   C36       1.0  0.11084671043067121  0.5489731400969617  0.300181707318778  1.0000
  N   N1        1.0  0.25714742430050563  0.8011975088527805  0.6874544262960072  1.0000
  N   N2        1.0  0.742853881619226  0.1988020925427989  0.31254581645639223  1.0000
  N   N3        1.0  0.7332583926480396  0.3762883517873021  0.6934816949749917  1.0000
  N   N4        1.0  0.266740503781513  0.6237121254694529  0.3065180993932159  1.0000
  O   O1        1.0  0.9727490326925264  0.9590592227185724  0.6781744526701418  1.0000
  O   O2        1.0  0.027249665084070805  0.040939502815838594  0.32182462666199285  1.0000
  O   O3        1.0  0.2021676915924715  0.1109873757609208  0.6770866130917953  1.0000
  O   O4        1.0  0.7978323599189352  0.8890122256346586  0.3229128562842406  1.0000
  O   O5        1.0  0.122652409347964  0.9260042221565641  0.5099398423590956  1.0000
  O   O6        1.0  0.8773487972452828  0.0739945033778469  0.4900593020247683  1.0000
  O   O7        1.0  0.4406831249587171  0.6209365214211999  0.48356625271832604  1.0000
  O   O8        1.0  0.559316827226212  0.379062204113211  0.5164335999901722  1.0000
  O   O9        1.0  0.6439353460501707  0.5970920769246391  0.6219620346760023  1.0000
  O   O10       1.0  0.35606595986955364  0.40290752447094746  0.3780374672259015  1.0000
  O   O11       1.0  0.6680432021009894  0.7875524676827865  0.6047119033123991  1.0000
  O   O12       1.0  0.3319568494104175  0.2124471337127929  0.3952875660636365  1.0000
  O   O13       1.0  0.4859952067552485  0.207885648738575  0.7726776046753657  1.0000
  O   O14       1.0  0.514004944082629  0.7921148285181729  0.22732148136820746  1.0000
  O   O15       1.0  0.6510473764836817  0.0425922528439386  0.6456381899698937  1.0000
  O   O16       1.0  0.3489500668845977  0.9574064726904723  0.3543601159858768  1.0000
  O   O17       1.0  0.4884646048352792  0.1661132019499121  0.5697976519576713  1.0000
  O   O18       1.0  0.5115354466761204  0.8338863994456673  0.43020181741836444  1.0000
  O   O19       1.0  0.12063790698657333  0.2968670125991153  0.5957225802083173  1.0000
  O   O20       1.0  0.8793609894429865  0.7031334646576397  0.4042757324588991  1.0000
  O   O21       1.0  0.15424435860282415  0.5055584536142419  0.6163283843306074  1.0000
  O   O22       1.0  0.8457557922350605  0.4944420236425131  0.3836721834139638  1.0000
  O   O23       1.0  0.9269524395521955  0.3645929775820917  0.47877634148132137  1.0000
  O   O24       1.0  0.07304781061215952  0.6354083755358317  0.5212231020802988  1.0000
