data_image0
_chemical_formula_structural       Cd4H28C52N4O20
_chemical_formula_sum              "Cd4 H28 C52 N4 O20"
_cell_length_a       7.790876510237042
_cell_length_b       12.997398978598053
_cell_length_c       12.9086
_cell_angle_alpha    67.08204027847272
_cell_angle_beta     86.72269000599731
_cell_angle_gamma    86.71691274341356

_space_group_name_H-M_alt    "P 1"
_space_group_IT_number       1

loop_
  _space_group_symop_operation_xyz
  'x, y, z'

loop_
  _atom_site_type_symbol
  _atom_site_label
  _atom_site_symmetry_multiplicity
  _atom_site_fract_x
  _atom_site_fract_y
  _atom_site_fract_z
  _atom_site_occupancy
  Cd  Cd1       1.0  0.7138829667720259  0.0228241831412603  0.1599018936915826  1.0000
  Cd  Cd2       1.0  0.7856088108219056  0.8393446226837328  0.9753331859847876  1.0000
  Cd  Cd3       1.0  0.2861168062094493  0.9771758054065246  0.8400984285026425  1.0000
  Cd  Cd4       1.0  0.2143935334701084  0.1606553658640522  0.024667822167145886  1.0000
  H   H1        1.0  0.38574544148961115  0.1462213939075596  0.2388046225257838  1.0000
  H   H2        1.0  0.11275129452979368  0.7606528512081709  0.8521597555239139  1.0000
  H   H3        1.0  0.6142569028024029  0.8537785946402252  0.7611948362714573  1.0000
  H   H4        1.0  0.8872485274315097  0.23934630141143032  0.14784089274063916  1.0000
  H   H5        1.0  0.2850653638375675  0.2028388098230849  0.3979823514217813  1.0000
  H   H6        1.0  0.21509029473164532  0.6016467716515308  0.7968349768585482  1.0000
  H   H7        1.0  0.7149330745088065  0.7971620146528835  0.6020153650298852  1.0000
  H   H8        1.0  0.7849108618647663  0.3983515450398798  0.20316440376182504  1.0000
  H   H9        1.0  0.48875705694842964  0.173257819168974  0.5539804262128314  1.0000
  H   H10       1.0  0.012348652262026907  0.4460161701026736  0.8273751723496616  1.0000
  H   H11       1.0  0.5112401447225069  0.8267421693788038  0.44601921002368533  1.0000
  H   H12       1.0  0.9876486473685729  0.5539821465887371  0.17262589070485754  1.0000
  H   H13       1.0  0.8631182489682558  0.0372573191695693  0.3764738161942844  1.0000
  H   H14       1.0  0.6358513574480115  0.6231142433498462  0.9620249367625888  1.0000
  H   H15       1.0  0.1368814750333911  0.9627435053063991  0.623526954606959  1.0000
  H   H16       1.0  0.3641497011887367  0.3768857451979386  0.0379761157491671  1.0000
  H   H17       1.0  0.8484479690195884  0.2875659827885286  0.40988439514492825  1.0000
  H   H18       1.0  0.6503626628301619  0.5888169458805095  0.7120441059049937  1.0000
  H   H19       1.0  0.15155175498205153  0.7124348416874398  0.5901171503336612  1.0000
  H   H20       1.0  0.34963448986093953  0.41118387859545896  0.28795752829323357  1.0000
  H   H21       1.0  0.9774088260935088  0.4365852283285889  0.4526204588212153  1.0000
  H   H22       1.0  0.5196671025220283  0.5464638085000928  0.5626828393830293  1.0000
  H   H23       1.0  0.0225935671783404  0.5634139242910123  0.5473808754010533  1.0000
  H   H24       1.0  0.48033642946559496  0.45353785190405926  0.4373166975910862  1.0000
  H   H25       1.0  0.0686179805916751  0.3949342706228904  0.6491592118949114  1.0000
  H   H26       1.0  0.42960876889616634  0.3511709223957382  0.6042007019798276  1.0000
  H   H27       1.0  0.9313857962951034  0.6050632101403366  0.3508411807535055  1.0000
  H   H28       1.0  0.5703948120712852  0.6488299020802302  0.39579683703257723  1.0000
  C   C1        1.0  0.46910989455903274  0.135886813766362  0.3071347993580105  1.0000
  C   C2        1.0  0.029827369360170095  0.6924427832342346  0.8628719150677071  1.0000
  C   C3        1.0  0.5308910661180521  0.8641148466377899  0.6928640516583898  1.0000
  C   C4        1.0  0.9701725015809688  0.3075555334571831  0.1371298339445204  1.0000
  C   C5        1.0  0.4153371444029973  0.16814528239444124  0.39536734166122756  1.0000
  C   C6        1.0  0.08452643511362372  0.6043309370509817  0.8313171711923957  1.0000
  C   C7        1.0  0.5846613429232052  0.8318547061533436  0.604630700860774  1.0000
  C   C8        1.0  0.9154745745432892  0.3956698874249867  0.16868278057168604  1.0000
  C   C9        1.0  0.5270275738223873  0.1526471738594637  0.4812229058206938  1.0000
  C   C10       1.0  0.9734432415306173  0.5185931269108508  0.8474599771319332  1.0000
  C   C11       1.0  0.47297101146348564  0.8473511428319469  0.5187757888419711  1.0000
  C   C12       1.0  0.026556531450857807  0.481406861636934  0.15253957038494553  1.0000
  C   C13       1.0  0.6894585319659401  0.10400200503661242  0.47435806752223186  1.0000
  C   C14       1.0  0.8107097405197765  0.5252922553789858  0.8961394526504803  1.0000
  C   C15       1.0  0.3105386697049967  0.8959979835111724  0.5256423433916311  1.0000
  C   C16       1.0  0.18928884476608945  0.474706061312432  0.10386156604422325  1.0000
  C   C17       1.0  0.7359423324635301  0.0739913472958307  0.38388744303458827  1.0000
  C   C18       1.0  0.7632482092471309  0.6156761543668807  0.9253482245815545  1.0000
  C   C19       1.0  0.2640586771933827  0.9260094771801377  0.6161117340521401  1.0000
  C   C20       1.0  0.23675161271417272  0.3843229982527205  0.07465397303769092  1.0000
  C   C21       1.0  0.8659549028105857  0.1660044703147179  0.5804403129836899  1.0000
  C   C22       1.0  0.6343936149023861  0.41926981192117546  0.8342944075404972  1.0000
  C   C23       1.0  0.13404358451561652  0.833995518233067  0.4195600535703575  1.0000
  C   C24       1.0  0.365608582450129  0.58073268441116  0.16570329836840614  1.0000
  C   C25       1.0  0.88646227213021  0.2714158502698822  0.49490059852901414  1.0000
  C   C26       1.0  0.612719271002483  0.5042862160383521  0.7283732135857476  1.0000
  C   C27       1.0  0.11353616621616422  0.7285849742060861  0.5050994419546979  1.0000
  C   C28       1.0  0.3872804040193288  0.4957154443657998  0.2716264564678212  1.0000
  C   C29       1.0  0.9582843229173081  0.3548138974224599  0.5194403640155869  1.0000
  C   C30       1.0  0.5398541208603119  0.4799414795300406  0.6447228550262025  1.0000
  C   C31       1.0  0.0417141644089014  0.6451860911253249  0.4805607772157999  1.0000
  C   C32       1.0  0.4601493621474759  0.5200610168022948  0.35527403184553924  1.0000
  C   C33       1.0  0.008563053846003804  0.332477060412586  0.6279552106752034  1.0000
  C   C34       1.0  0.4902404173540235  0.372079158138817  0.6669953572307464  1.0000
  C   C35       1.0  0.9914381027504008  0.6675212562788317  0.37204571929986224  1.0000
  C   C36       1.0  0.5097618779581623  0.6279216663371514  0.3330030008188202  1.0000
  C   C37       1.0  0.9886955946953933  0.2264905618666972  0.7134819001294588  1.0000
  C   C38       1.0  0.5113146543829857  0.2869699659931939  0.7734430929385141  1.0000
  C   C39       1.0  0.011306847556284106  0.7735077548247205  0.28651898548579163  1.0000
  C   C40       1.0  0.4886824983081157  0.7130308584827745  0.22655621722766736  1.0000
  C   C41       1.0  0.9160038086497908  0.1416112499717244  0.6903043719987707  1.0000
  C   C42       1.0  0.5846113107354256  0.3101159814853673  0.8586664306542459  1.0000
  C   C43       1.0  0.08399729896678562  0.8583879026478769  0.30969545722862085  1.0000
  C   C44       1.0  0.41538579297584033  0.6898856789187846  0.1413341027963071  1.0000
  C   C45       1.0  0.0561062931728955  0.2045382518215533  0.8265002017046825  1.0000
  C   C46       1.0  0.4441425011791794  0.1745041880916105  0.795669125499586  1.0000
  C   C47       1.0  0.943893528788408  0.7954609007980481  0.17350044655987767  1.0000
  C   C48       1.0  0.5558558881873665  0.8254974723125414  0.20433058891379824  1.0000
  C   C49       1.0  0.8900957021535661  0.0257064635203648  0.7782050148182833  1.0000
  C   C50       1.0  0.6100912881156193  0.2223552251394807  0.9750508139806726  1.0000
  C   C51       1.0  0.10990545444284551  0.974291853171053  0.2217959151567826  1.0000
  C   C52       1.0  0.3899071012509197  0.7776464352646714  0.02494890043271167  1.0000
  N   N1        1.0  0.6266730842293385  0.0900110750177419  0.3015955125853722  1.0000
  N   N2        1.0  0.8718948833199462  0.6979181128407106  0.9085845106422069  1.0000
  N   N3        1.0  0.3733279254275743  0.9099897494582264  0.6984028898240098  1.0000
  N   N4        1.0  0.12810365298609133  0.3020810397788907  0.09141618198216146  1.0000
  O   O1        1.0  0.8046547419433951  0.0779971151544885  0.5594844329428028  1.0000
  O   O2        1.0  0.696414236491222  0.44012622011683794  0.9227675776700366  1.0000
  O   O3        1.0  0.19534369640297916  0.9220037093214728  0.4405156075409096  1.0000
  O   O4        1.0  0.3035842508349873  0.5598737684309469  0.07723201420665761  1.0000
  O   O5        1.0  0.1050656887149799  0.2860905695434255  0.8472072336504936  1.0000
  O   O6        1.0  0.3943355665515043  0.1541092122536227  0.7136439532569766  1.0000
  O   O7        1.0  0.8949328475910578  0.7139085830761758  0.15279190961918934  1.0000
  O   O8        1.0  0.6056655410650721  0.8458899403659785  0.28635587597041473  1.0000
  O   O9        1.0  0.07225415512217383  0.10338509003667438  0.8976217483387996  1.0000
  O   O10       1.0  0.4288868451694512  0.1036107906464068  0.8974502029672351  1.0000
  O   O11       1.0  0.9277482381496756  0.8966140625829269  0.10238036056081508  1.0000
  O   O12       1.0  0.5711128298523606  0.8963908697577452  0.10254946708633375  1.0000
  O   O13       1.0  0.745041091127334  0.006538630256770299  0.8297630152712969  1.0000
  O   O14       1.0  0.7543220314289274  0.17003197230616962  0.9939705181071545  1.0000
  O   O15       1.0  0.25496001648924255  0.9934605223628239  0.17023758863344093  1.0000
  O   O16       1.0  0.2456751702420093  0.8299680162416152  0.006029118129362101  1.0000
  O   O17       1.0  0.010984561494616728  0.9513406089457986  0.7935227560268813  1.0000
  O   O18       1.0  0.4891333576356872  0.207669638799544  0.04971366342065411  1.0000
  O   O19       1.0  0.9890178807570609  0.0486577077456189  0.20647890426571539  1.0000
  O   O20       1.0  0.5108663173861245  0.7923320216046079  0.9502875559876073  1.0000
