data_image0
_chemical_formula_structural       Cd8H40C24S8N40O24
_chemical_formula_sum              "Cd8 H40 C24 S8 N40 O24"
_cell_length_a       8.90648843600133
_cell_length_b       10.720202516548364
_cell_length_c       19.907974544298824
_cell_angle_alpha    100.90073992461629
_cell_angle_beta     90.00000772161532
_cell_angle_gamma    89.99993938257869

_space_group_name_H-M_alt    "P 1"
_space_group_IT_number       1

loop_
  _space_group_symop_operation_xyz
  'x, y, z'

loop_
  _atom_site_type_symbol
  _atom_site_label
  _atom_site_symmetry_multiplicity
  _atom_site_fract_x
  _atom_site_fract_y
  _atom_site_fract_z
  _atom_site_occupancy
  Cd  Cd1       1.0  0.7053710964782526  0.1341337027468725  0.17699951664439337  1.0000
  Cd  Cd2       1.0  0.7053665653220592  0.3658562911574493  0.8229999004376438  1.0000
  Cd  Cd3       1.0  0.2946331123692261  0.8658569588455979  0.8230005385881752  1.0000
  Cd  Cd4       1.0  0.29463315241774524  0.634134372410337  0.1770011596179515  1.0000
  Cd  Cd5       1.0  0.7881131284361373  0.0039049679073102014  0.3423561677532944  1.0000
  Cd  Cd6       1.0  0.7881139976507399  0.4960944475919435  0.6576432036104974  1.0000
  Cd  Cd7       1.0  0.21188546652108903  0.9960942393676293  0.6576427437674042  1.0000
  Cd  Cd8       1.0  0.2118890884148144  0.5039038087358065  0.3423551092837656  1.0000
  H   H1        1.0  0.49766133110007627  0.9485448187277259  0.07435678331611231  1.0000
  H   H2        1.0  0.4976740624971754  0.5514529757119462  0.9256455809247369  1.0000
  H   H3        1.0  0.5023338955267534  0.05145439446852861  0.9256451426734741  1.0000
  H   H4        1.0  0.5023368830075655  0.44854528653197445  0.0743557464382079  1.0000
  H   H5        1.0  0.41905917625492606  0.7984784219741953  0.0685553161154644  1.0000
  H   H6        1.0  0.4190593736860535  0.7015127890529984  0.9314433630443374  1.0000
  H   H7        1.0  0.5809405414815458  0.20151698546626318  0.9314432105457013  1.0000
  H   H8        1.0  0.5809437123843892  0.29847787155335953  0.0685561897767855  1.0000
  H   H9        1.0  0.9790109299940822  0.20042692896316083  0.44271629706543075  1.0000
  H   H10       1.0  0.979014255386325  0.29957516004802914  0.5572828535085534  1.0000
  H   H11       1.0  0.020987664961438703  0.7995751281872432  0.5572829030999031  1.0000
  H   H12       1.0  0.0209910762315175  0.7004259471407934  0.4427162504417764  1.0000
  H   H13       1.0  0.0614359665570134  0.3475231368205415  0.44815260999707357  1.0000
  H   H14       1.0  0.061438349045325  0.15247789622707592  0.5518468843152531  1.0000
  H   H15       1.0  0.9385615056221966  0.6524779713585149  0.5518469963648726  1.0000
  H   H16       1.0  0.9385669825725174  0.8475232109617469  0.4481522196350767  1.0000
  H   H17       1.0  0.115965829991886  0.327088062924851  0.08600286122523931  1.0000
  H   H18       1.0  0.1159649343986331  0.17291196710989007  0.9139950276317633  1.0000
  H   H19       1.0  0.8840338877400171  0.6729149441835249  0.9139964351549565  1.0000
  H   H20       1.0  0.884033660559581  0.8270853382748131  0.0860026866362347  1.0000
  H   H21       1.0  0.0387705120346524  0.18962763510757705  0.11244165558280629  1.0000
  H   H22       1.0  0.03876943830152161  0.31037246683239067  0.8875567385256035  1.0000
  H   H23       1.0  0.9612303284753522  0.810373472083306  0.8875574483676089  1.0000
  H   H24       1.0  0.961228033879891  0.6896248405260794  0.1124419805653574  1.0000
  H   H25       1.0  0.19956784922250392  0.2692096118551888  0.15592398628152884  1.0000
  H   H26       1.0  0.19956798265346262  0.23079034038816815  0.8440733970883515  1.0000
  H   H27       1.0  0.80043074573301  0.730792445295215  0.8440752138838049  1.0000
  H   H28       1.0  0.8004317350800747  0.7692098158581118  0.15592510823573488  1.0000
  H   H29       1.0  0.6678442958492212  0.5430286882949248  0.34056434046883766  1.0000
  H   H30       1.0  0.667844091162479  0.9569689537519256  0.6594400271572809  1.0000
  H   H31       1.0  0.33214643966969254  0.45697052391676635  0.6594370831093598  1.0000
  H   H32       1.0  0.3321533810201415  0.043027411541089605  0.3405626150105689  1.0000
  H   H33       1.0  0.7869248332790377  0.6354165382590796  0.2965641438145568  1.0000
  H   H34       1.0  0.7869236339093817  0.8645790944732286  0.7034400270009797  1.0000
  H   H35       1.0  0.21306590224084943  0.36458172892727  0.7034396956061142  1.0000
  H   H36       1.0  0.21307383827397078  0.13541632283455132  0.2965635237749352  1.0000
  H   H37       1.0  0.640239689478399  0.5393934407619057  0.2508399498012821  1.0000
  H   H38       1.0  0.640237263361712  0.9606013777571863  0.7491646326072611  1.0000
  H   H39       1.0  0.3597544143711389  0.4606067253532445  0.7491635796376173  1.0000
  H   H40       1.0  0.3597568404923948  0.0393911886900469  0.2508381271126082  1.0000
  C   C1        1.0  0.9590534677008122  0.31719247807139794  0.2559909931077797  1.0000
  C   C2        1.0  0.9590513829112625  0.1828048784979046  0.7440071747146461  1.0000
  C   C3        1.0  0.0409473728104146  0.6828067301891354  0.7440084208243434  1.0000
  C   C4        1.0  0.0409472120480956  0.8171905269698172  0.25599034712359264  1.0000
  C   C5        1.0  0.553414059937019  0.8073618429549686  0.2563551401837714  1.0000
  C   C6        1.0  0.5534142084510307  0.6926321004370878  0.7436468371467128  1.0000
  C   C7        1.0  0.44657779836080647  0.19263452234062586  0.743647501984185  1.0000
  C   C8        1.0  0.4465888776184244  0.30736046205950635  0.25635391292710347  1.0000
  C   C9        1.0  0.9852243230960057  0.2661846896092755  0.3549323427888922  1.0000
  C   C10       1.0  0.9852221437793319  0.2338183436547468  0.6450669037714859  1.0000
  C   C11       1.0  0.0147787629684899  0.7338154676220868  0.6450666649466044  1.0000
  C   C12       1.0  0.0147775739537153  0.7661827635366479  0.3549322001789506  1.0000
  C   C13       1.0  0.5231765016819452  0.8664670620194034  0.15919233485827528  1.0000
  C   C14       1.0  0.5231789997057136  0.6335231063566554  0.8408077514906438  1.0000
  C   C15       1.0  0.4768176021719199  0.13352550146794334  0.8408089176271788  1.0000
  C   C16       1.0  0.4768308230266456  0.36646755621986676  0.1591928061532926  1.0000
  C   C17       1.0  0.094018944135847  0.28111113047145153  0.1297604610555894  1.0000
  C   C18       1.0  0.09401910060388731  0.21888797075332184  0.8702378348053867  1.0000
  C   C19       1.0  0.9059807735972782  0.7188899777065816  0.8702391453063141  1.0000
  C   C20       1.0  0.9059806171314406  0.7811093366041252  0.12976088428553822  1.0000
  C   C21       1.0  0.6730303617898983  0.5985961998643818  0.299606016843164  1.0000
  C   C22       1.0  0.6730291159901681  0.9014014334720459  0.7003963409463053  1.0000
  C   C23       1.0  0.3269626192828525  0.40140301135964773  0.7003949043235237  1.0000
  C   C24       1.0  0.32696723341598505  0.09859398087636614  0.2996057025952154  1.0000
  S   S1        1.0  0.9719956603434385  0.3918881214484529  0.1854168271321512  1.0000
  S   S2        1.0  0.9719936902763775  0.10811112413455252  0.8145820350553803  1.0000
  S   S3        1.0  0.028004057389686896  0.6081129867295801  0.8145827792297523  1.0000
  S   S4        1.0  0.028007150235829694  0.8918861822357442  0.1854161816240492  1.0000
  S   S5        1.0  0.5408266672464137  0.7282901555299548  0.3252463813419766  1.0000
  S   S6        1.0  0.5408255733926381  0.7717056983569252  0.674755286469896  1.0000
  S   S7        1.0  0.45916406827249984  0.2717090566817363  0.674755042236221  1.0000
  S   S8        1.0  0.4591741443471663  0.2282849652108681  0.3252457735856993  1.0000
  N   N1        1.0  0.6289072709354214  0.9154621180036032  0.2599389971209192  1.0000
  N   N2        1.0  0.6289097973221445  0.5845308031141772  0.7400613739829112  1.0000
  N   N3        1.0  0.37108571013871483  0.0845351962633387  0.7400632388504248  1.0000
  N   N4        1.0  0.371093288747808  0.4154608084372954  0.259938777464555  1.0000
  N   N5        1.0  0.8731610930685038  0.21564163206654302  0.25618129868489337  1.0000
  N   N6        1.0  0.8731566372896397  0.28435485345377043  0.743816776082596  1.0000
  N   N7        1.0  0.12684199299778243  0.7843556762759791  0.7438179228174348  1.0000
  N   N8        1.0  0.1268419576697895  0.7156405530005829  0.2561812481671168  1.0000
  N   N9        1.0  0.6105004316920885  0.954290374980822  0.1983993574474212  1.0000
  N   N10       1.0  0.6105063939704038  0.545702564032176  0.8016015167449879  1.0000
  N   N11       1.0  0.38949367216113023  0.04570313747838381  0.8016014888414417  1.0000
  N   N12       1.0  0.389500060429441  0.45429094940799075  0.19839983195512187  1.0000
  N   N13       1.0  0.8897344348969298  0.18141078563186144  0.318955617936183  1.0000
  N   N14       1.0  0.889729916838654  0.318587585566334  0.6810431510628161  1.0000
  N   N15       1.0  0.1102686511693562  0.8185865227106603  0.6810436035661452  1.0000
  N   N16       1.0  0.11026643256629139  0.68140877084754  0.3189549694018154  1.0000
  N   N17       1.0  0.4837030949935651  0.7736949443182798  0.1942200030922336  1.0000
  N   N18       1.0  0.48370883564115985  0.726297164183578  0.8057822867844563  1.0000
  N   N19       1.0  0.5162865177509132  0.22630047101985443  0.8057825428608821  1.0000
  N   N20       1.0  0.5162998643115343  0.27369825015915694  0.1942197567568371  1.0000
  N   N21       1.0  0.03147014842106441  0.35236703579053613  0.31711645384180537  1.0000
  N   N22       1.0  0.03146921034244339  0.14763307186950672  0.682881438123701  1.0000
  N   N23       1.0  0.9685295693125509  0.6476331214423754  0.682882553893748  1.0000
  N   N24       1.0  0.9685293846151167  0.8523651824870554  0.317115869947706  1.0000
  N   N25       1.0  0.7607958797600459  0.061961513744975626  0.0323265657753353  1.0000
  N   N26       1.0  0.7607935511715951  0.43805027137903363  0.9676715453295512  1.0000
  N   N27       1.0  0.23920496074359218  0.9380500420026652  0.9676730941272706  1.0000
  N   N28       1.0  0.23920167543689533  0.5619783826373635  0.03232934402949892  1.0000
  N   N29       1.0  0.4852805220924166  0.8685980281376333  0.0942141545294533  1.0000
  N   N30       1.0  0.48529539400894356  0.6313997796484259  0.9057892149897739  1.0000
  N   N31       1.0  0.5147079678727381  0.13140118604834333  0.9057882738717279  1.0000
  N   N32       1.0  0.5147222881573016  0.3685994364974052  0.09421421823380878  1.0000
  N   N33       1.0  0.03680565685254319  0.26140353649710607  0.4185445251150951  1.0000
  N   N34       1.0  0.036806819681160605  0.23859751819203726  0.5814544676919055  1.0000
  N   N35       1.0  0.9631940608812286  0.7385966227090606  0.5814554874433994  1.0000
  N   N36       1.0  0.9631940208288441  0.7614035889988461  0.4185446362585097  1.0000
  N   N37       1.0  0.7222105909693753  0.07418519597403872  0.4821800617662931  1.0000
  N   N38       1.0  0.722208134035398  0.42581523002919425  0.5178194082369245  1.0000
  N   N39       1.0  0.27779698620433635  0.9258130642981687  0.5178202607737745  1.0000
  N   N40       1.0  0.277797197581549  0.5741868231716013  0.482177782282406  1.0000
  O   O1        1.0  0.8506798017985631  0.05450550633977261  0.08248519527476357  1.0000
  O   O2        1.0  0.8506774480188356  0.44549289580336204  0.9175110631036176  1.0000
  O   O3        1.0  0.1493221614857987  0.9454993967380362  0.9175122838892589  1.0000
  O   O4        1.0  0.14931890138080917  0.5545120082636573  0.0824869184719788  1.0000
  O   O5        1.0  0.6290705376937495  0.10906892372227618  0.0486328356695225  1.0000
  O   O6        1.0  0.6290693848465808  0.3909353866944515  0.951366520208239  1.0000
  O   O7        1.0  0.3709280572611958  0.8909340833866113  0.9513664607106875  1.0000
  O   O8        1.0  0.37093370121366576  0.6090723741513387  0.0486352668921697  1.0000
  O   O9        1.0  0.6215311831293917  0.05877554175199151  0.43542484277256216  1.0000
  O   O10       1.0  0.6215309676357279  0.4412211798692384  0.5645757533094056  1.0000
  O   O11       1.0  0.37847302571596236  0.9412189216476962  0.5645766021424662  1.0000
  O   O12       1.0  0.37847436398244133  0.5587789744012073  0.4354217471916328  1.0000
  O   O13       1.0  0.8608847862299526  0.04769081053856182  0.4616123281905685  1.0000
  O   O14       1.0  0.8608834259208109  0.45231043901077345  0.5383877353373023  1.0000
  O   O15       1.0  0.13912054538877072  0.952309350638288  0.5383886891907679  1.0000
  O   O16       1.0  0.1391219056963777  0.5476916171499085  0.46161096241643657  1.0000
  O   O17       1.0  0.6936785691852948  0.11210170989209439  0.5430176592152378  1.0000
  O   O18       1.0  0.6936761396641202  0.38789874330981894  0.4569823142491102  1.0000
  O   O19       1.0  0.30633013076602106  0.8878956014077416  0.45698306952139933  1.0000
  O   O20       1.0  0.30633368305765174  0.6121080577081061  0.5430143525215811  1.0000
  O   O21       1.0  0.799145622120399  0.025251873831699398  0.9724860401944255  1.0000
  O   O22       1.0  0.7991362117472961  0.4747817191895366  0.027511267973125118  1.0000
  O   O23       1.0  0.2008608322590746  0.974773926357557  0.02751255087390093  1.0000
  O   O24       1.0  0.2008432959584212  0.5252877731828322  0.9724887345112733  1.0000
