data_image0
_chemical_formula_structural       Ba4P4H36C20N4O30
_chemical_formula_sum              "Ba4 P4 H36 C20 N4 O30"
_cell_length_a       5.10741749916466
_cell_length_b       11.111397197813359
_cell_length_c       18.472662646632358
_cell_angle_alpha    101.65522413119355
_cell_angle_beta     90.0033307860644
_cell_angle_gamma    103.28142048407632

_space_group_name_H-M_alt    "P 1"
_space_group_IT_number       1

loop_
  _space_group_symop_operation_xyz
  'x, y, z'

loop_
  _atom_site_type_symbol
  _atom_site_label
  _atom_site_symmetry_multiplicity
  _atom_site_fract_x
  _atom_site_fract_y
  _atom_site_fract_z
  _atom_site_occupancy
  Ba  Ba1       1.0  0.19709973321463542  0.10144329185624203  0.6116751792541208  1.0000
  Ba  Ba2       1.0  0.09557181435324212  0.8984946496969072  0.8882618778448119  1.0000
  Ba  Ba3       1.0  0.8028961544444615  0.8985632519847899  0.38832522971265604  1.0000
  Ba  Ba4       1.0  0.9044165898075108  0.1014930060753017  0.11173792703024081  1.0000
  P   P1        1.0  0.4901876973605397  0.17217979401267772  0.4473668333418744  1.0000
  P   P2        1.0  0.31846104248904095  0.8280675360516984  0.0525613493653623  1.0000
  P   P3        1.0  0.5098228318573065  0.8278286226165791  0.5526321726222037  1.0000
  P   P4        1.0  0.6815311268944912  0.1719276526175335  0.947436637385657  1.0000
  H   H1        1.0  0.8252165153709046  0.2573963085938828  0.5434666578148253  1.0000
  H   H2        1.0  0.5678233820477844  0.7426632750381189  0.9564914189180271  1.0000
  H   H3        1.0  0.17478517821557202  0.7426140163362333  0.4565341972296437  1.0000
  H   H4        1.0  0.432194730802344  0.2573328938687638  0.0435099318033423  1.0000
  H   H5        1.0  0.35581132272687205  0.054511786762212515  0.786656101550264  1.0000
  H   H6        1.0  0.3018006354486005  0.9457680795361725  0.7135091799166915  1.0000
  H   H7        1.0  0.644178396138763  0.9454863317875993  0.2133508924085135  1.0000
  H   H8        1.0  0.6982123451157705  0.054241323472879806  0.28649373188144983  1.0000
  H   H9        1.0  0.7353583780830351  0.3306380064141195  0.35493313611603133  1.0000
  H   H10       1.0  0.40526226282777605  0.6695541382623845  0.1449590481011356  1.0000
  H   H11       1.0  0.2646102752924976  0.6693571414044615  0.6450610561476823  1.0000
  H   H12       1.0  0.5947445220692275  0.3304467865885457  0.8550455702941164  1.0000
  H   H13       1.0  0.24699074853818812  0.3385317353447803  0.4402500087613604  1.0000
  H   H14       1.0  0.9089680087074328  0.66207876909872  0.059844866638542306  1.0000
  H   H15       1.0  0.7529978268851922  0.6614719315942568  0.5597462713174792  1.0000
  H   H16       1.0  0.09104378472100905  0.3379165074586226  0.9401612509207594  1.0000
  H   H17       1.0  0.5854784747231749  0.40056892148014367  0.4781352312675439  1.0000
  H   H18       1.0  0.18484543607147697  0.5996623940890657  0.021755529070084385  1.0000
  H   H19       1.0  0.4145080190203814  0.599442331289815  0.5218641090371108  1.0000
  H   H20       1.0  0.8151425105001309  0.4003243457702083  0.9782468745124361  1.0000
  H   H21       1.0  0.43528469683131027  0.5288938781575255  0.3826598356805491  1.0000
  H   H22       1.0  0.9070431702584331  0.47136607982600526  0.11699585143013284  1.0000
  H   H23       1.0  0.5647273677261496  0.4711097767652674  0.6173353604906994  1.0000
  H   H24       1.0  0.09298236066580054  0.5286253449296937  0.883003315675083  1.0000
  H   H25       1.0  0.6229456595435822  0.5003315763105576  0.30200629161220144  1.0000
  H   H26       1.0  0.12262816785376171  0.4996416342484764  0.1977368672109705  1.0000
  H   H27       1.0  0.37707240851670326  0.49966450448483374  0.6979869284510158  1.0000
  H   H28       1.0  0.8773710447938259  0.5003441425710307  0.8022637988180747  1.0000
  H   H29       1.0  0.2124395481954339  0.3192112093898133  0.28611192691109727  1.0000
  H   H30       1.0  0.893535999111947  0.6811819016747692  0.2137321931226097  1.0000
  H   H31       1.0  0.78752791263328  0.6807972194790609  0.7138881628104343  1.0000
  H   H32       1.0  0.10646063843478261  0.3188104745735245  0.786267627313201  1.0000
  H   H33       1.0  0.26600240656040347  0.18397549345871772  0.314745377510036  1.0000
  H   H34       1.0  0.08376121917269336  0.816456736366341  0.18538020854562376  1.0000
  H   H35       1.0  0.7339709638767077  0.8160330058323311  0.6852612167830545  1.0000
  H   H36       1.0  0.9162211516253367  0.18353843479227552  0.8146161519986919  1.0000
  C   C1        1.0  0.4550219195702425  0.3288859173340981  0.435404164662728  1.0000
  C   C2        1.0  0.12656294207023683  0.6714436541923163  0.06455440943778969  1.0000
  C   C3        1.0  0.544977807132753  0.6711243899960593  0.5645950642350996  1.0000
  C   C4        1.0  0.8734376382014164  0.32854877487820033  0.9354502894229383  1.0000
  C   C5        1.0  0.6051929176354564  0.4911001090059202  0.3599839677563352  1.0000
  C   C6        1.0  0.11461886969607356  0.5090738436876165  0.13978696963066284  1.0000
  C   C7        1.0  0.3948210459563415  0.5089073446729274  0.6400133005942195  1.0000
  C   C8        1.0  0.8854066112949611  0.49092139746877456  0.8602158957704731  1.0000
  C   C9        1.0  0.8728476829767616  0.5579568831724304  0.40241655138581933  1.0000
  C   C10       1.0  0.3155136750978826  0.44223596714523683  0.09741713914777249  1.0000
  C   C11       1.0  0.12716535349279218  0.4420487151841358  0.5975837462041511  1.0000
  C   C12       1.0  0.684529226661269  0.5577706231524999  0.9025876065303394  1.0000
  C   C13       1.0  0.3683962339877739  0.2719764342273833  0.29859763631503  1.0000
  C   C14       1.0  0.09706993958988622  0.7281664494367277  0.2013470719722221  1.0000
  C   C15       1.0  0.631577165480607  0.7280282075442913  0.7014014653750067  1.0000
  C   C16       1.0  0.9029226993267446  0.2718296786418363  0.7986504842468349  1.0000
  C   C17       1.0  0.5345711383964088  0.23872364064469312  0.2318322168454827  1.0000
  C   C18       1.0  0.2960835884660398  0.7608710137382034  0.2681772476708062  1.0000
  C   C19       1.0  0.46539180377480005  0.7612639977956094  0.7681659617027634  1.0000
  C   C20       1.0  0.7039040628210885  0.23913080375264434  0.7318226036913346  1.0000
  N   N1        1.0  0.5489981935802889  0.3536179063430113  0.3618826163252393  1.0000
  N   N2        1.0  0.19594328304003042  0.6465825865113503  0.13801185821792222  1.0000
  N   N3        1.0  0.4509903818430844  0.6463857605960187  0.6381136637536073  1.0000
  N   N4        1.0  0.8040635667201245  0.35341455130939187  0.8619917721007937  1.0000
  O   O1        1.0  0.21675356258985096  0.0871989031859144  0.4540930279411342  1.0000
  O   O2        1.0  0.13033302435077604  0.9131970186948097  0.04590265760573691  1.0000
  O   O3        1.0  0.7832732054035179  0.9128028316208017  0.545899235107008  1.0000
  O   O4        1.0  0.8696685858955105  0.08678963877071061  0.9540921574675991  1.0000
  O   O5        1.0  0.6654555313806655  0.12768873333079972  0.3861054890937226  1.0000
  O   O6        1.0  0.5384441788583632  0.872324258920841  0.11378724499535049  1.0000
  O   O7        1.0  0.33457655293368316  0.8723197182973408  0.613896769298762  1.0000
  O   O8        1.0  0.4615583473948348  0.1276681466309384  0.8862152857048786  1.0000
  O   O9        1.0  0.630763763371995  0.19916113176641656  0.5274443627630845  1.0000
  O   O10       1.0  0.43162533321261526  0.8009487249408308  0.9724462882247167  1.0000
  O   O11       1.0  0.36923287772182795  0.8008586696061782  0.47255977550101136  1.0000
  O   O12       1.0  0.5683826472171989  0.1990389247339053  0.027552974756595502  1.0000
  O   O13       1.0  0.9104950282607547  0.6783259085395487  0.4230769020970442  1.0000
  O   O14       1.0  0.23261659653948658  0.3218437087586069  0.0768299704254503  1.0000
  O   O15       1.0  0.08952475021639121  0.3216853438506746  0.5769224384628444  1.0000
  O   O16       1.0  0.7673959763689525  0.6781609619368183  0.9231718417842387  1.0000
  O   O17       1.0  0.032753979403857235  0.49239683610760215  0.4129129467588585  1.0000
  O   O18       1.0  0.5409750519659087  0.5077435671098343  0.0869176784002619  1.0000
  O   O19       1.0  0.9672448201769015  0.5076116159002739  0.5870893113783922  1.0000
  O   O20       1.0  0.4590680034074667  0.4922554961203076  0.9130894274757964  1.0000
  O   O21       1.0  0.4079953150676162  0.15677652968054195  0.17777418439514042  1.0000
  O   O22       1.0  0.25109311809927704  0.8425436474035166  0.3223377761485366  1.0000
  O   O23       1.0  0.5919841557527191  0.8432167568076352  0.8222224951542003  1.0000
  O   O24       1.0  0.7488870524079588  0.1574627908824269  0.6776528759083434  1.0000
  O   O25       1.0  0.7845074104390762  0.28969011914502124  0.23595781130936902  1.0000
  O   O26       1.0  0.4949276380054146  0.7098177679839426  0.26401298214842944  1.0000
  O   O27       1.0  0.21546439125143013  0.7102956579872027  0.7640428545094906  1.0000
  O   O28       1.0  0.5050702493830601  0.2901888580721491  0.7359950154476282  1.0000
  O   O29       1.0  0.21518170192158695  0.00021194712726210112  0.7499950292073407  1.0000
  O   O30       1.0  0.7848162234561189  0.999790839031739  0.2500071019172978  1.0000
