data_image0
_chemical_formula_structural       Zn8H48C84O26
_chemical_formula_sum              "Zn8 H48 C84 O26"
_cell_length_a       24.282012208315578
_cell_length_b       24.40917359558422
_cell_length_c       24.437799138256516
_cell_angle_alpha    60.624707339733014
_cell_angle_beta     60.54313566557386
_cell_angle_gamma    60.51875388191971

_space_group_name_H-M_alt    "P 1"
_space_group_IT_number       1

loop_
  _space_group_symop_operation_xyz
  'x, y, z'

loop_
  _atom_site_type_symbol
  _atom_site_label
  _atom_site_symmetry_multiplicity
  _atom_site_fract_x
  _atom_site_fract_y
  _atom_site_fract_z
  _atom_site_occupancy
  Zn  Zn1       1.0  0.9626104405737903  0.1077104787952976  0.9594525833870123  1.0000
  Zn  Zn2       1.0  0.9614360444046423  0.9784746336208985  0.9568181102773822  1.0000
  Zn  Zn3       1.0  0.9606474982897807  0.9777361281220251  0.08870134906428022  1.0000
  Zn  Zn4       1.0  0.09260318229204491  0.9769189160906537  0.9606548486315842  1.0000
  Zn  Zn5       1.0  0.5278970958133582  0.4127255921501958  0.5226318841829566  1.0000
  Zn  Zn6       1.0  0.5273099937831062  0.5445764037038006  0.5231219742755825  1.0000
  Zn  Zn7       1.0  0.39599930809596623  0.5424386683254241  0.5254444485110811  1.0000
  Zn  Zn8       1.0  0.5256191956829567  0.5411662543961742  0.3940961478863159  1.0000
  H   H1        1.0  0.8741156876399998  0.24574480412486815  0.8109962056184158  1.0000
  H   H2        1.0  0.8047332547804017  0.3181842426037278  0.7367981258170457  1.0000
  H   H3        1.0  0.7438047326293855  0.15442955440637718  0.7914119453806449  1.0000
  H   H4        1.0  0.8161176218978454  0.0817911046728312  0.8627396955509782  1.0000
  H   H5        1.0  0.7469371951317425  0.2063403931867356  0.6833592921729946  1.0000
  H   H6        1.0  0.6736073397063366  0.2783678978508561  0.6130225579908951  1.0000
  H   H7        1.0  0.6257263961295648  0.4454009269120078  0.6640325460610799  1.0000
  H   H8        1.0  0.6965983438986001  0.37348185205370044  0.7368412654835197  1.0000
  H   H9        1.0  0.8192946790823611  0.2448876036233827  0.05980144792442832  1.0000
  H   H10       1.0  0.7468755609967346  0.3164279984162022  0.131807602531886  1.0000
  H   H11       1.0  0.7990288025394957  0.1487984364072474  0.29867131795433743  1.0000
  H   H12       1.0  0.8687707227535097  0.07719394784497521  0.2266963726281689  1.0000
  H   H13       1.0  0.6910467444559103  0.20265576007400193  0.35056442658861897  1.0000
  H   H14       1.0  0.6198317569598117  0.2745223536617871  0.4223175842750565  1.0000
  H   H15       1.0  0.6746278089711165  0.4404982633462994  0.2574883579827586  1.0000
  H   H16       1.0  0.748985592469104  0.3683480741977405  0.18613826028739305  1.0000
  H   H17       1.0  0.06508318085385408  0.24329269028838504  0.867984768391615  1.0000
  H   H18       1.0  0.13690602324928847  0.31524421344564507  0.7953829880147865  1.0000
  H   H19       1.0  0.3021391168930733  0.1489051847466882  0.737740046307067  1.0000
  H   H20       1.0  0.23052514013313186  0.0768634504720396  0.8130103694015959  1.0000
  H   H21       1.0  0.3567656638851701  0.20274493269928237  0.7399983606190189  1.0000
  H   H22       1.0  0.4283311459539973  0.2749752198386588  0.6669130150333301  1.0000
  H   H23       1.0  0.25995814004308215  0.44000080206758696  0.6150620372125033  1.0000
  H   H24       1.0  0.18852020025698826  0.3676018757829098  0.6851681059091134  1.0000
  H   H25       1.0  0.8691311252584057  0.8311273871775455  0.055579234117502284  1.0000
  H   H26       1.0  0.7997978916536185  0.756700953505444  0.12731316828234907  1.0000
  H   H27       1.0  0.7433984219348702  0.8147166569360353  0.2932385198721831  1.0000
  H   H28       1.0  0.8153094416038016  0.8865553489008274  0.2216046179800915  1.0000
  H   H29       1.0  0.749520051351908  0.704762709447998  0.34554794351195295  1.0000
  H   H30       1.0  0.6753329307532354  0.6352534975783259  0.4189266258847509  1.0000
  H   H31       1.0  0.6180095383996258  0.6858146439141137  0.2551587601622461  1.0000
  H   H32       1.0  0.6892814690422994  0.7582848881438906  0.1818863917039767  1.0000
  H   H33       1.0  0.0634854567594303  0.884109926888506  0.8132247200559417  1.0000
  H   H34       1.0  0.13575216946880897  0.812810317604267  0.7409602612470039  1.0000
  H   H35       1.0  0.30236350214702407  0.7584321676166325  0.7984430523047691  1.0000
  H   H36       1.0  0.23016247286761166  0.8320998003678357  0.8683488417834935  1.0000
  H   H37       1.0  0.3559168766988492  0.7606398650369856  0.6897046422189206  1.0000
  H   H38       1.0  0.4277521462339423  0.6878353587195606  0.6188852772331971  1.0000
  H   H39       1.0  0.2602508222697678  0.6339003796378222  0.6709112145394658  1.0000
  H   H40       1.0  0.18865425435221542  0.7038939801254217  0.7445060505044765  1.0000
  H   H41       1.0  0.05898083939485597  0.8316593576456481  0.22781742573378247  1.0000
  H   H42       1.0  0.13006461675089298  0.758018721768842  0.3003842347027613  1.0000
  H   H43       1.0  0.2983944451438846  0.8138311094675289  0.1372316604524357  1.0000
  H   H44       1.0  0.2274000321073545  0.884870213689936  0.06453653215464794  1.0000
  H   H45       1.0  0.3506703622557836  0.7047198030341804  0.18844021366287939  1.0000
  H   H46       1.0  0.42287347551342697  0.6332993797581637  0.25995522366996926  1.0000
  H   H47       1.0  0.25630513460490073  0.6850581891928229  0.42709088546121887  1.0000
  H   H48       1.0  0.18394874099714537  0.7586560959033051  0.35575406619403094  1.0000
  C   C1        1.0  0.8919366369015689  0.11563562327223312  0.8851129450605558  1.0000
  C   C2        1.0  0.8495468371139835  0.15925627687921215  0.8412828486343216  1.0000
  C   C3        1.0  0.8454534716515308  0.22625472973201977  0.8061641323346722  1.0000
  C   C4        1.0  0.8060787719414648  0.266672739178837  0.7652099054826281  1.0000
  C   C5        1.0  0.7691397899297598  0.2416239673148581  0.7586455781632608  1.0000
  C   C6        1.0  0.7733529501790669  0.1744158840815686  0.7944164509565894  1.0000
  C   C7        1.0  0.8131722822902389  0.13369983101708982  0.8349061031759959  1.0000
  C   C8        1.0  0.7269577314958081  0.284547700373146  0.7155673895479638  1.0000
  C   C9        1.0  0.719610903586279  0.25846618664160553  0.6802837167857164  1.0000
  C   C10       1.0  0.6791682931190406  0.2985615237293971  0.640411711305994  1.0000
  C   C11       1.0  0.645208795709017  0.3661910980532355  0.634298903949599  1.0000
  C   C12       1.0  0.6525784284634213  0.3929119524194675  0.6687215495139256  1.0000
  C   C13       1.0  0.6927466914506938  0.35253416013406985  0.7089024138043243  1.0000
  C   C14       1.0  0.6013338792147278  0.4089601901146764  0.5919928276469905  1.0000
  C   C15       1.0  0.8907417119822512  0.11375211972777072  0.09582252275167495  1.0000
  C   C16       1.0  0.8483154212437256  0.15671993301202036  0.13890003011250235  1.0000
  C   C17       1.0  0.8143846456680419  0.22444181924561238  0.11225220572939086  1.0000
  C   C18       1.0  0.7744884854940323  0.2642763106241119  0.1526215053098738  1.0000
  C   C19       1.0  0.767741026749711  0.2378211746223187  0.22048518279395785  1.0000
  C   C20       1.0  0.8023427659431235  0.16988577082948103  0.24658818096045823  1.0000
  C   C21       1.0  0.8418712862724574  0.12975236000394832  0.2065072499359175  1.0000
  C   C22       1.0  0.7251976897319281  0.2802977343943169  0.2631210830700893  1.0000
  C   C23       1.0  0.6886884534199852  0.25444898358897217  0.33026752723044667  1.0000
  C   C24       1.0  0.6483004438446824  0.2945015062445151  0.37042713902749835  1.0000
  C   C25       1.0  0.6427319334703583  0.36188844661385394  0.3442122127660097  1.0000
  C   C26       1.0  0.6788226204876011  0.3882292798328778  0.2773503511417272  1.0000
  C   C27       1.0  0.7197412261910469  0.3478229336008667  0.23755213027994423  1.0000
  C   C28       1.0  0.598842810491682  0.4051147816604583  0.387019278949751  1.0000
  C   C29       1.0  0.1003512056241433  0.11257832111598282  0.8893477137202978  1.0000
  C   C30       1.0  0.143461256427095  0.1556508746319096  0.8451172381614923  1.0000
  C   C31       1.0  0.11715919575120634  0.2231689599311438  0.8392689756389657  1.0000
  C   C32       1.0  0.15737091102715786  0.26327841606660485  0.7981159375844058  1.0000
  C   C33       1.0  0.224793705116987  0.2372976371539579  0.7612733057547914  1.0000
  C   C34       1.0  0.25052493217854993  0.16958390598833262  0.7671731113252278  1.0000
  C   C35       1.0  0.21059442754619784  0.1291939999447251  0.8087117515851717  1.0000
  C   C36       1.0  0.26740978980515  0.27994388990306623  0.7179570146194081  1.0000
  C   C37       1.0  0.3355851036349832  0.2544088870093404  0.7116709804026655  1.0000
  C   C38       1.0  0.3756685960538206  0.29467310472978175  0.6714264311808975  1.0000
  C   C39       1.0  0.3483776311066221  0.3619004726269779  0.6368657180543382  1.0000
  C   C40       1.0  0.2805409168136136  0.3878725469646156  0.6426427716938364  1.0000
  C   C41       1.0  0.24075908815955663  0.3473152804989041  0.6824102171581431  1.0000
  C   C42       1.0  0.3910842673579396  0.40539444824813137  0.5945671660167235  1.0000
  C   C43       1.0  0.8889976439312973  0.9071075043301278  0.09166900623905157  1.0000
  C   C44       1.0  0.8465447466211201  0.8633109371797405  0.13423788789493324  1.0000
  C   C45       1.0  0.8413585928586117  0.8270792287451982  0.10777449000363491  1.0000
  C   C46       1.0  0.8020617073678765  0.7859764364353908  0.1479984163108554  1.0000
  C   C47       1.0  0.7665235450020443  0.7802420853446107  0.21556088714748983  1.0000
  C   C48       1.0  0.7718710689310341  0.8171031911155423  0.24145821215253008  1.0000
  C   C49       1.0  0.8114249551051385  0.8578735359108834  0.20153118483158045  1.0000
  C   C50       1.0  0.7244070110690187  0.7370596211258233  0.25846100052658744  1.0000
  C   C51       1.0  0.7197431419971635  0.7018740300204841  0.32575320549373277  1.0000
  C   C52       1.0  0.6788730457702029  0.6624534941349509  0.3668756042948048  1.0000
  C   C53       1.0  0.6419867769874299  0.6565237237044173  0.34157559271311316  1.0000
  C   C54       1.0  0.6469840065102871  0.690537113067279  0.27437257895907413  1.0000
  C   C55       1.0  0.6874121844339527  0.7304631864339514  0.23353055086352723  1.0000
  C   C56       1.0  0.5978250782816729  0.6145030521198579  0.38578370556918173  1.0000
  C   C57       1.0  0.09908647025946493  0.9059031524651431  0.8878161399283471  1.0000
  C   C58       1.0  0.1424204721799924  0.8624718865618707  0.845160631814714  1.0000
  C   C59       1.0  0.11592233366756222  0.8563058862359157  0.8095757158061615  1.0000
  C   C60       1.0  0.15642272419526643  0.8159379140875985  0.7697219848844484  1.0000
  C   C61       1.0  0.22430739734302554  0.7803678036075399  0.7645264372006082  1.0000
  C   C62       1.0  0.25029663330301594  0.7867990010579717  0.8005939302787224  1.0000
  C   C63       1.0  0.21005598885948717  0.8273862968736342  0.8402260181012835  1.0000
  C   C64       1.0  0.26705394787591524  0.737572756832414  0.7221830778055959  1.0000
  C   C65       1.0  0.3350194824434922  0.7319604888349146  0.6867134329794736  1.0000
  C   C66       1.0  0.3752354390395139  0.6918766243094582  0.6465630823324702  1.0000
  C   C67       1.0  0.34831697417643415  0.6566503895852166  0.640389960738311  1.0000
  C   C68       1.0  0.2806431753536955  0.661863715913853  0.6755248491129038  1.0000
  C   C69       1.0  0.24073434860601134  0.7015449919344832  0.7160508318288735  1.0000
  C   C70       1.0  0.3910834916911483  0.6141346240555381  0.5968161968043901  1.0000
  C   C71       1.0  0.0965179552414099  0.9056934302525479  0.09786442400392996  1.0000
  C   C72       1.0  0.13890437924983703  0.8625612216889494  0.14168922654722843  1.0000
  C   C73       1.0  0.1115647077871955  0.8272556246805111  0.20853638117887396  1.0000
  C   C74       1.0  0.15142560667502644  0.7866322383658044  0.24901019658889817  1.0000
  C   C75       1.0  0.21951068399827284  0.780445697876786  0.22406912374209753  1.0000
  C   C76       1.0  0.24622651786519606  0.8165416518937147  0.1570678108212107  1.0000
  C   C77       1.0  0.2066599190017797  0.856833521309106  0.11633251021819294  1.0000
  C   C78       1.0  0.2620492855963832  0.7371428957878052  0.26678674741039293  1.0000
  C   C79       1.0  0.3299396449024527  0.7015175069965737  0.24049496374426851  1.0000
  C   C80       1.0  0.3704281013423127  0.6610751328822175  0.28030136856361315  1.0000
  C   C81       1.0  0.3439607893524722  0.6548799588832992  0.34781196034875717  1.0000
  C   C82       1.0  0.2763151870202166  0.6898086166768778  0.37469674262766967  1.0000
  C   C83       1.0  0.23603044230821263  0.7304498457041646  0.3346438685965652  1.0000
  C   C84       1.0  0.38753689691110077  0.6117470947974936  0.3903846254453213  1.0000
  O   O1        1.0  0.9943699645959398  0.010076484342612  0.9912270313363933  1.0000
  O   O2        1.0  0.8993378962759733  0.05353129570148241  0.9096230038136923  1.0000
  O   O3        1.0  0.9174564030321972  0.1438667869604302  0.8946948910473367  1.0000
  O   O4        1.0  0.5758219984005776  0.4711447823090609  0.5844646415972222  1.0000
  O   O5        1.0  0.5926470738946037  0.37979788542182297  0.5668142911146461  1.0000
  O   O6        1.0  0.9152988457975153  0.05140296377447131  0.12457040722794961  1.0000
  O   O7        1.0  0.8991479912305065  0.14267773766547265  0.03360850916051566  1.0000
  O   O8        1.0  0.5892637108427508  0.46760463442203104  0.35813762716223624  1.0000
  O   O9        1.0  0.5742007391926123  0.3763166436036727  0.4492206207938949  1.0000
  O   O10       1.0  0.12916250323165462  0.050186972435305705  0.8978703306956178  1.0000
  O   O11       1.0  0.0380032568493718  0.14153416683411993  0.9152087139059262  1.0000
  O   O12       1.0  0.36128077975641293  0.46777854661200297  0.571517058542689  1.0000
  O   O13       1.0  0.4540003061167965  0.37676965007536733  0.5849338750922755  1.0000
  O   O14       1.0  0.896565864749036  0.9328629740050828  0.1211323019145641  1.0000
  O   O15       1.0  0.9144091518369635  0.9153638162522172  0.029389482825763678  1.0000
  O   O16       1.0  0.5721878736298508  0.6046988940483118  0.35787442534232383  1.0000
  O   O17       1.0  0.5891340879231847  0.5917882922565099  0.4479684491153223  1.0000
  O   O18       1.0  0.1277724075297684  0.9133175130080103  0.9146024747228624  1.0000
  O   O19       1.0  0.03678457635901814  0.9322119221994716  0.8941702999882322  1.0000
  O   O20       1.0  0.3616462277595787  0.5889767090985175  0.5883070268941921  1.0000
  O   O21       1.0  0.4536953875234033  0.6062568231784907  0.5713841714875797  1.0000
  O   O22       1.0  0.12621863934668912  0.9311188224175239  0.036084485654555486  1.0000
  O   O23       1.0  0.03385524175222796  0.913790779909171  0.12553077023437703  1.0000
  O   O24       1.0  0.3595042613998131  0.6053263380685436  0.4522592625332181  1.0000
  O   O25       1.0  0.4495557179571249  0.5846612239112403  0.3615208589566236  1.0000
  O   O26       1.0  0.4942173460727446  0.5103319624201818  0.4915577645022822  1.0000
