data_image0
_chemical_formula_structural       Cu12H66C96N24
_chemical_formula_sum              "Cu12 H66 C96 N24"
_cell_length_a       25.717923003872652
_cell_length_b       27.51840424142474
_cell_length_c       28.04299525852498
_cell_angle_alpha    90.966656824734
_cell_angle_beta     91.09631684676512
_cell_angle_gamma    90.26144817654618

_space_group_name_H-M_alt    "P 1"
_space_group_IT_number       1

loop_
  _space_group_symop_operation_xyz
  'x, y, z'

loop_
  _atom_site_type_symbol
  _atom_site_label
  _atom_site_symmetry_multiplicity
  _atom_site_fract_x
  _atom_site_fract_y
  _atom_site_fract_z
  _atom_site_occupancy
  Cu  Cu1       1.0  0.7782431303449828  0.7585043042165293  0.8454928964132975  1.0000
  Cu  Cu2       1.0  0.8872854864413284  0.7729509713963549  0.800556041327269  1.0000
  Cu  Cu3       1.0  0.7890373130212894  0.8280728219661454  0.7571748724666492  1.0000
  Cu  Cu4       1.0  0.7637396748342837  0.2160612848485996  0.15216521460327928  1.0000
  Cu  Cu5       1.0  0.8478170016577097  0.2021248712450826  0.2365136995270518  1.0000
  Cu  Cu6       1.0  0.7830056027335388  0.11334732017358815  0.19953430149578108  1.0000
  Cu  Cu7       1.0  0.2561239273940005  0.7987158573801237  0.1331752813032097  1.0000
  Cu  Cu8       1.0  0.17735827512828453  0.7965490522222466  0.21784315679190064  1.0000
  Cu  Cu9       1.0  0.23346259573500563  0.8953512326000562  0.1879812010934003  1.0000
  Cu  Cu10      1.0  0.1850114806853469  0.24158241472091646  0.8708565437031978  1.0000
  Cu  Cu11      1.0  0.08513524917505319  0.20930022999258566  0.813707558683106  1.0000
  Cu  Cu12      1.0  0.19570632016922934  0.16861143651896524  0.7828890166967568  1.0000
  H   H1        1.0  0.8014659649839828  0.6693285995063715  0.9147798041106511  1.0000
  H   H2        1.0  0.9562070064505124  0.7043151911444523  0.8670231147390695  1.0000
  H   H3        1.0  0.6901373949615889  0.8949854749294416  0.7700538695619129  1.0000
  H   H4        1.0  0.6829266454046774  0.8065179265879932  0.8960223587238332  1.0000
  H   H5        1.0  0.9766449454032654  0.8258605717961413  0.7443271443079594  1.0000
  H   H6        1.0  0.8406793036172004  0.8816722752013105  0.6704640362514809  1.0000
  H   H7        1.0  0.8041438985450216  0.3125428307569819  0.10705285357838079  1.0000
  H   H8        1.0  0.9265853211189068  0.28390890669690083  0.2107454296154145  1.0000
  H   H9        1.0  0.7137423621016552  0.046494297880215585  0.1321407280120752  1.0000
  H   H10       1.0  0.6740417797204614  0.18738341185918017  0.0756178843612716  1.0000
  H   H11       1.0  0.9105210076180725  0.15613045264066014  0.3243475268280918  1.0000
  H   H12       1.0  0.836148381681639  0.029062023174056192  0.2595699633957977  1.0000
  H   H13       1.0  0.2113628137943522  0.714018059722086  0.0686560914895082  1.0000
  H   H14       1.0  0.1087615538773647  0.7048078144149128  0.18889763965832168  1.0000
  H   H15       1.0  0.3012308166126445  0.9696826362396818  0.1273176287364635  1.0000
  H   H16       1.0  0.3498358699093842  0.8311934081187643  0.0678391582446096  1.0000
  H   H17       1.0  0.11446929861403993  0.8336889190476026  0.3073105652797139  1.0000
  H   H18       1.0  0.1735199926040494  0.9695521086291446  0.2537571872521269  1.0000
  H   H19       1.0  0.1394689236066995  0.3220878961223761  0.941149162127374  1.0000
  H   H20       1.0  0.998355047340013  0.2630768812749195  0.8755888135926355  1.0000
  H   H21       1.0  0.3004974459140612  0.1161101966078419  0.8099473900478387  1.0000
  H   H22       1.0  0.2798133018679323  0.20971593597184315  0.9337511667453029  1.0000
  H   H23       1.0  0.012243173035429303  0.14416931153702708  0.7464417583975093  1.0000
  H   H24       1.0  0.16290599716591467  0.1042176069307672  0.6920568248838492  1.0000
  H   H25       1.0  0.0654551098856402  0.04489833604791468  0.5353593204716844  1.0000
  H   H26       1.0  0.9572550080423742  0.9252073326080958  0.5272998793100214  1.0000
  H   H27       1.0  0.06488284863720388  0.9275879405651248  0.4637833046951627  1.0000
  H   H28       1.0  0.9578032671211717  0.04703888680457169  0.4712793664810775  1.0000
  H   H29       1.0  0.006892841807868401  0.9837719975968608  0.6642551432297595  1.0000
  H   H30       1.0  0.008136773988518099  0.9934122589878167  0.3346683485261437  1.0000
  H   H31       1.0  0.0396280168133174  0.5378546131679582  0.1023843760740633  1.0000
  H   H32       1.0  0.9422898806011873  0.5472312767683362  0.976408408989073  1.0000
  H   H33       1.0  0.9180901420713069  0.4837066337021552  0.0905029108988344  1.0000
  H   H34       1.0  0.0419328973582864  0.4725379350826912  0.9899461060817387  1.0000
  H   H35       1.0  0.026937661229553104  0.6734217098035273  0.028558023000151398  1.0000
  H   H36       1.0  0.9667349108017619  0.3429617462284823  0.0391166354633228  1.0000
  H   H37       1.0  0.5490743270644886  0.052042977922788176  0.0136382139385915  1.0000
  H   H38       1.0  0.5364148547614748  0.9437096793112472  0.9015585631009982  1.0000
  H   H39       1.0  0.48051495603054667  0.05855713077966838  0.8947929306981236  1.0000
  H   H40       1.0  0.46993428035926144  0.9664892967241197  0.016687962146121994  1.0000
  H   H41       1.0  0.6801832782086522  0.9613997385829335  0.9816712550755469  1.0000
  H   H42       1.0  0.33554413226848107  0.045685136593682785  0.9683574913429638  1.0000
  H   H43       1.0  0.8850345607026144  0.6095672705584648  0.9520844927876837  1.0000
  H   H44       1.0  0.9799804397307099  0.6778403695454213  0.9537254957537513  1.0000
  H   H45       1.0  0.9553619300939075  0.33551912228106306  0.1256673468967975  1.0000
  H   H46       1.0  0.862006823375964  0.4003514946206081  0.1010197788112279  1.0000
  H   H47       1.0  0.116215340870184  0.6678930923897608  0.04963294393175488  1.0000
  H   H48       1.0  0.07358479409391801  0.6218749824727394  0.1401291965192115  1.0000
  H   H49       1.0  0.9844450677302706  0.32051153607126526  0.9603585351683607  1.0000
  H   H50       1.0  0.07715833459725023  0.3913048966128725  0.9683339688008203  1.0000
  H   H51       1.0  0.6076317600244822  0.9196709920608723  0.8405693774859415  1.0000
  H   H52       1.0  0.670070797584458  0.8934070950680277  0.9307953094876423  1.0000
  H   H53       1.0  0.3377914499303145  0.12639653162353423  0.9498476584448382  1.0000
  H   H54       1.0  0.39047561268822756  0.08992927292545255  0.8585893467666423  1.0000
  H   H55       1.0  0.6158457540125611  0.10570104855774788  0.03583123775995739  1.0000
  H   H56       1.0  0.6856687949494361  0.01638883510310049  0.049684294853094  1.0000
  H   H57       1.0  0.4056190883810871  0.9131701619460766  0.035918220670850994  1.0000
  H   H58       1.0  0.3311461081695769  0.9999893650466228  0.04244607650048239  1.0000
  H   H59       1.0  0.9946955872973505  0.9049278446792143  0.6828130113390926  1.0000
  H   H60       1.0  0.9109527105727439  0.9021311186883518  0.603087918931962  1.0000
  H   H61       1.0  0.0912745065213727  0.979112579394055  0.31620485725520814  1.0000
  H   H62       1.0  0.0851443281420501  0.8907582274226866  0.3815670596134879  1.0000
  H   H63       1.0  0.0112190309883644  0.064364791333432  0.683706127603145  1.0000
  H   H64       1.0  0.1047359555264578  0.06879905940987638  0.6172440488363619  1.0000
  H   H65       1.0  0.9224610553365696  0.009891213907856397  0.3191936489292502  1.0000
  H   H66       1.0  0.9361913873414239  0.0925436718319688  0.3935668449782384  1.0000
  C   C1        1.0  0.8357891712603092  0.683346386343842  0.8976104087588226  1.0000
  C   C2        1.0  0.8884642209567702  0.6721855231377769  0.9059321588892714  1.0000
  C   C3        1.0  0.9148995920442857  0.7019682434914286  0.873942157844418  1.0000
  C   C4        1.0  0.6943377267358315  0.8678787142641365  0.7975367658680595  1.0000
  C   C5        1.0  0.6692769489392774  0.8646618258021161  0.8414829463198218  1.0000
  C   C6        1.0  0.6915270045844794  0.8233306095420259  0.8623051745762069  1.0000
  C   C7        1.0  0.9379453386692235  0.8348891809439036  0.7312055192739919  1.0000
  C   C8        1.0  0.923240832896589  0.8655402545436031  0.6936979040623044  1.0000
  C   C9        1.0  0.8685797321006702  0.8627006800901211  0.6928356963810315  1.0000
  C   C10       1.0  0.828326991040818  0.30042802325880286  0.1366652234002785  1.0000
  C   C11       1.0  0.8793393302897458  0.31444747046000276  0.1497235090240423  1.0000
  C   C12       1.0  0.8912564268188987  0.28511489694451336  0.18896613177283678  1.0000
  C   C13       1.0  0.71017715414542  0.08463835927945235  0.12345320871877159  1.0000
  C   C14       1.0  0.6794177805448103  0.10671519789589466  0.0879723719074192  1.0000
  C   C15       1.0  0.689186551575844  0.15666834922733125  0.095220666396429  1.0000
  C   C16       1.0  0.8868223469093693  0.13007650361596024  0.3040613877295826  1.0000
  C   C17       1.0  0.8863673590399517  0.07898895584364846  0.3057108865518643  1.0000
  C   C18       1.0  0.8493861524567805  0.06519214905181057  0.2703755468381246  1.0000
  C   C19       1.0  0.19166100539523265  0.7172891882244129  0.10245753219358988  1.0000
  C   C20       1.0  0.14648419754505682  0.6935138074629775  0.1174989676585412  1.0000
  C   C21       1.0  0.1396585208935548  0.7119263309300335  0.16407034970315237  1.0000
  C   C22       1.0  0.30692946948659744  0.9318260530261566  0.1173607064536952  1.0000
  C   C23       1.0  0.3402870180765235  0.911287410994724  0.08334482713866008  1.0000
  C   C24       1.0  0.3325082757408495  0.8609798220191814  0.08772435904340627  1.0000
  C   C25       1.0  0.1346413899247807  0.8626597728862889  0.2893637577192507  1.0000
  C   C26       1.0  0.1304270033011434  0.9133457160604406  0.2954789968154188  1.0000
  C   C27       1.0  0.16422520208495683  0.9319794280991613  0.2613724579265408  1.0000
  C   C28       1.0  0.1098715606746694  0.3037136550691101  0.9193050027034814  1.0000
  C   C29       1.0  0.05536888098610861  0.3055009871067043  0.9223811433514156  1.0000
  C   C30       1.0  0.03786438288403101  0.2728240005129123  0.8863635086423756  1.0000
  C   C31       1.0  0.2896995641027615  0.14389351910281784  0.8357929729016434  1.0000
  C   C32       1.0  0.30855529235029167  0.15211970514659603  0.8827087911969541  1.0000
  C   C33       1.0  0.27854455331655004  0.1913082909932838  0.8991847465556971  1.0000
  C   C34       1.0  0.05318109320914031  0.13981221148828374  0.7387120065948949  1.0000
  C   C35       1.0  0.076544973312771  0.10988468674693758  0.7041479489529364  1.0000
  C   C36       1.0  0.12997981593531452  0.11992902821293676  0.71029544341922  1.0000
  C   C37       1.0  0.0416801632781727  0.018050819498426993  0.5532595632150787  1.0000
  C   C38       1.0  0.011728634031228998  0.9849497681880589  0.5259064936264578  1.0000
  C   C39       1.0  0.9804749289869364  0.9510524608319384  0.5487302144060564  1.0000
  C   C40       1.0  0.9789412108426491  0.9496240438651139  0.5988334802792963  1.0000
  C   C41       1.0  0.008591246670079001  0.9838122211171194  0.6254281677292539  1.0000
  C   C42       1.0  0.039722603696581905  0.01853653869548569  0.6033951455355434  1.0000
  C   C43       1.0  0.011388852934352703  0.9870311475597829  0.4729138361922621  1.0000
  C   C44       1.0  0.04058379134327341  0.9543169909511701  0.445763680059045  1.0000
  C   C45       1.0  0.041176412833387105  0.9573193088200678  0.3957046676080651  1.0000
  C   C46       1.0  0.0090469264741628  0.9916025681316468  0.3734856703198801  1.0000
  C   C47       1.0  0.97823145054479  0.023797815612901695  0.3998636082361741  1.0000
  C   C48       1.0  0.9811374744604822  0.022112016625470698  0.44994525130970686  1.0000
  C   C49       1.0  0.022854299783183804  0.5595434086353277  0.07376110319015788  1.0000
  C   C50       1.0  0.9892174889162817  0.5373776458690428  0.0399363070085315  1.0000
  C   C51       1.0  0.9679491894611375  0.5648887679821611  0.0029313512418483  1.0000
  C   C52       1.0  0.9806281512557006  0.6144328661156776  0.9986654682408441  1.0000
  C   C53       1.0  0.016792578413507904  0.6350110217509196  0.03137046573469599  1.0000
  C   C54       1.0  0.0381321034948385  0.608356751436382  0.0691923025977843  1.0000
  C   C55       1.0  0.9808624049202452  0.4837339591049028  0.0403913500927331  1.0000
  C   C56       1.0  0.9431344613253145  0.46147514827878666  0.0680641181049779  1.0000
  C   C57       1.0  0.9386311221315468  0.4104235889994071  0.06861217647355031  1.0000
  C   C58       1.0  0.970843912264833  0.38243343574140437  0.0392470971611445  1.0000
  C   C59       1.0  0.007738263205403902  0.40406897977877765  0.0099442527388049  1.0000
  C   C60       1.0  0.013042092627642901  0.4548917247518529  0.011929851874626298  1.0000
  C   C61       1.0  0.5675550618242653  0.024382610940698195  0.9914908238536384  1.0000
  C   C62       1.0  0.5375383756726961  0.9999732414186508  0.9563828452237217  1.0000
  C   C63       1.0  0.5600387952605885  0.9633383752370503  0.928339843821483  1.0000
  C   C64       1.0  0.6118968432016062  0.9492494747926938  0.9372388299087573  1.0000
  C   C65       1.0  0.6402390095372539  0.9728446128445467  0.9742395300615172  1.0000
  C   C66       1.0  0.61967674866019  0.011783065930856694  0.0005261138673588982  1.0000
  C   C67       1.0  0.48073079300417026  0.010710002674343896  0.9551512944062566  1.0000
  C   C68       1.0  0.45741435596389834  0.0426175436711631  0.9228518229537812  1.0000
  C   C69       1.0  0.40523541412755293  0.05678369127820559  0.9282606886347295  1.0000
  C   C70       1.0  0.3766151164563852  0.03655529596728969  0.9652996750409953  1.0000
  C   C71       1.0  0.3983922671036311  0.0026505367195142  0.9965359711343991  1.0000
  C   C72       1.0  0.45113053895853744  0.9908544624951289  0.9914557852490162  1.0000
  C   C73       1.0  0.9100866964969896  0.6394552866060721  0.9410819211676511  1.0000
  C   C74       1.0  0.9574265942929686  0.6453814827782691  0.9622542380381063  1.0000
  C   C75       1.0  0.914395479751832  0.3462890845889176  0.1248054954685927  1.0000
  C   C76       1.0  0.9015071416202503  0.3858292370067104  0.0993799636033401  1.0000
  C   C77       1.0  0.11245052740713389  0.6629766493100248  0.08808302187750168  1.0000
  C   C78       1.0  0.0758867805601895  0.6312895616316677  0.10246562882548459  1.0000
  C   C79       1.0  0.023972424602284503  0.3338935774406409  0.9547670941113112  1.0000
  C   C80       1.0  0.0393454541901122  0.37566315430053254  0.9769905942518805  1.0000
  C   C81       1.0  0.6346462954318779  0.8997922407563194  0.8635937225612977  1.0000
  C   C82       1.0  0.639052249090206  0.9113609583719507  0.9105086002194794  1.0000
  C   C83       1.0  0.3437182871958201  0.12326836504053057  0.9113438589136181  1.0000
  C   C84       1.0  0.37995287690117874  0.09138190618169519  0.8962173921905076  1.0000
  C   C85       1.0  0.6464302518170587  0.0833932634764523  0.05184903335008071  1.0000
  C   C86       1.0  0.6523232228447142  0.037005620934778  0.0362295325813022  1.0000
  C   C87       1.0  0.3734468093330677  0.9349110538555365  0.0495498190322508  1.0000
  C   C88       1.0  0.36579327211524776  0.9798004869843733  0.031944930057292695  1.0000
  C   C89       1.0  0.9570970565752789  0.8957503611553503  0.6659502118469405  1.0000
  C   C90       1.0  0.9462129833449567  0.9140987798171234  0.6224979300687039  1.0000
  C   C91       1.0  0.09793611899718971  0.9415486633700565  0.32694444582492116  1.0000
  C   C92       1.0  0.07584232534846788  0.9266478765150196  0.3675727272373877  1.0000
  C   C93       1.0  0.0500840297779845  0.07529066024213896  0.6725905167662134  1.0000
  C   C94       1.0  0.06803806536301239  0.05570057601801178  0.6315895335692048  1.0000
  C   C95       1.0  0.9182773216720721  0.04673931426574279  0.33393464363153674  1.0000
  C   C96       1.0  0.9430915129794926  0.05753751199144118  0.3757285123037235  1.0000
  N   N1        1.0  0.880601627931263  0.7288968845045429  0.8490326472500344  1.0000
  N   N2        1.0  0.8314028042560581  0.7176314241408476  0.8639736985415425  1.0000
  N   N3        1.0  0.7274426539433774  0.8039747959642933  0.8332716304915309  1.0000
  N   N4        1.0  0.7295819825583578  0.8318779311709505  0.793110361490463  1.0000
  N   N5        1.0  0.852246242276351  0.8328861986425123  0.7272261616021964  1.0000
  N   N6        1.0  0.8954776352876693  0.8153247462625113  0.7509063285454687  1.0000
  N   N7        1.0  0.8505486880348131  0.2560113520947809  0.1984369717848153  1.0000
  N   N8        1.0  0.8114841483824833  0.2651520287820403  0.1655634054127972  1.0000
  N   N9        1.0  0.7235352029599723  0.16360945238669436  0.1317300854060548  1.0000
  N   N10       1.0  0.7363013182928954  0.11875432505581064  0.1493271086000476  1.0000
  N   N11       1.0  0.8294149194327292  0.10487681849271266  0.2495365702350014  1.0000
  N   N12       1.0  0.8529301567396955  0.14523864940392164  0.2702415625252641  1.0000
  N   N13       1.0  0.17756125474458173  0.7443917823765317  0.1754685105002309  1.0000
  N   N14       1.0  0.21012739210040376  0.7474590136384761  0.1371983685061693  1.0000
  N   N15       1.0  0.2967946306609832  0.8523142176905053  0.1211328818184896  1.0000
  N   N16       1.0  0.2812156956489176  0.8963570444046097  0.1397715968565336  1.0000
  N   N17       1.0  0.18682061930982743  0.8953833431722343  0.23707973438668964  1.0000
  N   N18       1.0  0.16822015009648794  0.8522227362553707  0.254322315709679  1.0000
  N   N19       1.0  0.07872445919885254  0.25351886511679567  0.8634900552265065  1.0000
  N   N20       1.0  0.12346456114786973  0.27253756560499187  0.8841940570931612  1.0000
  N   N21       1.0  0.24448054633388952  0.20511647548032388  0.8649746836173619  1.0000
  N   N22       1.0  0.2511395108764988  0.17537614591842032  0.8255668466235947  1.0000
  N   N23       1.0  0.13758033704062464  0.1530236880900303  0.7458220352370047  1.0000
  N   N24       1.0  0.08971219565967913  0.1655954550815864  0.7633209616018135  1.0000
