data_image0
_chemical_formula_structural       Al2H6C8O14
_chemical_formula_sum              "Al2 H6 C8 O14"
_cell_length_a       6.679937249962318
_cell_length_b       8.871565365453426
_cell_length_c       8.871915552359395
_cell_angle_alpha    71.94105345693477
_cell_angle_beta     74.82713599377385
_cell_angle_gamma    74.83169536094627

_space_group_name_H-M_alt    "P 1"
_space_group_IT_number       1

loop_
  _space_group_symop_operation_xyz
  'x, y, z'

loop_
  _atom_site_type_symbol
  _atom_site_label
  _atom_site_symmetry_multiplicity
  _atom_site_fract_x
  _atom_site_fract_y
  _atom_site_fract_z
  _atom_site_occupancy
  Al  Al1       1.0  0.5000366480897468  0.5000186707366864  0.5000005326888585  1.0000
  Al  Al2       1.0  4.287565184305766e-05  0.5000202320349559  0.4999868016707226  1.0000
  H   H1        1.0  0.750050489274564  0.32865267183871794  0.671315584795238  1.0000
  H   H2        1.0  0.25000457782442714  0.6713471068839567  0.32863854327513314  1.0000
  H   H3        1.0  0.7215468764784987  0.13416359386678778  0.4747500682280264  1.0000
  H   H4        1.0  0.27845229102360486  0.8658146913574142  0.5252636175109162  1.0000
  H   H5        1.0  0.2215336140161526  0.4747650057854927  0.13417489975614671  1.0000
  H   H6        1.0  0.7784603102178522  0.5252370068931782  0.8657817965363821  1.0000
  C   C1        1.0  0.1543438891609482  0.48426458348738094  0.7867281180637707  1.0000
  C   C2        1.0  0.3456622989281399  0.21324043264922207  0.515746390779377  1.0000
  C   C3        1.0  0.8456574765416461  0.5157591456096213  0.21326145392388443  1.0000
  C   C4        1.0  0.6543540973957818  0.786753050577822  0.4842677190830431  1.0000
  C   C5        1.0  0.6035198173039544  0.9577216019898032  0.48823457020422023  1.0000
  C   C6        1.0  0.3964600115609755  0.04226956373690169  0.5117894966422797  1.0000
  C   C7        1.0  0.10353821968541152  0.48825160833956016  0.9577153183041109  1.0000
  C   C8        1.0  0.8964582775380093  0.5117518977182415  0.04226669362422805  1.0000
  O   O1        1.0  0.3476044366923006  0.46421767234912176  0.717487084255879  1.0000
  O   O2        1.0  0.15240726260118723  0.28249502826156464  0.5358343565274809  1.0000
  O   O3        1.0  0.0022170166408983926  0.4990104974725042  0.28142428981145434  1.0000
  O   O4        1.0  0.49781807746406065  0.718532405140067  0.5010014503973752  1.0000
  O   O5        1.0  0.6523959690097527  0.5358358781174033  0.2824809284202063  1.0000
  O   O6        1.0  0.847634803906402  0.7175060046199918  0.4641845511224292  1.0000
  O   O7        1.0  0.9977859729636193  0.5009974872696147  0.7185407974003087  1.0000
  O   O8        1.0  0.5021796849150988  0.28141898480834027  0.4990200616865722  1.0000
  O   O9        1.0  0.7498459292789974  0.42164287391565847  0.5783839755304784  1.0000
  O   O10       1.0  0.24994237586422932  0.5783932573912908  0.42162485552977813  1.0000
  O   O11       1.0  0.7754586684724315  0.02012528032224027  0.4684560281506267  1.0000
  O   O12       1.0  0.22451331524683835  0.9798920919591153  0.53160305623954  1.0000
  O   O13       1.0  0.2754825190350019  0.4684574999851209  0.020131281620543017  1.0000
  O   O14       1.0  0.7245220987028204  0.5315709846561277  0.9798578496899782  1.0000
