data_image0
_chemical_formula_structural       Nd4Ag4H24C48N16O32
_chemical_formula_sum              "Nd4 Ag4 H24 C48 N16 O32"
_cell_length_a       8.06767262
_cell_length_b       10.142623570988293
_cell_length_c       18.9178
_cell_angle_alpha    90.0
_cell_angle_beta     90.0
_cell_angle_gamma    95.54787435809591

_space_group_name_H-M_alt    "P 1"
_space_group_IT_number       1

loop_
  _space_group_symop_operation_xyz
  'x, y, z'

loop_
  _atom_site_type_symbol
  _atom_site_label
  _atom_site_symmetry_multiplicity
  _atom_site_fract_x
  _atom_site_fract_y
  _atom_site_fract_z
  _atom_site_occupancy
  Nd  Nd1       1.0  0.7599376333660927  0.6504305505384664  0.39437989618242864  1.0000
  Nd  Nd2       1.0  0.7400493010243994  0.3495701286020179  0.8943835964012763  1.0000
  Nd  Nd3       1.0  0.24003796434794117  0.3495622039756299  0.6056190466121834  1.0000
  Nd  Nd4       1.0  0.2599473328980721  0.6504325316950599  0.10562063242026203  1.0000
  Ag  Ag1       1.0  0.10429261381752751  0.1576019978483956  0.42202158813393  1.0000
  Ag  Ag2       1.0  0.3957135992398335  0.8424016530269826  0.922020530928542  1.0000
  Ag  Ag3       1.0  0.8957135750324596  0.8423976907137884  0.5779773546606891  1.0000
  Ag  Ag4       1.0  0.60429195208075  0.1576029884266958  0.07797735466068903  1.0000
  H   H1        1.0  0.5150057822677995  0.153685251256654  0.4160859085094444  1.0000
  H   H2        1.0  0.9849962670950422  0.8463174090404239  0.9160880229202136  1.0000
  H   H3        1.0  0.4850042455238254  0.8463154278838232  0.5839146200932461  1.0000
  H   H4        1.0  0.015006444004583803  0.1536842606783537  0.0839135628878651  1.0000
  H   H5        1.0  0.11745865690282642  0.8603915455036102  0.4219264396494324  1.0000
  H   H6        1.0  0.3825423573009773  0.1396101242151673  0.9219232680332823  1.0000
  H   H7        1.0  0.8825399744609967  0.1396071524802736  0.5780751461586462  1.0000
  H   H8        1.0  0.6174607149899104  0.860394517238511  0.0780746175559557  1.0000
  H   H9        1.0  0.317878402319117  0.6847382393240835  0.4112893676854625  1.0000
  H   H10       1.0  0.1821224914875899  0.3152624398163937  0.9112877818773839  1.0000
  H   H11       1.0  0.6821160289118071  0.3152564963466062  0.5887095751091564  1.0000
  H   H12       1.0  0.8178805808032976  0.6847422016372775  0.08871116091722801  1.0000
  H   H13       1.0  0.6197938871524328  0.4542841605223344  0.12104684477053243  1.0000
  H   H14       1.0  0.8802146005788246  0.5457204809313438  0.621046316167842  1.0000
  H   H15       1.0  0.3802110266387402  0.5457254338228381  0.8789542124348487  1.0000
  H   H16       1.0  0.119789590829825  0.4542831699440342  0.37895368383215816  1.0000
  H   H17       1.0  0.7614914711833409  0.1454000543691194  0.24455592087874584  1.0000
  H   H18       1.0  0.7385077379585496  0.8545996341930646  0.7445553922760553  1.0000
  H   H19       1.0  0.23850640225398223  0.8546026059279583  0.7554414361077946  1.0000
  H   H20       1.0  0.2614949731410761  0.1454020355257128  0.2554451363266352  1.0000
  H   H21       1.0  0.7980685066658424  0.3005880129043916  0.3491996955248525  1.0000
  H   H22       1.0  0.7019335426969989  0.6994146473926861  0.8492002241275429  1.0000
  H   H23       1.0  0.20193396363960403  0.6994116756577853  0.6507997758724571  1.0000
  H   H24       1.0  0.2980695295938887  0.3005899940609922  0.15079977587245713  1.0000
  C   C1        1.0  0.5811599818675859  0.9513296050285476  0.4091818287538729  1.0000
  C   C2        1.0  0.9188405871862387  0.0486710741119367  0.909180771548492  1.0000
  C   C3        1.0  0.41883904623146867  0.0486621589072485  0.590819757054206  1.0000
  C   C4        1.0  0.0811622443104767  0.9513315861851411  0.0908192284515081  1.0000
  C   C5        1.0  0.4706140412352724  0.0487067349306756  0.41443825391959177  1.0000
  C   C6        1.0  0.0293893316011378  0.9512939442098016  0.9144382539195917  1.0000
  C   C7        1.0  0.5293916660263704  0.9512889913183146  0.585562274683106  1.0000
  C   C8        1.0  0.9706121399836434  0.0487077255089758  0.0855617460804083  1.0000
  C   C9        1.0  0.2510280373597951  0.886125779116874  0.4181353011449502  1.0000
  C   C10       1.0  0.2489730972410911  0.11387688118020381  0.9181342439395694  1.0000
  C   C11       1.0  0.7489707144011107  0.11387390944531012  0.5818646988550498  1.0000
  C   C12       1.0  0.7510299750497966  0.8861277602734745  0.08186364164966162  1.0000
  C   C13       1.0  0.3619916870522388  0.7895265646167786  0.4123053420588008  1.0000
  C   C14       1.0  0.138009206754468  0.2104741145237057  0.9123016418399601  1.0000
  C   C15       1.0  0.6380051028112916  0.21046718047561802  0.5876988867627305  1.0000
  C   C16       1.0  0.861995105051264  0.7895305269299726  0.08769624374927083  1.0000
  C   C17       1.0  0.767685119743689  0.984120718439371  0.4080601338421985  1.0000
  C   C18       1.0  0.7323173263543908  0.015875007809619  0.9080611910475866  1.0000
  C   C19       1.0  0.23231666372321771  0.0158631208700371  0.5919388089524134  1.0000
  C   C20       1.0  0.2676852643481453  0.9841256713308582  0.09193986615780153  1.0000
  C   C21       1.0  0.6664473471660772  0.501649652437024  0.23067745720960892  1.0000
  C   C22       1.0  0.8335529810935682  0.4983490455468669  0.7306774572096089  1.0000
  C   C23       1.0  0.333563162213899  0.49835498901665437  0.7693220141876935  1.0000
  C   C24       1.0  0.1664382131811664  0.501649652437024  0.2693225427903911  1.0000
  C   C25       1.0  0.6573094727676722  0.4181349866800447  0.1720025584370291  1.0000
  C   C26       1.0  0.8426998932871756  0.5818666830387329  0.6720030870397196  1.0000
  C   C27       1.0  0.34269855758260803  0.5818696547736266  0.8279974415629711  1.0000
  C   C28       1.0  0.15730541723923616  0.41813597725834484  0.3279984987683592  1.0000
  C   C29       1.0  0.7382029241848616  0.2493562938911822  0.2398492425123422  1.0000
  C   C30       1.0  0.7618052023551345  0.7506453758275953  0.7398502997177232  1.0000
  C   C31       1.0  0.2618037462534772  0.7506473569841958  0.7601491716795792  1.0000
  C   C32       1.0  0.23820098649486  0.2493543127345887  0.2601523432957293  1.0000
  C   C33       1.0  0.7573806765231055  0.3345826789477329  0.297953250377951  1.0000
  C   C34       1.0  0.7426223715604082  0.6654180001927443  0.7979537789806415  1.0000
  C   C35       1.0  0.24262303329719262  0.6654170096144512  0.702045692416668  1.0000
  C   C36       1.0  0.2573774993182596  0.3345806977911394  0.20204780682743015  1.0000
  C   C37       1.0  0.6065054920440146  0.6384881385733578  0.22758988888771373  1.0000
  C   C38       1.0  0.8934963165246546  0.3615125405671265  0.7275914746957923  1.0000
  C   C39       1.0  0.3934978210410449  0.3615184840369139  0.772413811331127  1.0000
  C   C40       1.0  0.106497477176859  0.6384871479950576  0.2724132827284365  1.0000
  C   C41       1.0  0.9566344028744924  0.4322447839619771  0.487181384727613  1.0000
  C   C42       1.0  0.5433557329282195  0.5677618386482948  0.9871877279599134  1.0000
  C   C43       1.0  0.0433514366056116  0.5677608480699945  0.5128106862320153  1.0000
  C   C44       1.0  0.4566354258025385  0.4322467651185775  0.012813857848165402  1.0000
  C   C45       1.0  0.5432336428276159  0.5380187346615415  0.5319735910095247  1.0000
  C   C46       1.0  0.9567719198295707  0.4619720386959543  0.03198152004990361  1.0000
  C   C47       1.0  0.4567601015647611  0.4619601517563723  0.468017951347406  1.0000
  C   C48       1.0  0.043232512373251104  0.5380335933360172  0.9680242945797062  1.0000
  N   N1        1.0  0.5261031032353432  0.8217500766626388  0.4084814301874431  1.0000
  N   N2        1.0  0.973897345421392  0.1782496118995454  0.9084814301874431  1.0000
  N   N3        1.0  0.4738968031873014  0.1782387155382636  0.5915201556206355  1.0000
  N   N4        1.0  0.0261066051930783  0.8217520578192322  0.09151962701793792  1.0000
  N   N5        1.0  0.3054959393047412  0.0155025503694333  0.4195545993720202  1.0000
  N   N6        1.0  0.19450891384068575  0.9845001099276446  0.9195535421666392  1.0000
  N   N7        1.0  0.6945101291481636  0.9844961476144506  0.5804469864360584  1.0000
  N   N8        1.0  0.8054953979650464  0.0155045315260338  0.0804448720252893  1.0000
  N   N9        1.0  0.7227143011272332  0.46101315890313543  0.29302984490797  1.0000
  N   N10       1.0  0.7772887469562804  0.5389875202373489  0.7930303735106605  1.0000
  N   N11       1.0  0.2772895290901474  0.5389875202373489  0.70697015509203  1.0000
  N   N12       1.0  0.22271236343723197  0.4610111777465349  0.20697174090010154  1.0000
  N   N13       1.0  0.6911844414566917  0.2918015833978842  0.17639048938037402  1.0000
  N   N14       1.0  0.8088198461416739  0.708199095742593  0.676390489380374  1.0000
  N   N15       1.0  0.3088160314074102  0.7082020674774938  0.823608453414245  1.0000
  N   N16       1.0  0.19118658350249967  0.2918025739761845  0.3236110964277046  1.0000
  O   O1        1.0  0.8551701185630094  0.8860039379861746  0.4093414667667474  1.0000
  O   O2        1.0  0.6448288497847018  0.1139937694194089  0.9093425239721356  1.0000
  O   O3        1.0  0.1448273088299317  0.1139848542147277  0.5906601190413241  1.0000
  O   O4        1.0  0.3551727421971621  0.8860088908776689  0.0906580046305621  1.0000
  O   O5        1.0  0.8210698298385211  0.10516672620266831  0.40783019167133727  1.0000
  O   O6        1.0  0.6789354564805166  0.8948319717812154  0.9078301916713373  1.0000
  O   O7        1.0  0.1789413526148422  0.8948230565765343  0.5921682225205913  1.0000
  O   O8        1.0  0.3210697336488053  0.10516969793756202  0.0921650509044412  1.0000
  O   O9        1.0  0.6443446192392485  0.7147032328496722  0.2792481155314022  1.0000
  O   O10       1.0  0.8556561906087481  0.2852994274474057  0.7792502299421715  1.0000
  O   O11       1.0  0.35565697274261515  0.2852994274474057  0.7207524130712886  1.0000
  O   O12       1.0  0.1443330062246346  0.7147032328496722  0.2207513558659073  1.0000
  O   O13       1.0  0.5204076291634154  0.6639945391779918  0.17410216832823983  1.0000
  O   O14       1.0  0.9795959005084499  0.3360101022756794  0.6741032255336279  1.0000
  O   O15       1.0  0.47959640630416805  0.33601802690206745  0.8258983602744508  1.0000
  O   O16       1.0  0.020399132707908104  0.6639895862865046  0.3258973030690697  1.0000
  O   O17       1.0  0.8418495541978219  0.43613379436136773  0.4419673534977662  1.0000
  O   O18       1.0  0.6581493786059128  0.5638738188272043  0.9419689393058379  1.0000
  O   O19       1.0  0.1581474409159114  0.5638718376706109  0.5580321178995433  1.0000
  O   O20       1.0  0.3418493376110164  0.4361357755179611  0.0580294748860837  1.0000
  O   O21       1.0  0.009622268360537601  0.3289532224781198  0.5132536552876132  1.0000
  O   O22       1.0  0.49037118835708793  0.6710474566623645  0.013255769698382401  1.0000
  O   O23       1.0  0.9903684443258457  0.6710415131925771  0.48674317309623666  1.0000
  O   O24       1.0  0.5096269258744073  0.3289571847913138  0.9867452875070057  1.0000
  O   O25       1.0  0.6463171353962452  0.636404952411894  0.5173577265855442  1.0000
  O   O26       1.0  0.853677271627312  0.3635858209456018  0.0173624840097659  1.0000
  O   O27       1.0  0.35366197561213414  0.3635759151626203  0.4826417448117652  1.0000
  O   O28       1.0  0.1463220821190347  0.6364188205080694  0.9826391017983056  1.0000
  O   O29       1.0  0.5049964113333092  0.49440555334106767  0.5932085126177498  1.0000
  O   O30       1.0  0.9949984772785997  0.5055891823296221  0.09321221283659041  1.0000
  O   O31       1.0  0.49498194174857707  0.5055792765466407  0.4067872585607191  1.0000
  O   O32       1.0  0.004997157923199291  0.4944154591240491  0.9067914873822503  1.0000
