data_image0
_chemical_formula_structural       Na4H28C24S4N4Cl8O14
_chemical_formula_sum              "Na4 H28 C24 S4 N4 Cl8 O14"
_cell_length_a       6.3779387771562845
_cell_length_b       6.376854585368627
_cell_length_c       27.757975283007717
_cell_angle_alpha    93.85473369563844
_cell_angle_beta     93.10499028330881
_cell_angle_gamma    118.13095386029147

_space_group_name_H-M_alt    "P 1"
_space_group_IT_number       1

loop_
  _space_group_symop_operation_xyz
  'x, y, z'

loop_
  _atom_site_type_symbol
  _atom_site_label
  _atom_site_symmetry_multiplicity
  _atom_site_fract_x
  _atom_site_fract_y
  _atom_site_fract_z
  _atom_site_occupancy
  Na  Na1       1.0  0.6556743944631833  0.6055718344955565  0.23632785348133475  1.0000
  Na  Na2       1.0  0.3692356732308114  0.9193384904032345  0.2637477791676234  1.0000
  Na  Na3       1.0  0.34432621271170655  0.39442795113427553  0.7636727280523843  1.0000
  Na  Na4       1.0  0.6307680872202469  0.080661286361952  0.7362524891678675  1.0000
  H   H1        1.0  0.4476830125775848  0.6357074294688018  0.008707276134515505  1.0000
  H   H2        1.0  0.6280605036376627  0.9394220172472958  0.4913813902042606  1.0000
  H   H3        1.0  0.5523127915516286  0.36428876143192224  0.991292104222417  1.0000
  H   H4        1.0  0.3719448089533089  0.060593782145353686  0.5086151541579725  1.0000
  H   H5        1.0  0.24302253520271924  0.8551324755205131  0.9793790013963533  1.0000
  H   H6        1.0  0.8768427275602519  0.7639765668162752  0.5206370711465526  1.0000
  H   H7        1.0  0.7569652424869775  0.14486016359216342  0.020621291797716906  1.0000
  H   H8        1.0  0.12316430091987478  0.2360464476038473  0.4793628386464022  1.0000
  H   H9        1.0  0.968830523816507  0.926190436382214  0.032452570318788815  1.0000
  H   H10       1.0  0.8945982621903141  0.4365682910428319  0.46756343039328396  1.0000
  H   H11       1.0  0.031152164329356  0.07379146010200802  0.9675467813816141  1.0000
  H   H12       1.0  0.10540349444006833  0.5634440693475042  0.5324402200268068  1.0000
  H   H13       1.0  0.9108924030265371  0.7774480019936902  0.11301867913233112  1.0000
  H   H14       1.0  0.6650920842300395  0.2980123211255972  0.3870249102550504  1.0000
  H   H15       1.0  0.08909452173134721  0.22254284895266352  0.8869815772005085  1.0000
  H   H16       1.0  0.33491130558167725  0.7019803486319348  0.6129777787423976  1.0000
  H   H17       1.0  0.995982854369714  0.5616627919745767  0.3138803248730114  1.0000
  H   H18       1.0  0.24798480690894562  0.1821613996004672  0.18619226236191372  1.0000
  H   H19       1.0  0.004023342663018029  0.4383387651169528  0.686119643643032  1.0000
  H   H20       1.0  0.752014244663151  0.8178383802387686  0.8138079355262136  1.0000
  H   H21       1.0  0.9732085275766098  0.7947024355399749  0.322679463506809  1.0000
  H   H22       1.0  0.47222902533007977  0.1506660208521637  0.17739284846081926  1.0000
  H   H23       1.0  0.026793663248135067  0.20529734224989227  0.6773207813462321  1.0000
  H   H24       1.0  0.5277708791738362  0.8493355471533875  0.8226073862885458  1.0000
  H   H25       1.0  0.8983135368403412  0.1441707127104053  0.2782984292334518  1.0000
  H   H26       1.0  0.8660043957656995  0.12003466688939572  0.22169678687053823  1.0000
  H   H27       1.0  0.10168868203146522  0.8558290514489002  0.7217010952933123  1.0000
  H   H28       1.0  0.1339962675033205  0.8799650914793133  0.7783023540106343  1.0000
  C   C1        1.0  0.1393176448772735  0.6182940839100796  0.10634330847445742  1.0000
  C   C2        1.0  0.5126485800399507  0.5331959911165853  0.39375191099262014  1.0000
  C   C3        1.0  0.8606708635304585  0.3816967591963164  0.8936566111776969  1.0000
  C   C4        1.0  0.4873526356391978  0.4667984143343702  0.6062478865960443  1.0000
  C   C5        1.0  0.2896309861936146  0.5761035943346685  0.0764877147222904  1.0000
  C   C6        1.0  0.5003656888830365  0.7134028418445127  0.423606629476808  1.0000
  C   C7        1.0  0.7103666460129999  0.4238997570712755  0.9235121497602564  1.0000
  C   C8        1.0  0.49963585536485783  0.2865986910599432  0.5763918279393182  1.0000
  C   C9        1.0  0.3286016872083337  0.6661449416006066  0.03137314140102632  1.0000
  C   C10       1.0  0.6356898626910946  0.7975865702733244  0.4687101986082639  1.0000
  C   C11       1.0  0.6713976087913238  0.3338620065838143  0.9686278772933932  1.0000
  C   C12       1.0  0.3643095595203434  0.2024203165735585  0.5312875786179134  1.0000
  C   C13       1.0  0.21388751072811366  0.7916657074884341  0.015205509188327004  1.0000
  C   C14       1.0  0.7773170623218845  0.6988906670309163  0.4848351039459616  1.0000
  C   C15       1.0  0.7861082373069694  0.20833051067342004  0.9847953118211664  1.0000
  C   C16       1.0  0.22268568747563225  0.3011234133729133  0.5151649817039754  1.0000
  C   C17       1.0  0.061952192231188884  0.8304530222292853  0.0444073136983931  1.0000
  C   C18       1.0  0.7867041605998396  0.5175670980856567  0.45564471507877613  1.0000
  C   C19       1.0  0.9380339076419376  0.1695360269201913  0.9555921854469391  1.0000
  C   C20       1.0  0.21329649867116982  0.48243630579317204  0.5443580776737917  1.0000
  C   C21       1.0  0.02696837205444065  0.7459363709218252  0.08975832653499792  1.0000
  C   C22       1.0  0.6568394084140293  0.4372988860467685  0.4102962506309994  1.0000
  C   C23       1.0  0.9730168748868663  0.2540508900613432  0.9102411357491038  1.0000
  C   C24       1.0  0.34315687800765454  0.5626919860126237  0.5897055872491208  1.0000
  S   S1        1.0  0.08631570833472314  0.5239521854727869  0.1659250409236108  1.0000
  S   S2        1.0  0.35858883281841253  0.420709376595795  0.3341819993903172  1.0000
  S   S3        1.0  0.913681651397276  0.47604401121853357  0.8340747230789207  1.0000
  S   S4        1.0  0.6414232199841335  0.5792814511403533  0.6658182724986548  1.0000
  N   N1        1.0  0.9969297493161378  0.24223688725238904  0.16393864063916652  1.0000
  N   N2        1.0  0.0789016755746417  0.3333508364071704  0.3361499397993698  1.0000
  N   N3        1.0  0.003069316279493123  0.7577628857715621  0.836061197085826  1.0000
  N   N4        1.0  0.9211082972620587  0.6666453248255664  0.6638485714102418  1.0000
  Cl  Cl1       1.0  0.730313557079363  0.08228442516007559  0.1257875421560399  1.0000
  Cl  Cl2       1.0  0.9570301158628638  0.10466024135367752  0.37425717519095514  1.0000
  Cl  Cl3       1.0  0.2696840891507859  0.9177189194305908  0.874211962163372  1.0000
  Cl  Cl4       1.0  0.042976934101680485  0.8953431039041744  0.6257428301863188  1.0000
  Cl  Cl5       1.0  0.4303908216828276  0.41491408296808163  0.09347434938301553  1.0000
  Cl  Cl6       1.0  0.32226251490011043  0.8372094241570667  0.4066125632245631  1.0000
  Cl  Cl7       1.0  0.5696067684531984  0.5850892888837081  0.9065265955889432  1.0000
  Cl  Cl8       1.0  0.6777358520225577  0.16278848573247728  0.5933832758446728  1.0000
  O   O1        1.0  0.9144672542755501  0.5983205086734743  0.18135520816161946  1.0000
  O   O2        1.0  0.4173142847387936  0.2332757700676567  0.31872785753740374  1.0000
  O   O3        1.0  0.08553263620483158  0.40168106614735416  0.8186453867508803  1.0000
  O   O4        1.0  0.582705280165726  0.7667275874385666  0.6812734161889155  1.0000
  O   O5        1.0  0.315523135307842  0.631716988072057  0.19575111612349622  1.0000
  O   O6        1.0  0.43667592184773707  0.6202899441554308  0.304390114450463  1.0000
  O   O7        1.0  0.6844719381033286  0.3682809988349475  0.8042486377753593  1.0000
  O   O8        1.0  0.5633357007584578  0.3797098206710601  0.6956099111341629  1.0000
  O   O9        1.0  0.9782923789636512  0.6852461438190218  0.2968933355745592  1.0000
  O   O10       1.0  0.3885107657440159  0.1814280252266087  0.2031789063949248  1.0000
  O   O11       1.0  0.02171310137457279  0.31475720246350397  0.7031066463202579  1.0000
  O   O12       1.0  0.6114865659409147  0.8185681850952733  0.7968215779338836  1.0000
  O   O13       1.0  0.7888100738006472  0.038804815984150295  0.24999500965898142  1.0000
  O   O14       1.0  0.21119301202650564  0.9611967295261862  0.7500041915658713  1.0000
