data_image0
_chemical_formula_structural       Al4H40C66N8O22
_chemical_formula_sum              "Al4 H40 C66 N8 O22"
_cell_length_a       6.635695352307645
_cell_length_b       21.908625283509828
_cell_length_c       24.588454699426592
_cell_angle_alpha    70.85536604953262
_cell_angle_beta     89.9820382694255
_cell_angle_gamma    89.98988093757748

_space_group_name_H-M_alt    "P 1"
_space_group_IT_number       1

loop_
  _space_group_symop_operation_xyz
  'x, y, z'

loop_
  _atom_site_type_symbol
  _atom_site_label
  _atom_site_symmetry_multiplicity
  _atom_site_fract_x
  _atom_site_fract_y
  _atom_site_fract_z
  _atom_site_occupancy
  Al  Al1       1.0  0.8561733181956938  0.5001779051917908  0.5009399925838096  1.0000
  Al  Al2       1.0  0.35615456127751344  0.4998228286042022  0.4990708704361638  1.0000
  Al  Al3       1.0  0.3524320972404595  0.9994568388550605  0.0015224470991483992  1.0000
  Al  Al4       1.0  0.8524978957618075  0.0005921579102335545  0.9984952710543241  1.0000
  H   H1        1.0  0.18515523024352382  0.2161234032404239  0.9502240021919094  1.0000
  H   H2        1.0  0.6831575038502606  0.783797892513526  0.0497417616395666  1.0000
  H   H3        1.0  0.22842317775265286  0.3996340672557539  0.7818878002275298  1.0000
  H   H4        1.0  0.7282148656440056  0.6003264855948061  0.21810048773883045  1.0000
  H   H5        1.0  0.2142788944420602  0.32711214760237095  0.8798757491171969  1.0000
  H   H6        1.0  0.7134533653780152  0.6728737660726126  0.1200923124718329  1.0000
  H   H7        1.0  0.04717620446680829  0.14221931322698828  0.8129592811588894  1.0000
  H   H8        1.0  0.5483933108658405  0.8578109766630961  0.18718110706215188  1.0000
  H   H9        1.0  0.0508119354782224  0.29139683623762386  0.5575474221582155  1.0000
  H   H10       1.0  0.550966500604467  0.7085865073440446  0.4424854597453773  1.0000
  H   H11       1.0  0.04141644231066271  0.15785887965183323  0.7299290823575221  1.0000
  H   H12       1.0  0.5417670970350982  0.8421263688453778  0.27012052858012947  1.0000
  H   H13       1.0  0.020475337377604305  0.17881749965081195  0.6257576311584145  1.0000
  H   H14       1.0  0.5207080810770819  0.8211789075381689  0.3742872329992579  1.0000
  H   H15       1.0  0.4262890455840775  0.8772106110321192  0.9074265941360764  1.0000
  H   H16       1.0  0.9267098712725499  0.12312161125244359  0.09238186111992522  1.0000
  H   H17       1.0  0.4306971614519739  0.8079638674566212  0.8435777667687959  1.0000
  H   H18       1.0  0.9307168400184623  0.19231242733248888  0.1562751479164675  1.0000
  H   H19       1.0  0.7906572440683205  0.8345579365533881  0.8184136619639945  1.0000
  H   H20       1.0  0.29079062276558426  0.16527772787586772  0.1816493066607876  1.0000
  H   H21       1.0  0.7881027200864423  0.9035371030732121  0.8824307059766386  1.0000
  H   H22       1.0  0.2887954984710817  0.09621224623973035  0.1176963449835213  1.0000
  H   H23       1.0  0.41974605659910214  0.7015860919237655  0.650468390012861  1.0000
  H   H24       1.0  0.919805917123682  0.2983595969223245  0.3494872764316739  1.0000
  H   H25       1.0  0.4184377474329537  0.6390064772731918  0.5813062496582121  1.0000
  H   H26       1.0  0.9186231524678163  0.36094411586830694  0.4186487009486298  1.0000
  H   H27       1.0  0.7949190502744727  0.5916919315029503  0.6193379774757872  1.0000
  H   H28       1.0  0.2951382617727134  0.4084056794767863  0.3806825242515899  1.0000
  H   H29       1.0  0.7958608054069032  0.6528166179767185  0.6898395463834888  1.0000
  H   H30       1.0  0.29600340463129976  0.34728729808463754  0.3101714443933261  1.0000
  H   H31       1.0  0.4740500857184102  0.44601014346642404  0.7079122530594404  1.0000
  H   H32       1.0  0.2678725896512972  0.498613011677506  0.7101975662652437  1.0000
  H   H33       1.0  0.39647204458461976  0.5089938371105165  0.6435984894602669  1.0000
  H   H34       1.0  0.974185315084334  0.5539415776055777  0.2920137926210487  1.0000
  H   H35       1.0  0.7680171460810498  0.5013444288678529  0.2897716447468497  1.0000
  H   H36       1.0  0.8966597823900886  0.49095748178829995  0.356340870505278  1.0000
  H   H37       1.0  0.6037600029367456  0.45280405432374243  0.5708904574531033  1.0000
  H   H38       1.0  0.1038445964657342  0.5471615712186877  0.4291070391763157  1.0000
  H   H39       1.0  0.5967322878031425  0.048058950498166705  0.9286211261887373  1.0000
  H   H40       1.0  0.09627857437796192  0.9518173113268987  0.0713158902707818  1.0000
  C   C1        1.0  0.6069858587283717  0.4298107221583721  0.4410140173227647  1.0000
  C   C2        1.0  0.1068094902184384  0.5701994873774937  0.5589798303504026  1.0000
  C   C3        1.0  0.6092694042130731  0.6014476748403085  0.4212043241158129  1.0000
  C   C4        1.0  0.10917050900257408  0.3985461496620319  0.5788202895853872  1.0000
  C   C5        1.0  0.1795358576176298  0.2863810772104928  0.8651942552074772  1.0000
  C   C6        1.0  0.678827621740197  0.713596988763797  0.1348005975252278  1.0000
  C   C7        1.0  0.1142261851692297  0.17306860909388894  0.8847025903336604  1.0000
  C   C8        1.0  0.6137334408965316  0.8269115338197395  0.11535133409529413  1.0000
  C   C9        1.0  0.06494310582802139  0.2818376693675617  0.6037932294380255  1.0000
  C   C10       1.0  0.5651337994791064  0.7181520325880086  0.39623171573529703  1.0000
  C   C11       1.0  0.046095701481299  0.21870561854288453  0.6422311080776596  1.0000
  C   C12       1.0  0.5464011057809657  0.7812847875581427  0.3578138774554702  1.0000
  C   C13       1.0  0.058157133088556606  0.20721883224383938  0.7008917094329874  1.0000
  C   C14       1.0  0.5585345760397757  0.7927629091972719  0.29915873510010027  1.0000
  C   C15       1.0  0.09392796834416121  0.2576718438892344  0.723594995415425  1.0000
  C   C16       1.0  0.5943628705754875  0.7423060451250548  0.2764556771905333  1.0000
  C   C17       1.0  0.12048541676806217  0.32184712089001993  0.6842421887512417  1.0000
  C   C18       1.0  0.62083831208367  0.6781255259830345  0.3157860709017157  1.0000
  C   C19       1.0  0.110172804393315  0.24538440280635868  0.7853031695854114  1.0000
  C   C20       1.0  0.6105306134319405  0.7546128499246834  0.21473868331435136  1.0000
  C   C21       1.0  0.15745504617230918  0.2977784935888366  0.8054256884083486  1.0000
  C   C22       1.0  0.6573847235618472  0.7022016230497317  0.1945872867773133  1.0000
  C   C23       1.0  0.1885403008122495  0.36082442066443604  0.7653089024737625  1.0000
  C   C24       1.0  0.6885386198427883  0.6391465221028058  0.2346985525485579  1.0000
  C   C25       1.0  0.1721925022272188  0.3726275703186277  0.7072729923613393  1.0000
  C   C26       1.0  0.6723472506653962  0.62733412059454  0.2927395058597853  1.0000
  C   C27       1.0  0.0852984680525495  0.1834320911644199  0.8264861349135942  1.0000
  C   C28       1.0  0.5858939070511227  0.8165908731502612  0.17359247931359081  1.0000
  C   C29       1.0  0.1624959334878113  0.2249464872967551  0.9043613487864732  1.0000
  C   C30       1.0  0.6612125510989414  0.7750170976374237  0.09563684340847087  1.0000
  C   C31       1.0  0.10180467375052159  0.332893476759921  0.6241792526226888  1.0000
  C   C32       1.0  0.6020293853556637  0.6670859636739979  0.3758518199366492  1.0000
  C   C33       1.0  0.28865099772135483  0.8675953208270925  0.8874252886733487  1.0000
  C   C34       1.0  0.7890368975066409  0.13264379845945481  0.11244117367370879  1.0000
  C   C35       1.0  0.29117229685599  0.8294353040399048  0.8520684742729258  1.0000
  C   C36       1.0  0.7912867562628918  0.17075802473276272  0.14783405206141254  1.0000
  C   C37       1.0  0.11115042581567988  0.817483413075486  0.8270586873227261  1.0000
  C   C38       1.0  0.6111489385347254  0.18256874905148382  0.17289984078036014  1.0000
  C   C39       1.0  0.928910310766298  0.8440177089509506  0.8382140101868673  1.0000
  C   C40       1.0  0.42913555025079825  0.15590642462549914  0.16180425130345816  1.0000
  C   C41       1.0  0.9273127937472337  0.8820954519456592  0.8736286883784246  1.0000
  C   C42       1.0  0.42786524008140253  0.11778424014325141  0.1264190298794929  1.0000
  C   C43       1.0  0.10699048152208951  0.8942372487121661  0.8983254556512749  1.0000
  C   C44       1.0  0.6076503063545715  0.10580240667260203  0.1016340972313969  1.0000
  C   C45       1.0  0.11115094978040221  0.7137306942766204  0.7177216519580654  1.0000
  C   C46       1.0  0.6111152491223919  0.2862873932502198  0.28227368330678365  1.0000
  C   C47       1.0  0.11263523863426168  0.777469702397312  0.7894754096833269  1.0000
  C   C48       1.0  0.6125440017435653  0.22255843994462057  0.210500470937248  1.0000
  C   C49       1.0  0.2836916172281718  0.6773542323991749  0.6434411749342459  1.0000
  C   C50       1.0  0.7837923912047912  0.3226211278925606  0.35652787707312683  1.0000
  C   C51       1.0  0.282706848322519  0.642853767850106  0.6049970532309034  1.0000
  C   C52       1.0  0.782860253835949  0.35713618156474786  0.3949661781541636  1.0000
  C   C53       1.0  0.106662401407128  0.611588393829024  0.5967183229729116  1.0000
  C   C54       1.0  0.6068737412237653  0.3884364753379473  0.4032718022070583  1.0000
  C   C55       1.0  0.9301037727508402  0.6163004471235427  0.6264803615873974  1.0000
  C   C56       1.0  0.43030804980401177  0.3837516385201951  0.37352535332425424  1.0000
  C   C57       1.0  0.9305821136204384  0.6501362548597742  0.6653893569986309  1.0000
  C   C58       1.0  0.43070527766589345  0.3499189473967946  0.334612899834184  1.0000
  C   C59       1.0  0.1082079078542719  0.680455093667092  0.6746442357545632  1.0000
  C   C60       1.0  0.6082819625401895  0.3195646284943906  0.32533880458575487  1.0000
  C   C61       1.0  0.6038481793282101  0.8936762076286371  0.07280718363600872  1.0000
  C   C62       1.0  0.1050313048804057  0.1063127549040318  0.9272441122266031  1.0000
  C   C63       1.0  0.6060280631128522  0.06399212669705891  0.0643017657444815  1.0000
  C   C64       1.0  0.1045618878948815  0.9360088860697078  0.9357080991626178  1.0000
  C   C65       1.0  0.34503858066948817  0.4735786711985027  0.6839289288128542  1.0000
  C   C66       1.0  0.8452178125168005  0.5263703060642372  0.3160191206796412  1.0000
  N   N1        1.0  0.9356545771296113  0.751243184525926  0.7805169432772558  1.0000
  N   N2        1.0  0.4355157143442199  0.24872668743412163  0.21955057985884  1.0000
  N   N3        1.0  0.9348520661587044  0.7196241791083011  0.7433667984900225  1.0000
  N   N4        1.0  0.43474189722869727  0.28033102051806946  0.25671662028304354  1.0000
  N   N5        1.0  0.2916982263355621  0.7329670183887488  0.7322126163502036  1.0000
  N   N6        1.0  0.7916771158272765  0.2670836611682219  0.2677060622828336  1.0000
  N   N7        1.0  0.2918906551067053  0.766212304451621  0.7681082024114403  1.0000
  N   N8        1.0  0.7918312975214477  0.23383684333823856  0.23181087864217886  1.0000
  O   O1        1.0  0.4387770544843049  0.5756423511042287  0.4381601496248352  1.0000
  O   O2        1.0  0.9387286806168688  0.42436333569095563  0.5618703424637276  1.0000
  O   O3        1.0  0.7780065708142628  0.445427153902223  0.4561303334540697  1.0000
  O   O4        1.0  0.2778930974145553  0.5545606270621379  0.5438717158019984  1.0000
  O   O5        1.0  0.7784275554030486  0.578814352880279  0.44246638147669154  1.0000
  O   O6        1.0  0.27836877439929  0.42116107066878805  0.5575488996972666  1.0000
  O   O7        1.0  0.9354644948738269  0.5524241428495459  0.5466558722019741  1.0000
  O   O8        1.0  0.43559731660361223  0.4476013334985468  0.45334223079139957  1.0000
  O   O9        1.0  0.6046073734911203  0.4899472176144144  0.5358840914643039  1.0000
  O   O10       1.0  0.10469107871847429  0.510042337051985  0.4641295900601676  1.0000
  O   O11       1.0  0.7762726739317428  0.04965031317843231  0.0478469520324509  1.0000
  O   O12       1.0  0.2745622017985879  0.9520155021588653  0.95090040209287  1.0000
  O   O13       1.0  0.431567372750628  0.9191644504160977  0.058139029378907005  1.0000
  O   O14       1.0  0.9334523107122834  0.07983505138287954  0.9407482303343071  1.0000
  O   O15       1.0  0.43443506298460477  0.045354333019481906  0.05265841655873519  1.0000
  O   O16       1.0  0.9322908747408292  0.952972186103381  0.9485936539477677  1.0000
  O   O17       1.0  0.27327033786721694  0.08081075819941237  0.9470969513720178  1.0000
  O   O18       1.0  0.7720310985898848  0.9201335665713798  0.054143344803065895  1.0000
  O   O19       1.0  0.6005331232413553  0.01221240182164259  0.964509188707723  1.0000
  O   O20       1.0  0.1004963948763589  0.9878009331605784  0.0355253819863677  1.0000
  O   O21       1.0  0.2109856601509676  0.4314233079059803  0.6674054184170616  1.0000
  O   O22       1.0  0.7111661667161755  0.5685264720475233  0.33259445488808137  1.0000
