data_image0
_chemical_formula_structural       Zn4H36C64S2N4O32
_chemical_formula_sum              "Zn4 H36 C64 S2 N4 O32"
_cell_length_a       10.020011993549305
_cell_length_b       10.815080901387423
_cell_length_c       23.80652816905717
_cell_angle_alpha    90.42361253843596
_cell_angle_beta     90.13073418232456
_cell_angle_gamma    90.49611218472994

_space_group_name_H-M_alt    "P 1"
_space_group_IT_number       1

loop_
  _space_group_symop_operation_xyz
  'x, y, z'

loop_
  _atom_site_type_symbol
  _atom_site_label
  _atom_site_symmetry_multiplicity
  _atom_site_fract_x
  _atom_site_fract_y
  _atom_site_fract_z
  _atom_site_occupancy
  Zn  Zn1       1.0  0.6651006034219336  0.5251136311859382  0.5099327423650948  1.0000
  Zn  Zn2       1.0  0.3633031124031234  0.526014370850376  0.5047342357752385  1.0000
  Zn  Zn3       1.0  0.33372252356483756  0.5053680159702908  0.0432854662427644  1.0000
  Zn  Zn4       1.0  0.6333371542802483  0.5140827426639021  0.0461621781545603  1.0000
  H   H1        1.0  0.26434209917457  0.5972318369468823  0.6077308082914571  1.0000
  H   H2        1.0  0.1434373014693762  0.6925829118618126  0.6878013751592889  1.0000
  H   H3        1.0  0.7720840185986617  0.6498530099046607  0.5983785868852465  1.0000
  H   H4        1.0  0.8971068977820876  0.719850558227158  0.6826067615881256  1.0000
  H   H5        1.0  0.2889997608839466  0.8205705025142435  0.5934043752978511  1.0000
  H   H6        1.0  0.10988605191460007  0.9470719573875211  0.6329420918484061  1.0000
  H   H7        1.0  0.2790745074152525  0.2698911110090307  0.5557296156243013  1.0000
  H   H8        1.0  0.10522889132671051  0.17521497715140552  0.6141729798022197  1.0000
  H   H9        1.0  0.3000209447529159  0.41960052367318207  0.8549147863408422  1.0000
  H   H10       1.0  0.7128468986562524  0.38117725558230836  0.8969028787688132  1.0000
  H   H11       1.0  0.7032713849640402  0.4181993224197173  0.6942060366469177  1.0000
  H   H12       1.0  0.2887220285456494  0.38788180832066393  0.6521802216262387  1.0000
  H   H13       1.0  0.6772502787544425  0.7262596337896667  0.1648869240610367  1.0000
  H   H14       1.0  0.8466241191817688  0.8590607227650437  0.2095478787891309  1.0000
  H   H15       1.0  0.7281226313535215  0.7293814774815317  0.3721924160192884  1.0000
  H   H16       1.0  0.8735600033767383  0.8602209793739205  0.3142427952351241  1.0000
  H   H17       1.0  0.7355826753962945  0.5895258880893977  0.9455399917605121  1.0000
  H   H18       1.0  0.8594118450429563  0.6904040774958345  0.8679302435828192  1.0000
  H   H19       1.0  0.22850496666355014  0.6420676408652356  0.957600462251115  1.0000
  H   H20       1.0  0.1058876107579678  0.7196754826667799  0.8748878702249456  1.0000
  H   H21       1.0  0.6839239083757961  0.8063867357863614  0.9515039092451262  1.0000
  H   H22       1.0  0.8557551803791412  0.9360303167768649  0.9074733816217276  1.0000
  H   H23       1.0  0.7042246991582816  0.2550803216906488  0.9939041605820975  1.0000
  H   H24       1.0  0.8677699998781779  0.1630465312466995  0.9295284777487326  1.0000
  H   H25       1.0  0.7934055650299285  0.48848364211994527  0.4150965533762943  1.0000
  H   H26       1.0  0.2266782841227553  0.3518045034919126  0.44871090031833916  1.0000
  H   H27       1.0  0.7073355227144518  0.22833728785783336  0.4755631409434358  1.0000
  H   H28       1.0  0.7116421941027369  0.8123448240294237  0.5053747754548183  1.0000
  H   H29       1.0  0.33398260081440884  0.4806408099303781  0.378455991911558  1.0000
  H   H30       1.0  0.32192112803916473  0.4293384617255923  0.1912959510402956  1.0000
  H   H31       1.0  0.20040900892551153  0.46687580386105765  0.1350426956246835  1.0000
  H   H32       1.0  0.760599805241462  0.3457664149015756  0.1045294782755519  1.0000
  H   H33       1.0  0.27946337055471554  0.2083726445506429  0.07727945877250872  1.0000
  H   H34       1.0  0.2846657018235065  0.7903688428986158  0.058849625073826  1.0000
  H   H35       1.0  0.060491077612788  0.31692997867721573  0.8236642144374855  1.0000
  H   H36       1.0  0.9412796690642012  0.3187422422906891  0.7245844135266637  1.0000
  C   C1        1.0  0.4970390719526635  0.7611888085743531  0.5292673791814408  1.0000
  C   C2        1.0  0.5274336525911636  0.4446216882244087  0.6083904343651554  1.0000
  C   C3        1.0  0.49142820299864803  0.2863533052598583  0.48993997141741363  1.0000
  C   C4        1.0  0.5378167576125462  0.5699707409531952  0.398477152269038  1.0000
  C   C5        1.0  0.49168912050570424  0.7438093546458049  0.024446959710296298  1.0000
  C   C6        1.0  0.4753596895959332  0.43609442287220906  0.9416788609634353  1.0000
  C   C7        1.0  0.4952179109268543  0.27130294207574934  0.0599751689346917  1.0000
  C   C8        1.0  0.48613753646083785  0.5530285835224902  0.1549157778080996  1.0000
  C   C9        1.0  0.0871763709792077  0.5672093166488565  0.5580115055602164  1.0000
  C   C10       1.0  0.08375184746653731  0.45706609074510157  0.47328217892616214  1.0000
  C   C11       1.0  0.1569813995555194  0.6099750902577059  0.6058256679665561  1.0000
  C   C12       1.0  0.0890865759866841  0.663267959077416  0.6502246786788533  1.0000
  C   C13       1.0  0.9410934421685226  0.48223200079825557  0.4676113788119238  1.0000
  C   C14       1.0  0.9459879273159332  0.5799031122228797  0.5556461923193652  1.0000
  C   C15       1.0  0.879496735595744  0.6378645862916132  0.6006344725369885  1.0000
  C   C16       1.0  0.9500508828018751  0.6780695203090588  0.6474470256640572  1.0000
  C   C17       1.0  0.5002788359256911  0.8981165172227962  0.5306765202538984  1.0000
  C   C18       1.0  0.3890489199497225  0.970476677414716  0.550654563840169  1.0000
  C   C19       1.0  0.6132006541522586  0.9581222224657395  0.5090310125365249  1.0000
  C   C20       1.0  0.28699078330888744  0.9187142315246677  0.58444206274023  1.0000
  C   C21       1.0  0.1861264771716833  0.9901645880820311  0.6067590727372902  1.0000
  C   C22       1.0  0.4947540766079399  0.1567015546963759  0.508838042471119  1.0000
  C   C23       1.0  0.6108935842546686  0.08897241734088371  0.4986653446145795  1.0000
  C   C24       1.0  0.38563323061976723  0.10039151038550644  0.5393790311420261  1.0000
  C   C25       1.0  0.2806390775940741  0.17093992475710001  0.5628196093629256  1.0000
  C   C26       1.0  0.18308478106521872  0.11758445430363201  0.5959841785252991  1.0000
  C   C27       1.0  0.40206336844077134  0.40533648628314023  0.8412562172327965  1.0000
  C   C28       1.0  0.6354002411486307  0.38636012151471993  0.8650209342733035  1.0000
  C   C29       1.0  0.6671863692046287  0.3829179147694148  0.8089607925700976  1.0000
  C   C30       1.0  0.5695935861292369  0.39102165569311603  0.7655913522630656  1.0000
  C   C31       1.0  0.6007360281634107  0.4054362906523393  0.7078444349367459  1.0000
  C   C32       1.0  0.36648462836863166  0.3911117633771681  0.6840430681709435  1.0000
  C   C33       1.0  0.3348905758357433  0.38600975602438564  0.7400460074675621  1.0000
  C   C34       1.0  0.4329533029743047  0.39189975990836967  0.783392795283568  1.0000
  C   C35       1.0  0.5015851170135477  0.40531512971184475  0.8812870378955324  1.0000
  C   C36       1.0  0.500904103631335  0.4089737060855541  0.6679822950347827  1.0000
  C   C37       1.0  0.5015894066406191  0.5681561514041037  0.21674058608201113  1.0000
  C   C38       1.0  0.6045114376098013  0.6456289529974769  0.24206833182159224  1.0000
  C   C39       1.0  0.4147709103804189  0.5017306807095708  0.2512732530006758  1.0000
  C   C40       1.0  0.6885688432693158  0.724519048246343  0.2102335351974034  1.0000
  C   C41       1.0  0.7841717299910513  0.7994005775977372  0.2354812822580286  1.0000
  C   C42       1.0  0.5285775856000754  0.5767299789697802  0.3363958611820975  1.0000
  C   C43       1.0  0.4232231245755429  0.5115024737423042  0.3111355468454988  1.0000
  C   C44       1.0  0.6197899006242551  0.6472188397309891  0.3022181154166219  1.0000
  C   C45       1.0  0.7182282056841132  0.7257745928488504  0.3267083866403624  1.0000
  C   C46       1.0  0.7995091079742023  0.8000033912434648  0.2941624623993633  1.0000
  C   C47       1.0  0.9111561765929751  0.5564695834514309  0.9951749307639588  1.0000
  C   C48       1.0  0.9092406512562405  0.44437391557710276  0.0786425945328446  1.0000
  C   C49       1.0  0.8430918039186397  0.6020162570431183  0.9479687298209427  1.0000
  C   C50       1.0  0.9126773781102527  0.6587243870138124  0.9050315370276536  1.0000
  C   C51       1.0  0.0527995441716627  0.4662287115871635  0.0839915585913005  1.0000
  C   C52       1.0  0.0527557875085378  0.5686000392930879  0.9980726045394589  1.0000
  C   C53       1.0  0.1209586162929099  0.6302966911053502  0.9547057997644545  1.0000
  C   C54       1.0  0.051805839777515  0.6742421358291962  0.9087275963745044  1.0000
  C   C55       1.0  0.4870598306031725  0.8799659575856893  0.023105631853113102  1.0000
  C   C56       1.0  0.5934973094995328  0.9539779273178369  0.999224525544591  1.0000
  C   C57       1.0  0.378004326028389  0.9384704739150395  0.0484742123184674  1.0000
  C   C58       1.0  0.6885557102056694  0.9042488605337339  0.9615525307450739  1.0000
  C   C59       1.0  0.7854181789502447  0.9774957419322591  0.9368353355520399  1.0000
  C   C60       1.0  0.49320711459293426  0.13922000652210187  0.0434867829358367  1.0000
  C   C61       1.0  0.3793795379895855  0.07005360021955909  0.05677296124847691  1.0000
  C   C62       1.0  0.5989637722851101  0.0840510621515591  0.0110383029694106  1.0000
  C   C63       1.0  0.7009810327676291  0.15620501040664442  0.985831806656904  1.0000
  C   C64       1.0  0.7923212275382312  0.1045438016641  0.9492739674974472  1.0000
  S   S1        1.0  0.16625578461380286  0.40156353905364023  0.7566668413816303  1.0000
  S   S2        1.0  0.8363287144486122  0.39913326770801655  0.7929310207520288  1.0000
  N   N1        1.0  0.1540115997863793  0.5077591508351631  0.5145963991423912  1.0000
  N   N2        1.0  0.875497057354558  0.5365300224623724  0.509066033581334  1.0000
  N   N3        1.0  0.8416338954378161  0.49629466869842515  0.0375182735981099  1.0000
  N   N4        1.0  0.1214369757481961  0.5211867713154207  0.0438513647474466  1.0000
  O   O1        1.0  0.611108043973303  0.7043994800609285  0.527267552478321  1.0000
  O   O2        1.0  0.38561221777599297  0.7045531249914845  0.5277779184570477  1.0000
  O   O3        1.0  0.42237179310791356  0.4603529316154038  0.5793539459691956  1.0000
  O   O4        1.0  0.6462573925572388  0.46144413587649785  0.5915159821028126  1.0000
  O   O5        1.0  0.3802733886120606  0.3388368184952455  0.478859077094647  1.0000
  O   O6        1.0  0.6044316291727229  0.34438634795619544  0.48522544868021805  1.0000
  O   O7        1.0  0.6511444631874781  0.5646256309187478  0.4236868445129858  1.0000
  O   O8        1.0  0.426315778101312  0.5660614775306811  0.4251321903958427  1.0000
  O   O9        1.0  0.3801149678052552  0.6856673005905378  0.0355978065439331  1.0000
  O   O10       1.0  0.6007589968753848  0.6875243905965576  0.0170356302178405  1.0000
  O   O11       1.0  0.5797822279333715  0.43865819304588166  0.9721829018187691  1.0000
  O   O12       1.0  0.3579453599227094  0.46072378112167905  0.9578885410753486  1.0000
  O   O13       1.0  0.6031833945696903  0.326970833345662  0.0739102473916446  1.0000
  O   O14       1.0  0.3804510289329883  0.3256577381124757  0.059352612564367704  1.0000
  O   O15       1.0  0.36984027558127514  0.5209322240240797  0.1344458366954413  1.0000
  O   O16       1.0  0.5873701253732193  0.5698468558978219  0.1238351424353397  1.0000
  O   O17       1.0  0.8835798509631231  0.448275019987456  0.4198941823480453  1.0000
  O   O18       1.0  0.1378260997856131  0.3829532319143211  0.4353345717635264  1.0000
  O   O19       1.0  0.723117992893613  0.1369910448527634  0.4769150412789216  1.0000
  O   O20       1.0  0.7262508412342185  0.9007838356389541  0.4943056108849717  1.0000
  O   O21       1.0  0.326159183985645  0.451254300572458  0.3390076677453068  1.0000
  O   O22       1.0  0.3190559186097346  0.42324564446328594  0.2326123604377415  1.0000
  O   O23       1.0  0.10987855417887717  0.4287483463554408  0.1311232241901763  1.0000
  O   O24       1.0  0.8527054816838062  0.3720936077025101  0.1164563514359784  1.0000
  O   O25       1.0  0.2682674830087848  0.11692025755426275  0.0798586380703696  1.0000
  O   O26       1.0  0.269411853063616  0.8800740553675866  0.0680022012502945  1.0000
  O   O27       1.0  0.1459538623557607  0.2972218090038652  0.8021676356146089  1.0000
  O   O28       1.0  0.0874991684612283  0.3681320681787668  0.706918942967299  1.0000
  O   O29       1.0  0.1478129250541542  0.5220693453802526  0.7814121215170786  1.0000
  O   O30       1.0  0.8554939121268107  0.2972646031499053  0.7456807217282915  1.0000
  O   O31       1.0  0.9140591704406802  0.3633207058762409  0.8422242533344361  1.0000
  O   O32       1.0  0.8571353849595837  0.5209134843816087  0.7703716656866675  1.0000
