data_image0
_chemical_formula_structural       Al2H10C20N2O14
_chemical_formula_sum              "Al2 H10 C20 N2 O14"
_cell_length_a       6.886355626552994
_cell_length_b       11.267278357886607
_cell_length_c       13.484106910481339
_cell_angle_alpha    76.59584556321941
_cell_angle_beta     70.07001580913774
_cell_angle_gamma    70.70298767949393

_space_group_name_H-M_alt    "P 1"
_space_group_IT_number       1

loop_
  _space_group_symop_operation_xyz
  'x, y, z'

loop_
  _atom_site_type_symbol
  _atom_site_label
  _atom_site_symmetry_multiplicity
  _atom_site_fract_x
  _atom_site_fract_y
  _atom_site_fract_z
  _atom_site_occupancy
  Al  Al1       1.0  0.5001889144952897  0.49989271694492027  0.4998611919239551  1.0000
  Al  Al2       1.0  0.00016521259815502847  0.4999227749673949  0.4998253582201427  1.0000
  H   H1        1.0  0.23376418011910244  0.6440299665833678  0.41212183478814507  1.0000
  H   H2        1.0  0.7665502765838214  0.3558264566404858  0.5876621938141823  1.0000
  H   H3        1.0  0.7710951172024423  0.1132413636877772  0.4731670328170452  1.0000
  H   H4        1.0  0.22852449256696147  0.8865501760115535  0.5274874502422476  1.0000
  H   H5        1.0  0.6871689898457306  0.45258533309149823  0.1885349331204509  1.0000
  H   H6        1.0  0.22402605780892054  0.5758540521061662  0.17560991994862715  1.0000
  H   H7        1.0  0.3493069100189387  0.5875759086627924  0.9776821188986061  1.0000
  H   H8        1.0  0.3130043688665723  0.5476222635350253  0.8110522390278162  1.0000
  H   H9        1.0  0.776074978653021  0.4243969965469958  0.8240187195684356  1.0000
  H   H10       1.0  0.6507558272991358  0.4127941373545455  0.021916751315920593  1.0000
  C   C1        1.0  0.8707917690782736  0.5117334970930402  0.31015904153888835  1.0000
  C   C2        1.0  0.6231039340426603  0.7243870498504849  0.5067943674887303  1.0000
  C   C3        1.0  0.12942714785563686  0.4882985421291721  0.6895098846927252  1.0000
  C   C4        1.0  0.37691996929428484  0.2754128968669321  0.4933202638160309  1.0000
  C   C5        1.0  0.5589622979770109  0.8655749721529775  0.5059472206275827  1.0000
  C   C6        1.0  0.4406939314054839  0.13416588467242724  0.4947406128778198  1.0000
  C   C7        1.0  0.7073050083879476  0.9320589590699843  0.49246322911447754  1.0000
  C   C8        1.0  0.29229129765023726  0.06769616316135799  0.5083157763496473  1.0000
  C   C9        1.0  0.6525947062258622  0.06292090266344272  0.4861599045241718  1.0000
  C   C10       1.0  0.34702985402788006  0.9368297092675563  0.5146013070348516  1.0000
  C   C11       1.0  0.8333573135984407  0.4799888118019808  0.14155007661082658  1.0000
  C   C12       1.0  0.13760315057654526  0.550488594785243  0.1330334794355963  1.0000
  C   C13       1.0  0.20688544643766696  0.555841491661198  0.02402714984064864  1.0000
  C   C14       1.0  0.09518170920428291  0.5199015724442759  0.9696416612557286  1.0000
  C   C15       1.0  0.16668176053224207  0.5203781907922079  0.8580416346284422  1.0000
  C   C16       1.0  0.8623972356468385  0.4498927058510205  0.8665718077849645  1.0000
  C   C17       1.0  0.7931395033579208  0.4445721737990099  0.975570004514452  1.0000
  C   C18       1.0  0.9048403984329167  0.4805326888946838  0.029944189192782716  1.0000
  C   C19       1.0  0.9478398525646623  0.5132823703403134  0.19249812386745183  1.0000
  C   C20       1.0  0.05218225138418118  0.48704088844409205  0.8071274106431827  1.0000
  N   N1        1.0  0.9308517927987199  0.8632294937806008  0.4898754380906992  1.0000
  N   N2        1.0  0.06875461436636944  0.13656057793433976  0.5108749585181158  1.0000
  O   O1        1.0  0.6741823292964214  0.5137544278350249  0.35587990074439796  1.0000
  O   O2        1.0  0.8180668996072027  0.668981073234619  0.5034834209466081  1.0000
  O   O3        1.0  0.9930550367307017  0.48902095567398607  0.6445863405318518  1.0000
  O   O4        1.0  0.5178272424384004  0.3254969044424953  0.4917356251991334  1.0000
  O   O5        1.0  0.3260976913505613  0.486165881184796  0.643844845618375  1.0000
  O   O6        1.0  0.18215735800081495  0.33087653701076664  0.4962687315197981  1.0000
  O   O7        1.0  0.0073009914317125795  0.5108167535588138  0.3550675065022871  1.0000
  O   O8        1.0  0.48232725603192933  0.6743215549249231  0.5081945690020646  1.0000
  O   O9        1.0  0.24934054390929802  0.5599649071285812  0.453231773971808  1.0000
  O   O10       1.0  0.7510219529978241  0.439848008912982  0.546463894803999  1.0000
  O   O11       1.0  0.9662569880874801  0.8289043031184419  0.5775324627955384  1.0000
  O   O12       1.0  0.0670679709298269  0.8511129292570063  0.40209479177340757  1.0000
  O   O13       1.0  0.9325489103508033  0.14898237178405083  0.598630240456167  1.0000
  O   O14       1.0  0.03332469751835277  0.1706774651864293  0.42321736047185243  1.0000
