data_image0
_chemical_formula_structural       Tb2Ag2H24C48N8O16
_chemical_formula_sum              "Tb2 Ag2 H24 C48 N8 O16"
_cell_length_a       7.377854271716965
_cell_length_b       12.114047999904091
_cell_length_c       13.653420885024419
_cell_angle_alpha    116.33060119398284
_cell_angle_beta     92.21523804840702
_cell_angle_gamma    90.02911525848535

_space_group_name_H-M_alt    "P 1"
_space_group_IT_number       1

loop_
  _space_group_symop_operation_xyz
  'x, y, z'

loop_
  _atom_site_type_symbol
  _atom_site_label
  _atom_site_symmetry_multiplicity
  _atom_site_fract_x
  _atom_site_fract_y
  _atom_site_fract_z
  _atom_site_occupancy
  Tb  Tb1       1.0  0.7499696216410142  0.9437689951601911  0.9999514684384818  1.0000
  Tb  Tb2       1.0  0.2500284821281227  0.0562308448424744  4.919077848339344e-05  1.0000
  Ag  Ag1       1.0  0.9999988891311344  0.4999985817321145  0.4999986572847914  1.0000
  Ag  Ag2       1.0  0.5000001958501841  0.9999996829916568  0.5000001308255263  1.0000
  H   H1        1.0  0.9873287033363668  0.32426549643831487  0.6988775647539142  1.0000
  H   H2        1.0  0.5129536807719433  0.6254812412079572  0.3011051654009051  1.0000
  H   H3        1.0  0.012674832433738502  0.6757343349471655  0.30112248647601797  1.0000
  H   H4        1.0  0.4870444720818056  0.37451951498960767  0.6988936568546149  1.0000
  H   H5        1.0  0.8736237698474983  0.4615737355780638  0.8803413242523063  1.0000
  H   H6        1.0  0.6264985588692723  0.5814586328432938  0.11958887536606252  1.0000
  H   H7        1.0  0.1263784095703357  0.5384260975427395  0.11965869574211738  1.0000
  H   H8        1.0  0.37350367257453604  0.4185430443986958  0.8804126012087888  1.0000
  H   H9        1.0  0.9469424621593917  0.6878907223397731  0.960291251565003  1.0000
  H   H10       1.0  0.553032383162261  0.7277778178391896  0.03966892643171587  1.0000
  H   H11       1.0  0.053058374089957304  0.3121091091645241  0.03970727133583547  1.0000
  H   H12       1.0  0.4469712046338118  0.2722238576674769  0.9603325813786369  1.0000
  H   H13       1.0  0.7320538368157514  0.7356270324245883  0.6720315634078488  1.0000
  H   H14       1.0  0.7683350751732264  0.06375775686848328  0.32800899230275593  1.0000
  H   H15       1.0  0.26794421492741793  0.2643709634568977  0.3279676392286887  1.0000
  H   H16       1.0  0.23166717239572424  0.9362448449479569  0.6719943119558703  1.0000
  H   H17       1.0  0.3068393863964332  0.605780828668017  0.4178430017274834  1.0000
  H   H18       1.0  0.1937053704417053  0.1877384089447602  0.5821021198058033  1.0000
  H   H19       1.0  0.6931640746306585  0.39421623569773334  0.5821544981672913  1.0000
  H   H20       1.0  0.8062981455527237  0.8122614274684634  0.4179001302112579  1.0000
  H   H21       1.0  0.6189051037627704  0.6963776835181292  0.4819567460693504  1.0000
  H   H22       1.0  0.8818448539730853  0.21451492005773085  0.5180458034781381  1.0000
  H   H23       1.0  0.3810983147716058  0.30361846297681433  0.518041857857824  1.0000
  H   H24       1.0  0.11815729248528581  0.7854849214426307  0.48195788116151284  1.0000
  C   C1        1.0  0.023032823657750605  0.42223143055235823  0.7363988217427035  1.0000
  C   C2        1.0  0.4771047491615832  0.6858925407630706  0.2635904836079915  1.0000
  C   C3        1.0  0.9769666496474373  0.5777684043631623  0.26360040285167224  1.0000
  C   C4        1.0  0.522893419817315  0.31410914000895207  0.7364101663313107  1.0000
  C   C5        1.0  0.1451492169698341  0.803301413609759  0.8702571590961126  1.0000
  C   C6        1.0  0.35499337049220975  0.9331473040898499  0.12981670052594277  1.0000
  C   C7        1.0  0.8548489065749864  0.19669842136516988  0.12974130133372336  1.0000
  C   C8        1.0  0.6450047332769275  0.0668525359128154  0.8701839586910153  1.0000
  C   C9        1.0  0.9568334028427756  0.4993530806125718  0.837986501326142  1.0000
  C   C10       1.0  0.5432610180572653  0.6615065978797716  0.161978860295889  1.0000
  C   C11       1.0  0.04316745612361221  0.5006476737902686  0.162013116329426  1.0000
  C   C12       1.0  0.4567384713730718  0.338494161610214  0.8380221919822688  1.0000
  C   C13       1.0  0.9978076030744419  0.6244992588704007  0.8816542243249399  1.0000
  C   C14       1.0  0.5022248223401178  0.7429474385466079  0.11831254112802714  1.0000
  C   C15       1.0  0.0021905497793070993  0.3755014973271642  0.11834459793057302  1.0000
  C   C16       1.0  0.497776059343316  0.2570542387547832  0.8816881712822776  1.0000
  C   C17       1.0  0.31277033619019085  0.6151322878912922  0.663213236508696  1.0000
  C   C18       1.0  0.18722167496500927  0.9517154059206021  0.3367385485496753  1.0000
  C   C19       1.0  0.6872290850890295  0.3848657029030418  0.33678453150525905  1.0000
  C   C20       1.0  0.8127791481005531  0.04828442893551709  0.6632614402092469  1.0000
  C   C21       1.0  0.4887786190041652  0.6616164540684649  0.7036200661446228  1.0000
  C   C22       1.0  0.011284213881367607  0.9579364610981004  0.2963659798103747  1.0000
  C   C23       1.0  0.5112221813443655  0.3383824578891037  0.29637882785957  1.0000
  C   C24       1.0  0.9887153048579052  0.042065219614521296  0.7036354342934671  1.0000
  C   C25       1.0  0.5982649242464504  0.6945439849285079  0.6393417520035596  1.0000
  C   C26       1.0  0.9020237763888517  0.055221902855493006  0.3606864803427498  1.0000
  C   C27       1.0  0.4017358629182937  0.30545493038088267  0.3606586078587241  1.0000
  C   C28       1.0  0.0979771280116211  0.9447806973444414  0.6393153268222844  1.0000
  C   C29       1.0  0.10964915117358488  0.6682896904510045  0.8252187097053322  1.0000
  C   C30       1.0  0.39037544327694473  0.843083234261819  0.17478229101646278  1.0000
  C   C31       1.0  0.8903476453278926  0.33171106748187634  0.17478008131468664  1.0000
  C   C32       1.0  0.6096254090975535  0.15691752181693627  0.8252180595681508  1.0000
  C   C33       1.0  0.361912169688715  0.6246803258353636  0.4991086709843626  1.0000
  C   C34       1.0  0.13849166064757412  0.1254018044325917  0.5008566350577652  1.0000
  C   C35       1.0  0.638088578633841  0.3753167420010185  0.5008887664394022  1.0000
  C   C36       1.0  0.8615104762775442  0.8745971108173973  0.49914448896906527  1.0000
  C   C37       1.0  0.1822453483203788  0.581532820199122  0.7273058444669757  1.0000
  C   C38       1.0  0.3176771203852553  0.8540778685219124  0.2726309761493226  1.0000
  C   C39       1.0  0.8177514481811059  0.41846793773375873  0.27269294655304316  1.0000
  C   C40       1.0  0.6823210061009206  0.14592289437930359  0.7273707778223721  1.0000
  C   C41       1.0  0.5581595410836897  0.6736010361991162  0.8136456559995435  1.0000
  C   C42       1.0  0.9417580387732299  0.8600456598039512  0.18628581214029066  1.0000
  C   C43       1.0  0.4418358565728013  0.32639880559827356  0.18635420781736653  1.0000
  C   C44       1.0  0.0582428722191324  0.13995693872007559  0.813715262095698  1.0000
  C   C45       1.0  0.5346283038214709  0.6751604321290755  0.5352989079809233  1.0000
  C   C46       1.0  0.9658696993953342  0.13983752640553598  0.4647036837580102  1.0000
  C   C47       1.0  0.4653724379091886  0.3248366373832212  0.4646992623718943  1.0000
  C   C48       1.0  0.034132518864687704  0.8601641541882757  0.5352992586749322  1.0000
  N   N1        1.0  0.1329006097061693  0.4613177463391125  0.6813034101355341  1.0000
  N   N2        1.0  0.3670962194958634  0.7799091225353934  0.3186495376407236  1.0000
  N   N3        1.0  0.8670975138386511  0.5386820886358165  0.31869505029429473  1.0000
  N   N4        1.0  0.6329018908651634  0.22009071579136458  0.6813503886471961  1.0000
  N   N5        1.0  0.25267670595225417  0.5962433944374865  0.562222843161308  1.0000
  N   N6        1.0  0.24746188335408453  0.0337862114608072  0.4377143152959276  1.0000
  N   N7        1.0  0.7473227153269663  0.40375459635685457  0.4377749248526469  1.0000
  N   N8        1.0  0.7525402960637493  0.9662136216599961  0.5622857046984959  1.0000
  O   O1        1.0  0.2711748550822293  0.8482976640202509  0.8386963062019033  1.0000
  O   O2        1.0  0.2292050157970706  0.0098040277675793  0.16150243685981988  1.0000
  O   O3        1.0  0.7288232977715197  0.15170309217731406  0.1613025160536168  1.0000
  O   O4        1.0  0.7707930879720664  0.9901958122350861  0.8384982223571453  1.0000
  O   O5        1.0  0.5043110410806548  0.5980459834220183  0.8452766667550902  1.0000
  O   O6        1.0  0.9954617204076542  0.7528316694750785  0.15443769036557597  1.0000
  O   O7        1.0  0.49568836407342326  0.401951082797858  0.1547192735750897  1.0000
  O   O8        1.0  0.0045378342324440026  0.24717093078426436  0.8455633526349116  1.0000
  O   O9        1.0  0.6745301852708039  0.762038456619571  0.8651163384687094  1.0000
  O   O10       1.0  0.8254151576498716  0.8971775773211944  0.13497888155666957  1.0000
  O   O11       1.0  0.32546247990548244  0.23796139367618707  0.13488566166433458  1.0000
  O   O12       1.0  0.17458439039833004  0.10282502461406297  0.8650228943728633  1.0000
  O   O13       1.0  0.0442438017688147  0.876718239971403  0.9478975387663835  1.0000
  O   O14       1.0  0.45578193870174744  0.9288424888030705  0.052087829681120384  1.0000
  O   O15       1.0  0.9557543151841088  0.12328159667944046  0.052101654592490776  1.0000
  O   O16       1.0  0.5442147991818729  0.0711564266845457  0.947910237687516  1.0000
