data_image0
_chemical_formula_structural       Al6H38C84O40
_chemical_formula_sum              "Al6 H38 C84 O40"
_cell_length_a       14.055656272329502
_cell_length_b       14.01253680228501
_cell_length_c       28.11404265132712
_cell_angle_alpha    89.86830241761858
_cell_angle_beta     89.89658560208021
_cell_angle_gamma    60.1036262661565

_space_group_name_H-M_alt    "P 1"
_space_group_IT_number       1

loop_
  _space_group_symop_operation_xyz
  'x, y, z'

loop_
  _atom_site_type_symbol
  _atom_site_label
  _atom_site_symmetry_multiplicity
  _atom_site_fract_x
  _atom_site_fract_y
  _atom_site_fract_z
  _atom_site_occupancy
  Al  Al1       1.0  0.25800984236606445  0.2297016274545597  0.498580081684139  1.0000
  Al  Al2       1.0  0.4702446807311631  0.25923641681232823  0.49795200228351877  1.0000
  Al  Al3       1.0  0.2490589221734183  0.46303257151895827  0.49870919916786943  1.0000
  Al  Al4       1.0  0.74384420075652  0.4889700989744414  0.0009410168006453998  1.0000
  Al  Al5       1.0  0.5305419970269015  0.7298664882599084  0.9978711321161524  1.0000
  Al  Al6       1.0  0.7512685185755573  0.7139655136672614  0.9987056149898804  1.0000
  H   H1        1.0  0.30020261485886124  0.6207189123471935  0.7855247865300327  1.0000
  H   H2        1.0  0.09918863953152618  0.2936068670696982  0.7910085561137519  1.0000
  H   H3        1.0  0.6183113228886157  0.08991965929472903  0.7964573566677513  1.0000
  H   H4        1.0  0.7005978347462258  0.9212611712837243  0.28473359714777763  1.0000
  H   H5        1.0  0.8980674384482441  0.39931845830810203  0.29031638583388997  1.0000
  H   H6        1.0  0.38381659622444897  0.7060244507734977  0.2965314100070485  1.0000
  H   H7        1.0  0.3784430356931949  0.6963198919091695  0.7086807580811366  1.0000
  H   H8        1.0  0.9341962390544368  0.372885058970368  0.7188814426780041  1.0000
  H   H9        1.0  0.7028711954660382  0.9353466038790258  0.7201840068187336  1.0000
  H   H10       1.0  0.6195055888846781  0.07627032894853164  0.20842503322188574  1.0000
  H   H11       1.0  0.0635695795239073  0.3127876344062202  0.21832826621502474  1.0000
  H   H12       1.0  0.2994586985643083  0.6377313877748206  0.21960944968632387  1.0000
  H   H13       1.0  0.37305662754729946  0.41856395236305105  0.7367348539946545  1.0000
  H   H14       1.0  0.2157240059468535  0.374866386643113  0.7370466840307229  1.0000
  H   H15       1.0  0.42036353563115375  0.2148006334117837  0.7447017289123037  1.0000
  H   H16       1.0  0.6278658503058098  0.7916224979936644  0.23603835324626488  1.0000
  H   H17       1.0  0.7846544976294041  0.5980073625314544  0.23703034775893878  1.0000
  H   H18       1.0  0.582593272473254  0.6324945482165201  0.24525470135736066  1.0000
  H   H19       1.0  0.6230555828727306  0.2544281903216543  0.7668860419580596  1.0000
  H   H20       1.0  0.1308025103887545  0.623190703411403  0.7694954910828569  1.0000
  H   H21       1.0  0.2582060213744199  0.12382266119112735  0.7712374262134886  1.0000
  H   H22       1.0  0.37750254301135305  0.8767802026046992  0.26775471023625386  1.0000
  H   H23       1.0  0.870159254050705  0.7584045037800069  0.2707557709441559  1.0000
  H   H24       1.0  0.7429401146425719  0.3760776974217136  0.271243230140044  1.0000
  H   H25       1.0  0.658529917539525  0.4070243062642899  0.7069957280533713  1.0000
  H   H26       1.0  0.9343977495574193  0.6585759956892333  0.715332110845118  1.0000
  H   H27       1.0  0.41791094310300275  0.9364509133976144  0.7128648530057545  1.0000
  H   H28       1.0  0.3404591966843853  0.06486008381688885  0.20820865117298126  1.0000
  H   H29       1.0  0.06871657547341671  0.596041990100531  0.2164761798182937  1.0000
  H   H30       1.0  0.583756664421422  0.3530211136024662  0.2121650832062016  1.0000
  H   H31       1.0  0.6689805172738447  0.5798623834519246  0.7591900906086336  1.0000
  H   H32       1.0  0.7631329619844892  0.6619239549524495  0.7708902092564286  1.0000
  H   H33       1.0  0.5852933537461951  0.7562237600456001  0.7615571602490191  1.0000
  H   H34       1.0  0.33026843362609537  0.2483531606360003  0.2604179759257335  1.0000
  H   H35       1.0  0.23789223934648623  0.4257645266047945  0.2709697111980063  1.0000
  H   H36       1.0  0.4145109506274594  0.34092974589358954  0.26050132740878945  1.0000
  H   H37       1.0  0.1610837249918688  0.1467975086669782  0.5279818392617415  1.0000
  H   H38       1.0  0.8291172063825556  0.307534899825356  0.9737720786602182  1.0000
  C   C1        1.0  0.1323969104364622  0.4195574212895821  0.5670955037718244  1.0000
  C   C2        1.0  0.4517623197626505  0.13135169629166651  0.5679619050777872  1.0000
  C   C3        1.0  0.41722646118176243  0.4369818644256968  0.5629143879713254  1.0000
  C   C4        1.0  0.8674014650653845  0.5554552826671608  0.0676118294093229  1.0000
  C   C5        1.0  0.5481534552947095  0.5838028804805475  0.0675753683876792  1.0000
  C   C6        1.0  0.5837454342324763  0.8550050371062031  0.0630234507896361  1.0000
  C   C7        1.0  0.46436069571033306  0.5023203910465169  0.6984520453931253  1.0000
  C   C8        1.0  0.03546684529836601  0.46458675676476713  0.7048629427395949  1.0000
  C   C9        1.0  0.5103155009760059  0.039222538181398585  0.706890685736404  1.0000
  C   C10       1.0  0.53444499862227  0.967313294770399  0.19853937752725404  1.0000
  C   C11       1.0  0.9651826246638605  0.5060325342779493  0.20507467585613165  1.0000
  C   C12       1.0  0.4922492089104935  0.548170094846121  0.2066572608409061  1.0000
  C   C13       1.0  0.5346145583993689  0.41316045284193587  0.7665763900166309  1.0000
  C   C14       1.0  0.0629133342727783  0.5325251127160371  0.7715996701587642  1.0000
  C   C15       1.0  0.41614056000034344  0.05655140448301672  0.7733138009958224  1.0000
  C   C16       1.0  0.46645926694994705  0.9465193865964707  0.2669605712979575  1.0000
  C   C17       1.0  0.9383269766776009  0.5998376490650587  0.2722351620588697  1.0000
  C   C18       1.0  0.5853408256855346  0.47023017262248584  0.2731385301321225  1.0000
  C   C19       1.0  0.4197564850807111  0.46120526698475567  0.7413145039855776  1.0000
  C   C20       1.0  0.1276903747205154  0.4192152976588375  0.7447052943890994  1.0000
  C   C21       1.0  0.4641363625410548  0.1253969595844922  0.7493087284074063  1.0000
  C   C22       1.0  0.5807666385725483  0.8808217994695723  0.24104775681463758  1.0000
  C   C23       1.0  0.8725901207144631  0.5532268178490227  0.24479849655099875  1.0000
  C   C24       1.0  0.5382672924363021  0.587297452604119  0.24944936152413524  1.0000
  C   C25       1.0  0.5091855490264267  0.5396790101311879  0.8426801441635374  1.0000
  C   C26       1.0  0.9725773612871934  0.5011387915276657  0.8501643315287308  1.0000
  C   C27       1.0  0.5378819879064595  0.9556310351508229  0.8505601158517563  1.0000
  C   C28       1.0  0.4930824448404464  0.04664729018576724  0.3430057053643266  1.0000
  C   C29       1.0  0.0270298398629478  0.4760102393487953  0.3504007648711038  1.0000
  C   C30       1.0  0.462100022884421  0.49132276404365877  0.350063520005328  1.0000
  C   C31       1.0  0.44974382559583864  0.4864034009447735  0.6499347867605039  1.0000
  C   C32       1.0  0.0590095216523352  0.4530447411478633  0.6556823852280116  1.0000
  C   C33       1.0  0.49814722787969873  0.0667651566729503  0.6579403302890936  1.0000
  C   C34       1.0  0.5486507348725169  0.9372717567480394  0.1499798340276612  1.0000
  C   C35       1.0  0.9419088638641996  0.5187257798502924  0.15589356634922066  1.0000
  C   C36       1.0  0.5045161849533529  0.5638835953018669  0.15776345979975298  1.0000
  C   C37       1.0  0.12347392000874889  0.42431816055282917  0.43445943770407064  1.0000
  C   C38       1.0  0.44787972209115173  0.12721597610565988  0.43061146390569854  1.0000
  C   C39       1.0  0.4178544509453417  0.4369674530942049  0.4339407484615805  1.0000
  C   C40       1.0  0.8778694170361446  0.5494393621456053  0.9347401141070716  1.0000
  C   C41       1.0  0.5562527199336387  0.5741759514003351  0.9301667283581239  1.0000
  C   C42       1.0  0.5801402891304904  0.8570506571049061  0.9343268362394139  1.0000
  C   C43       1.0  0.4220706572645129  0.6154129223698915  0.725662509472542  1.0000
  C   C44       1.0  0.9717934837816459  0.4175653114889143  0.7344478916527988  1.0000
  C   C45       1.0  0.6209681953221705  0.9708442744999525  0.7358494865557077  1.0000
  C   C46       1.0  0.5767900906913752  0.038214745546312795  0.22559519782803505  1.0000
  C   C47       1.0  0.0271031450118286  0.3946196227791746  0.23428287611111634  1.0000
  C   C48       1.0  0.3811501706453058  0.5907435453112483  0.23537309241525856  1.0000
  C   C49       1.0  0.378927427157045  0.5732503071631001  0.7673507618937733  1.0000
  C   C50       1.0  0.06347043552949572  0.37365450358844743  0.7733357967350967  1.0000
  C   C51       1.0  0.5738912260959524  0.056665667636970354  0.7771597364407866  1.0000
  C   C52       1.0  0.6215372069574769  0.9521886021439345  0.2669498555102762  1.0000
  C   C53       1.0  0.9351278616104111  0.4428599918350927  0.2730709280197914  1.0000
  C   C54       1.0  0.42807933179492613  0.6285651398824967  0.2770433169473989  1.0000
  C   C55       1.0  0.5262874285156798  0.5552535793883066  0.8836585966756514  1.0000
  C   C56       1.0  0.9371040644054672  0.5196891238084403  0.8906804800464838  1.0000
  C   C57       1.0  0.5540224280899935  0.9173098485337118  0.890654182958748  1.0000
  C   C58       1.0  0.47684797932060974  0.0784474167404667  0.3841176262719372  1.0000
  C   C59       1.0  0.0630537299323493  0.4569101612966264  0.39079697608507746  1.0000
  C   C60       1.0  0.44491248262820454  0.4697200360307364  0.3901228796158165  1.0000
  C   C61       1.0  0.43842721302606685  0.46840190653218633  0.6085080000041215  1.0000
  C   C62       1.0  0.08402722251727822  0.44313222539883407  0.6137496254012402  1.0000
  C   C63       1.0  0.4828231417084652  0.09057895714942525  0.6158435211492588  1.0000
  C   C64       1.0  0.5605105278488126  0.9079729277121302  0.1085429958569577  1.0000
  C   C65       1.0  0.9167001994363418  0.5333289010664969  0.11400005583976029  1.0000
  C   C66       1.0  0.5190938964655558  0.5726144294195238  0.11559383902597625  1.0000
  C   C67       1.0  0.5359610085304497  0.567292081997756  0.7501515990918648  1.0000
  C   C68       1.0  0.9079240208489666  0.5301128832490107  0.7604832931647818  1.0000
  C   C69       1.0  0.5727450944372096  0.9029652018502432  0.7589068906356713  1.0000
  C   C70       1.0  0.4634673759614785  0.10291799847009733  0.2507163631879052  1.0000
  C   C71       1.0  0.09211775139381471  0.44125958159580847  0.26084520020448554  1.0000
  C   C72       1.0  0.4284322178144108  0.4744856086029686  0.25807109059634564  1.0000
  C   C73       1.0  0.4922829089807195  0.5252482502796598  0.7944223670783115  1.0000
  C   C74       1.0  0.0005640517736794003  0.48547761815746066  0.8016814140017344  1.0000
  C   C75       1.0  0.5254469155737952  0.9896714658071061  0.8028076687424388  1.0000
  C   C76       1.0  0.508857125266843  0.016321106968675374  0.294649782369909  1.0000
  C   C77       1.0  0.9990563551709926  0.48987500346908797  0.3019366500042366  1.0000
  C   C78       1.0  0.4755330446644379  0.5128996498668669  0.3024103818168413  1.0000
  C   C79       1.0  0.5788347546899218  0.45429359548001697  0.7245844795371639  1.0000
  C   C80       1.0  0.9710799479719442  0.577616761124496  0.7323821375871375  1.0000
  C   C81       1.0  0.4622494178629851  0.9706595813658796  0.7316767924113918  1.0000
  C   C82       1.0  0.4206168272350936  0.03261860394935209  0.22529157918856407  1.0000
  C   C83       1.0  0.030671051215193812  0.5525804554442004  0.2331187810213819  1.0000
  C   C84       1.0  0.5394115088464703  0.4313820388777642  0.23114013794897653  1.0000
  O   O1        1.0  0.3599197812774264  0.1479950931178989  0.5534770440523786  1.0000
  O   O2        1.0  0.4901015075993983  0.34396547194510424  0.5463997975525955  1.0000
  O   O3        1.0  0.15032743918258262  0.4935074865897775  0.5487335563885835  1.0000
  O   O4        1.0  0.6375101019886388  0.5073906410454044  0.05147552999967079  1.0000
  O   O5        1.0  0.5105961885065824  0.8374584719355767  0.0448623429007995  1.0000
  O   O6        1.0  0.85565862227336  0.6421919574301856  0.04612479933488339  1.0000
  O   O7        1.0  0.15705622503682554  0.32757783310574246  0.549100107121994  1.0000
  O   O8        1.0  0.5196135334004383  0.15080242908184968  0.5445411557808909  1.0000
  O   O9        1.0  0.3248649642385076  0.5021066244517909  0.5434238518363513  1.0000
  O   O10       1.0  0.8360968721445019  0.49072651895904335  0.05278788668601919  1.0000
  O   O11       1.0  0.481089459822222  0.6737984997434836  0.0456352985648607  1.0000
  O   O12       1.0  0.678476746171867  0.824826439787685  0.045202107396406184  1.0000
  O   O13       1.0  0.359667234954884  0.1409550034612082  0.44870894778166087  1.0000
  O   O14       1.0  0.4915404947133196  0.34718144606990353  0.4530303574598591  1.0000
  O   O15       1.0  0.1385940111368953  0.498143134885069  0.4551483912003106  1.0000
  O   O16       1.0  0.6473141391007645  0.5014729915055438  0.9467931954492244  1.0000
  O   O17       1.0  0.5075574801294209  0.8368246405687997  0.9516187209783522  1.0000
  O   O18       1.0  0.8567073539026994  0.6431345578019146  0.9523665681391051  1.0000
  O   O19       1.0  0.1601175623498463  0.32635736093637757  0.44823729761581876  1.0000
  O   O20       1.0  0.5136499652922097  0.15596440279063736  0.44943033985085623  1.0000
  O   O21       1.0  0.3204048433130851  0.497675279579191  0.4499789803141638  1.0000
  O   O22       1.0  0.8478567528255069  0.4850538658238932  0.9516678692672469  1.0000
  O   O23       1.0  0.4883549700526189  0.6659710076031757  0.9505130821437291  1.0000
  O   O24       1.0  0.6755571320420158  0.8240255655357271  0.9518436384821383  1.0000
  O   O25       1.0  0.32637353231003635  0.3181743883960095  0.49905146816484347  1.0000
  O   O26       1.0  0.6744727791468674  0.6458282761411452  0.999265664474329  1.0000
  O   O27       1.0  0.5920766091852272  0.31369021835132566  0.790224369682434  1.0000
  O   O28       1.0  0.1060430360362901  0.5906210893747357  0.7937507979339742  1.0000
  O   O29       1.0  0.3154796226808473  0.09621974346644888  0.7954319957297  1.0000
  O   O30       1.0  0.41031891096832857  0.9034831015555722  0.290898964329564  1.0000
  O   O31       1.0  0.8959873754823703  0.7005716893290385  0.2947992282625407  1.0000
  O   O32       1.0  0.6856088386226347  0.4085458167011851  0.2953712312867864  1.0000
  O   O33       1.0  0.5895863045689538  0.6266183673607839  0.7525985413105686  1.0000
  O   O34       1.0  0.7965030521244144  0.5812368049760295  0.7680579106438684  1.0000
  O   O35       1.0  0.6320876433188191  0.7904702836587914  0.7630399550490238  1.0000
  O   O36       1.0  0.40953928283120433  0.2157941405442899  0.25357357245740525  1.0000
  O   O37       1.0  0.20329117244713765  0.3794752907066509  0.2686385740976646  1.0000
  O   O38       1.0  0.36824069629752654  0.42210853317060076  0.2614579312812636  1.0000
  O   O39       1.0  0.2002999705475048  0.1443203966973172  0.4993213954524407  1.0000
  O   O40       1.0  0.8041876021381356  0.3456891440008291  0.003770693298733399  1.0000
