data_image0
_chemical_formula_structural       Cu4H48C48N8O16
_chemical_formula_sum              "Cu4 H48 C48 N8 O16"
_cell_length_a       9.773497426488499
_cell_length_b       10.994178500514456
_cell_length_c       12.234213090053068
_cell_angle_alpha    89.99975348163339
_cell_angle_beta     90.00025812565507
_cell_angle_gamma    96.56799266391397

_space_group_name_H-M_alt    "P 1"
_space_group_IT_number       1

loop_
  _space_group_symop_operation_xyz
  'x, y, z'

loop_
  _atom_site_type_symbol
  _atom_site_label
  _atom_site_symmetry_multiplicity
  _atom_site_fract_x
  _atom_site_fract_y
  _atom_site_fract_z
  _atom_site_occupancy
  Cu  Cu1       1.0  0.35196996952416976  0.6204663914252109  0.6172291583438749  1.0000
  Cu  Cu2       1.0  0.148027861971336  0.8795333242538774  0.11723372805979443  1.0000
  Cu  Cu3       1.0  0.6480297122775625  0.3795304781196833  0.38276881831939136  1.0000
  Cu  Cu4       1.0  0.8519740994346064  0.12046537883833958  0.8827707876433096  1.0000
  H   H1        1.0  0.21592219199040838  0.24658437874869316  0.5082034183970308  1.0000
  H   H2        1.0  0.28406224909128497  0.25342132651577737  0.0082081498047586  1.0000
  H   H3        1.0  0.7840642113848657  0.7534207142304081  0.49179047132681575  1.0000
  H   H4        1.0  0.7159168745532795  0.7465828424530726  0.9917996353662418  1.0000
  H   H5        1.0  0.30401636625806105  0.2524168072985802  0.378728953256342  1.0000
  H   H6        1.0  0.19597665594398705  0.24758366588130087  0.878729867729014  1.0000
  H   H7        1.0  0.6959761522406608  0.7475800538480184  0.621268206014122  1.0000
  H   H8        1.0  0.8040142817722183  0.7524168551755749  0.1212730131908799  1.0000
  H   H9        1.0  0.1376144554401719  0.3015009228790504  0.388969511191121  1.0000
  H   H10       1.0  0.3623794341057121  0.1985059157252422  0.8889810241385874  1.0000
  H   H11       1.0  0.8623775055652627  0.6984995994109082  0.6110178395123143  1.0000
  H   H12       1.0  0.637613808082186  0.8015046778958351  0.11103248270477911  1.0000
  H   H13       1.0  0.5981305900028175  0.9329146377535689  0.8169214475661662  1.0000
  H   H14       1.0  0.9018758640816601  0.5670869482035528  0.3169305952303745  1.0000
  H   H15       1.0  0.40187172076306865  0.06708681211009798  0.18306917267376832  1.0000
  H   H16       1.0  0.09812977450124549  0.4329245754103964  0.6830771899741492  1.0000
  H   H17       1.0  0.4467830784979157  0.9696779337276454  0.8826180139092868  1.0000
  H   H18       1.0  0.053220985889176065  0.5303188264377922  0.38261705640502447  1.0000
  H   H19       1.0  0.5532179760319451  0.030321683755630595  0.11738159751094203  1.0000
  H   H20       1.0  0.9467840454883286  0.4696798802666321  0.6173817376442302  1.0000
  H   H21       1.0  0.47035172847478884  0.9951616312890933  0.7385842234514116  1.0000
  H   H22       1.0  0.029637718072251604  0.5048311488509682  0.2385840971421089  1.0000
  H   H23       1.0  0.5296325785392781  0.0048269812301385  0.2614137532001521  1.0000
  H   H24       1.0  0.970354242962273  0.495169373414619  0.7614146968800738  1.0000
  H   H25       1.0  0.5543698857341964  0.775942623965598  0.32033803853423143  1.0000
  H   H26       1.0  0.9456418187994657  0.7240598690440976  0.8203358570026752  1.0000
  H   H27       1.0  0.4456402622889186  0.22405608873710744  0.679661572904138  1.0000
  H   H28       1.0  0.05436288803156229  0.2759443299510025  0.17965966751570767  1.0000
  H   H29       1.0  0.424718434144097  0.7071178334080769  0.22852247032924575  1.0000
  H   H30       1.0  0.07529443106524514  0.7928905796540274  0.728524409020487  1.0000
  H   H31       1.0  0.5752933195248529  0.2928854584046974  0.7714738715835027  1.0000
  H   H32       1.0  0.92471495142059  0.20711820203201367  0.2714768371568113  1.0000
  H   H33       1.0  0.5726877771026011  0.632606619255604  0.2559942027650024  1.0000
  H   H34       1.0  0.9273247401225007  0.8673970645837129  0.755996303948379  1.0000
  H   H35       1.0  0.4273261396763814  0.36739759054825066  0.7439972348703989  1.0000
  H   H36       1.0  0.07268657255565361  0.1326108039217218  0.2440049422341701  1.0000
  H   H37       1.0  0.169398938521958  0.4554241273689923  0.9176129967790986  1.0000
  H   H38       1.0  0.3305949552911045  0.0445734346531594  0.4176129836540383  1.0000
  H   H39       1.0  0.8305901854711661  0.5445782224456366  0.0823915188938074  1.0000
  H   H40       1.0  0.6694071225716131  0.9554261840266418  0.5823882625278501  1.0000
  H   H41       1.0  0.16418609880844307  0.5967587585658122  0.990353803861133  1.0000
  H   H42       1.0  0.3358130721148029  0.9032430290008618  0.4903556889093039  1.0000
  H   H43       1.0  0.8358214451263064  0.40324361282802806  0.0096605204038482  1.0000
  H   H44       1.0  0.6641776575511713  0.0967638999011982  0.5096561831768085  1.0000
  H   H45       1.0  0.30773741272571437  0.5140979872719811  0.004875229398351201  1.0000
  H   H46       1.0  0.19226315049217388  0.9859040417192443  0.5048776589228298  1.0000
  H   H47       1.0  0.6922661294585807  0.48589705591343346  0.9951219298954967  1.0000
  H   H48       1.0  0.8077314643822928  0.014109299875030993  0.4951211350792947  1.0000
  C   C1        1.0  0.42243055802669  0.8072562281782536  0.7807065401738671  1.0000
  C   C2        1.0  0.07757196492538299  0.6927409648608388  0.2807034061459532  1.0000
  C   C3        1.0  0.5775657044019695  0.19273789101779926  0.21929470600820625  1.0000
  C   C4        1.0  0.9224363693684198  0.30725957660483516  0.7192953879056959  1.0000
  C   C5        1.0  0.29750806112051004  0.4263671777686966  0.4575714358287186  1.0000
  C   C6        1.0  0.2024896881626859  0.07363479554867067  0.9575779522471778  1.0000
  C   C7        1.0  0.7024920865249555  0.5736333541126013  0.5424200017890044  1.0000
  C   C8        1.0  0.7975055758068236  0.9263675614625055  0.04242819819659619  1.0000
  C   C9        1.0  0.2981308392983379  0.607321063845184  0.8506123031178348  1.0000
  C   C10       1.0  0.20186180576953205  0.8926758194344726  0.3506145637677847  1.0000
  C   C11       1.0  0.7018615627456769  0.3926748817120895  0.1493889430537436  1.0000
  C   C12       1.0  0.7981342485922764  0.10732470762069107  0.6493891345412238  1.0000
  C   C13       1.0  0.4280609967783846  0.6232182207243325  0.38750630104677  1.0000
  C   C14       1.0  0.07194379126528355  0.8767840120918533  0.8875111720265709  1.0000
  C   C15       1.0  0.5719506155600698  0.3767759164892154  0.6124867713638196  1.0000
  C   C16       1.0  0.9280564728785166  0.12321743534221241  0.11249334366814881  1.0000
  C   C17       1.0  0.3577942415640152  0.5029252368191451  0.37155523859848233  1.0000
  C   C18       1.0  0.14220148836881205  0.9970788842899408  0.8715639834493489  1.0000
  C   C19       1.0  0.6422046498142534  0.49707346270786695  0.6284329295008889  1.0000
  C   C20       1.0  0.8577918454125353  0.002924385898360499  0.1284438017490004  1.0000
  C   C21       1.0  0.36266099390235945  0.7297403065678052  0.8659969068307802  1.0000
  C   C22       1.0  0.13733786934277958  0.7702565183910649  0.3659961398957066  1.0000
  C   C23       1.0  0.6373366412461152  0.27025656057359265  0.13400270458861743  1.0000
  C   C24       1.0  0.8626652318444881  0.22974310149221816  0.6340034715282102  1.0000
  C   C25       1.0  0.3663117633172489  0.7754021301641243  0.9735386823586653  1.0000
  C   C26       1.0  0.133689693305854  0.724594239147862  0.47353644449105303  1.0000
  C   C27       1.0  0.6336899651502037  0.22459474177382072  0.026462563827927003  1.0000
  C   C28       1.0  0.8663134078834885  0.2754053807336874  0.5264639843127769  1.0000
  C   C29       1.0  0.35133922475963425  0.45413662922470616  0.2642521390109209  1.0000
  C   C30       1.0  0.14865663485903008  0.045867081871833186  0.7642593864345457  1.0000
  C   C31       1.0  0.6486538760416706  0.5458648098441401  0.7357360290727045  1.0000
  C   C32       1.0  0.8513435128279878  0.9541334499746481  0.2357483987813893  1.0000
  C   C33       1.0  0.2358601353761074  0.2983332559881972  0.4322376999200657  1.0000
  C   C34       1.0  0.2641294149493945  0.20166973121368403  0.9322439422497698  1.0000
  C   C35       1.0  0.7641297789823085  0.7016672638930428  0.5677537376792401  1.0000
  C   C36       1.0  0.7358589186535198  0.7983344485552093  0.06776384293780781  1.0000
  C   C37       1.0  0.48645076975576257  0.9339673669428873  0.8069287748832965  1.0000
  C   C38       1.0  0.013554049635132478  0.5660306323833451  0.30692835339348795  1.0000
  C   C39       1.0  0.513549818913745  0.066028588217911  0.1930708365431926  1.0000
  C   C40       1.0  0.98644951741457  0.4339726498206814  0.6930720754040821  1.0000
  C   C41       1.0  0.4990335982660453  0.6892905181146317  0.2924629996621065  1.0000
  C   C42       1.0  0.0009802659470849746  0.8107148770590553  0.7924678709655313  1.0000
  C   C43       1.0  0.5009788293280336  0.3107100281632569  0.7075300727375406  1.0000
  C   C44       1.0  0.9990276273538468  0.1892902411010126  0.20753500997600585  1.0000
  C   C45       1.0  0.23043735978116334  0.539115964569312  0.9460021836264404  1.0000
  C   C46       1.0  0.2695578168880886  0.9608805148203744  0.4460036065046111  1.0000
  C   C47       1.0  0.7695583451853736  0.4608818157439955  0.054001514687264815  1.0000
  C   C48       1.0  0.7304377964704613  0.0391245889378879  0.5540000917947339  1.0000
  N   N1        1.0  0.3647166516764741  0.8110395208038735  0.0639427158483983  1.0000
  N   N2        1.0  0.13528895420336798  0.6889512768506448  0.563937917162697  1.0000
  N   N3        1.0  0.6352890536427863  0.18895644035173115  0.9360593477270316  1.0000
  N   N4        1.0  0.8647131236551926  0.3110483418326381  0.4360616942593795  1.0000
  N   N5        1.0  0.34418445703786915  0.4127485258499419  0.17586564708850722  1.0000
  N   N6        1.0  0.15581230110527858  0.08725007062558629  0.6758727598940553  1.0000
  N   N7        1.0  0.6558081779030829  0.5872492508964198  0.8241225210013711  1.0000
  N   N8        1.0  0.8441874971781613  0.9127477144860019  0.3241317558069312  1.0000
  O   O1        1.0  0.29242278756689194  0.4597774568137396  0.5568756646200157  1.0000
  O   O2        1.0  0.20758471386199062  0.040214336238854294  0.05687767718645631  1.0000
  O   O3        1.0  0.7075894987070797  0.5402139348562116  0.44311822517702393  1.0000
  O   O4        1.0  0.7924196187333051  0.9597788769748871  0.9431243863918297  1.0000
  O   O5        1.0  0.4264150644140726  0.775576679930104  0.6807116200207162  1.0000
  O   O6        1.0  0.07359616014488068  0.7244209498100103  0.18071080100265394  1.0000
  O   O7        1.0  0.5735814309406136  0.2244192704306656  0.3192879913984044  1.0000
  O   O8        1.0  0.9264291048723974  0.2755759497367691  0.8192863583267428  1.0000
  O   O9        1.0  0.2932514588270719  0.5522817872823679  0.7591549454268574  1.0000
  O   O10       1.0  0.20673288405418322  0.9477182226798457  0.2591578276960576  1.0000
  O   O11       1.0  0.7067344538494494  0.44771140433300627  0.24084630073836172  1.0000
  O   O12       1.0  0.7932546591460435  0.052287787053764107  0.7408483227267199  1.0000
  O   O13       1.0  0.43704459035203774  0.6783318836042083  0.4790731948970334  1.0000
  O   O14       1.0  0.0629631508717523  0.8216653848929312  0.9790815166484921  1.0000
  O   O15       1.0  0.5629773468814676  0.321654942164443  0.5209198775463335  1.0000
  O   O16       1.0  0.9370364144815111  0.1783305690574153  0.020922999055621  1.0000
