data_image0
_chemical_formula_structural       Cd2H56C40N16Cl4
_chemical_formula_sum              "Cd2 H56 C40 N16 Cl4"
_cell_length_a       7.686140484
_cell_length_b       8.602855951568646
_cell_length_c       18.708
_cell_angle_alpha    90.0
_cell_angle_beta     90.0
_cell_angle_gamma    112.72911463755163

_space_group_name_H-M_alt    "P 1"
_space_group_IT_number       1

loop_
  _space_group_symop_operation_xyz
  'x, y, z'

loop_
  _atom_site_type_symbol
  _atom_site_label
  _atom_site_symmetry_multiplicity
  _atom_site_fract_x
  _atom_site_fract_y
  _atom_site_fract_z
  _atom_site_occupancy
  Cd  Cd1       1.0  1.3379455837292691e-06  0.4999991003524827  0.0  1.0000
  Cd  Cd2       1.0  0.4999999685147572  0.0  0.5000005345306846  1.0000
  H   H1        1.0  0.4677054070124315  0.6506700530808303  0.9510268334402383  1.0000
  H   H2        1.0  0.03229316015377763  0.8493297685271985  0.4510268334402383  1.0000
  H   H3        1.0  0.5322930917660429  0.3493306681747229  0.0489731665597617  1.0000
  H   H4        1.0  0.9677066396677886  0.1506709527283476  0.5489742356211238  1.0000
  H   H5        1.0  0.9825474507045657  0.073589995079324  0.7769905922599989  1.0000
  H   H6        1.0  0.5174504346710905  0.42641036554844913  0.2769895231986297  1.0000
  H   H7        1.0  0.01745201511484147  0.9264069453503367  0.22300833867863898  1.0000
  H   H8        1.0  0.4825467630642919  0.573590355707104  0.7230088732093236  1.0000
  H   H9        1.0  0.024813759903757684  0.9234566408825913  0.831056232627752  1.0000
  H   H10       1.0  0.4751848072624512  0.5765431807254444  0.331056232627752  1.0000
  H   H11       1.0  0.9751867959458238  0.0765428200976643  0.1689432328415634  1.0000
  H   H12       1.0  0.524814992559122  0.4234575405301086  0.6689432328415634  1.0000
  H   H13       1.0  0.4690876114776472  0.1300339447576704  0.8994013256360915  1.0000
  H   H14       1.0  0.030908490810318788  0.3699651555948122  0.3994007911054069  1.0000
  H   H15       1.0  0.5309101312728262  0.8699680367731804  0.1005997434252706  1.0000
  H   H16       1.0  0.9690907639961638  0.6300343053854434  0.6005976053025464  1.0000
  H   H17       1.0  0.06564083092281693  0.9486445029468342  0.5874160786829136  1.0000
  H   H18       1.0  0.43436012731665846  0.5513578392117893  0.0874166132135983  1.0000
  H   H19       1.0  0.93435657782549  0.0513536977581239  0.4125839213170863  1.0000
  H   H20       1.0  0.5656454216923736  0.4486441423190613  0.9125833867864016  1.0000
  H   H21       1.0  0.6392704850580346  0.9177286896626384  0.7848161214453739  1.0000
  H   H22       1.0  0.8607293201807809  0.5822711319453973  0.2848161214453739  1.0000
  H   H23       1.0  0.360731371834639  0.08227077131761723  0.21518441308531067  1.0000
  H   H24       1.0  0.1392699346257018  0.4177283290348583  0.7151838785546261  1.0000
  H   H25       1.0  0.6682527950184395  0.7448554670460723  0.8265955740859495  1.0000
  H   H26       1.0  0.8317475552354666  0.7551456148372537  0.3265955740859496  1.0000
  H   H27       1.0  0.3317488508613097  0.2551465144847783  0.1734049604447279  1.0000
  H   H28       1.0  0.16825245559903126  0.2448525858677044  0.6734038913833658  1.0000
  H   H29       1.0  0.8719589735624496  0.6993292822562795  0.7389175753688234  1.0000
  H   H30       1.0  0.6280419217065402  0.8006730599023444  0.23891864443019267  1.0000
  H   H31       1.0  0.1280430943431483  0.3006676581733814  0.2610824246311765  1.0000
  H   H32       1.0  0.3719615702313916  0.1993301819037967  0.7610818901004919  1.0000
  H   H33       1.0  0.8373106001577285  0.849590645513459  0.681898118451997  1.0000
  H   H34       1.0  0.6626889940681696  0.650411696645165  0.181898118451997  1.0000
  H   H35       1.0  0.1626864745884191  0.1504037743656141  0.318101881548003  1.0000
  H   H36       1.0  0.3373157989128543  0.3495915451609761  0.818101881548003  1.0000
  H   H37       1.0  0.2646916531332479  0.8207694097710743  0.7807633098139846  1.0000
  H   H38       1.0  0.23530800406312843  0.6792329323875492  0.2807638443446621  1.0000
  H   H39       1.0  0.7353089027163264  0.17923005120918137  0.21923669018601538  1.0000
  H   H40       1.0  0.7646949428597198  0.3207690491433014  0.7192361556553379  1.0000
  H   H41       1.0  0.5510780727818343  0.9118142176988897  0.6766565105837046  1.0000
  H   H42       1.0  0.948920431413889  0.5881856039091462  0.1766570451143892  1.0000
  H   H43       1.0  0.4489228170699064  0.0881890241072583  0.32334348941629537  1.0000
  H   H44       1.0  0.05108163649170901  0.4118113365205218  0.8233429548856108  1.0000
  H   H45       1.0  0.7938108131050967  0.9121204645957945  0.9356173829377781  1.0000
  H   H46       1.0  0.7061860560453684  0.587875576186349  0.4356168484071005  1.0000
  H   H47       1.0  0.20618789668630194  0.0878777361091636  0.064383686123584  1.0000
  H   H48       1.0  0.2938139547891225  0.4121226245186094  0.5643831515928994  1.0000
  H   H49       1.0  0.7859402080448491  0.0958615801088172  0.8949609792602118  1.0000
  H   H50       1.0  0.7140615804600898  0.4041387805189629  0.3949604447295271  1.0000
  H   H51       1.0  0.2140608928198163  0.9041391411467361  0.1050395552704728  1.0000
  H   H52       1.0  0.28594027643258374  0.5958606804612929  0.6050390207397882  1.0000
  H   H53       1.0  0.11222464452482948  0.9203525828287413  0.9469264485781466  1.0000
  H   H54       1.0  0.387774133654304  0.5796447182286999  0.4469269831088312  1.0000
  H   H55       1.0  0.8877746102816533  0.0796468781515145  0.0530735514218534  1.0000
  H   H56       1.0  0.6122271782232858  0.4203534824762585  0.5530735514218534  1.0000
  C   C1        1.0  0.41552954542473947  0.7493722937066494  0.9418222150951435  1.0000
  C   C2        1.0  0.08446956675656028  0.7506287881766767  0.4418222150951436  1.0000
  C   C3        1.0  0.5844694983688257  0.2506296878242011  0.0581777849048564  1.0000
  C   C4        1.0  0.915530233065013  0.2493719330788693  0.5581783194355339  1.0000
  C   C5        1.0  0.9282949457310682  0.9388370405939883  0.790851507376523  1.0000
  C   C6        1.0  0.571707250581021  0.5611653015646356  0.2908520419072076  1.0000
  C   C7        1.0  0.0717063661465218  0.0611611601109701  0.2091474235621149  1.0000
  C   C8        1.0  0.4282943952987282  0.4388366799662151  0.709148492623477  1.0000
  C   C9        1.0  0.41308814878314604  0.9986181992559298  0.9147268548214668  1.0000
  C   C10       1.0  0.08691444450158774  0.5013879237285863  0.4147273893521515  1.0000
  C   C11       1.0  0.5869143761138531  0.0013888233761037  0.08527314517853309  1.0000
  C   C12       1.0  0.913091227496686  0.4986203591787444  0.5852736797092176  1.0000
  C   C13       1.0  0.1644875812232628  0.9324197187871661  0.6253752405388084  1.0000
  C   C14       1.0  0.3355128320011289  0.5675813630961599  0.1253757750694859  1.0000
  C   C15       1.0  0.8355129746263188  0.0675797421930895  0.3746247594611916  1.0000
  C   C16       1.0  0.6644908709497275  0.4324193581593932  0.8746236903998295  1.0000
  C   C17       1.0  0.729852052516293  0.8832702425216041  0.8217382937780613  1.0000
  C   C18       1.0  0.7701451506363386  0.6167295790864247  0.3217393628394305  1.0000
  C   C19       1.0  0.2701453562320141  0.116727958183354  0.178260102629892  1.0000
  C   C20       1.0  0.22985649524341065  0.3832724024444261  0.6782606371605766  1.0000
  C   C21       1.0  0.9272269471548712  0.8340035606535283  0.7248257429976447  1.0000
  C   C22       1.0  0.5727726470710266  0.6659987815050956  0.2248262775283294  1.0000
  C   C23       1.0  0.0727704615934357  0.1659946400514372  0.2751753260637173  1.0000
  C   C24       1.0  0.42723084486690516  0.33400446030104564  0.7751742570023552  1.0000
  C   C25       1.0  0.2689820446611577  0.8617951514791429  0.725732307034427  1.0000
  C   C26       1.0  0.23101706752014192  0.6382059304041903  0.22573284156510448  1.0000
  C   C27       1.0  0.7310172101453319  0.1382043095011127  0.274267692965573  1.0000
  C   C28       1.0  0.7689853343876222  0.3617947908513628  0.7742666239042109  1.0000
  C   C29       1.0  0.40899108568439163  0.9091575573750887  0.6745755826384467  1.0000
  C   C30       1.0  0.09100932754000012  0.5908435245082373  0.1745761171691242  1.0000
  C   C31       1.0  0.5910092591522655  0.09084442415576183  0.3254244173615533  1.0000
  C   C32       1.0  0.9089938303957653  0.4091559364720183  0.8254233483001912  1.0000
  C   C33       1.0  0.721138116665614  0.9576983206727192  0.8951224075261948  1.0000
  C   C34       1.0  0.778859631502101  0.5423027612106068  0.3951224075261948  1.0000
  C   C35       1.0  0.27886168315595955  0.04230240058283392  0.1048775924738052  1.0000
  C   C36       1.0  0.22114071333455604  0.4576992203202437  0.6048770579431277  1.0000
  C   C37       1.0  0.23717394065754152  0.8934078970019856  0.9381815266196297  1.0000
  C   C38       1.0  0.2628164862479423  0.6065881437801579  0.43818045755826057  1.0000
  C   C39       1.0  0.7628201099765661  0.10659156397827022  0.0618195424417394  1.0000
  C   C40       1.0  0.7371733272547232  0.3934075363742053  0.5618190079110548  1.0000
  N   N1        1.0  0.24084992040146605  0.7383726109238609  0.9545996365191342  1.0000
  N   N2        1.0  0.25914994780783474  0.7616272106841677  0.4546001710498189  1.0000
  N   N3        1.0  0.7591480333619246  0.2616268500563947  0.0453998289501811  1.0000
  N   N4        1.0  0.7408511530568306  0.23837351057138537  0.5454014325422278  1.0000
  N   N5        1.0  0.5246363165302625  0.9056212248947375  0.9176828094932645  1.0000
  N   N6        1.0  0.9753616426503771  0.5943773364380007  0.4176828094932645  1.0000
  N   N7        1.0  0.4753621822482118  0.0943794963608156  0.0823171905067355  1.0000
  N   N8        1.0  0.02463891319920465  0.405622124542255  0.5823166559760509  1.0000
  N   N9        1.0  0.11442003149257841  0.8773444280801928  0.6935316442163781  1.0000
  N   N10       1.0  0.3855801707188888  0.6226591743537286  0.1935321787470627  1.0000
  N   N11       1.0  0.8855786782988279  0.12265377262476562  0.3064683557836219  1.0000
  N   N12       1.0  0.6144233212190429  0.3773440674524196  0.8064672867222598  1.0000
  N   N13       1.0  0.3420606246610306  0.9525198494817886  0.612611182381869  1.0000
  N   N14       1.0  0.15793978856336116  0.5474812324015375  0.11261225144323112  1.0000
  N   N15       1.0  0.6579410212187186  0.0474821320490619  0.3873882830874464  1.0000
  N   N16       1.0  0.8420633693724113  0.4525182285787183  0.8873882830874464  1.0000
  Cl  Cl1       1.0  0.20122886026675962  0.3181728820337071  0.9577522984819353  1.0000
  Cl  Cl2       1.0  0.2987706001354056  0.1818249580434781  0.4577522984819353  1.0000
  Cl  Cl3       1.0  0.7987706055526546  0.6818240583959609  0.0422487705794339  1.0000
  Cl  Cl4       1.0  0.7012281096559932  0.8181732426614803  0.5422487705794339  1.0000
