data_image0
_chemical_formula_structural       Gd2H36C28Cl2O12
_chemical_formula_sum              "Gd2 H36 C28 Cl2 O12"
_cell_length_a       8.586281269759306
_cell_length_b       9.882523216931792
_cell_length_c       10.292342395528122
_cell_angle_alpha    103.85871341824748
_cell_angle_beta     109.13708984929355
_cell_angle_gamma    96.68540955325214

_space_group_name_H-M_alt    "P 1"
_space_group_IT_number       1

loop_
  _space_group_symop_operation_xyz
  'x, y, z'

loop_
  _atom_site_type_symbol
  _atom_site_label
  _atom_site_symmetry_multiplicity
  _atom_site_fract_x
  _atom_site_fract_y
  _atom_site_fract_z
  _atom_site_occupancy
  Gd  Gd1       1.0  0.5699460218429947  0.1215650594264446  0.23066119795484494  1.0000
  Gd  Gd2       1.0  0.43005418117012073  0.8784346821965557  0.7693384342520062  1.0000
  H   H1        1.0  0.3180499770956402  0.8232508187763231  0.331999527143637  1.0000
  H   H2        1.0  0.6819499545893565  0.17674784961408826  0.668000749535139  1.0000
  H   H3        1.0  0.44571087502809076  0.7865512654636575  0.2260849904461253  1.0000
  H   H4        1.0  0.554289062263905  0.21344740958742392  0.7739143177257546  1.0000
  H   H5        1.0  0.1574527834663256  0.9641431290661514  0.005158948305940167  1.0000
  H   H6        1.0  0.8425449417639256  0.03585659511841751  0.9948419391674079  1.0000
  H   H7        1.0  0.1136219731244736  0.0456978959067982  0.1608496342187919  1.0000
  H   H8        1.0  0.8863782186746434  0.9543018323948619  0.8391519350018443  1.0000
  H   H9        1.0  0.1949549289645134  0.1358902797822026  0.4098063945570446  1.0000
  H   H10       1.0  0.805050053607367  0.8641137542861229  0.5901926508899464  1.0000
  H   H11       1.0  0.9571760789120203  0.3700304240035521  0.2818396463334664  1.0000
  H   H12       1.0  0.04282112608998286  0.6299671803585198  0.7181586560561544  1.0000
  H   H13       1.0  0.8770761840455422  0.43400948480038454  0.4186640000377793  1.0000
  H   H14       1.0  0.12292129228458033  0.5659891927942766  0.5813336578799165  1.0000
  H   H15       1.0  0.9676512360335111  0.6605494778911096  0.38545320436817593  1.0000
  H   H16       1.0  0.03234747358104776  0.3394492017620933  0.6145447944231606  1.0000
  H   H17       1.0  0.9302268497271343  0.5802864963209658  0.20128884196901717  1.0000
  H   H18       1.0  0.06977159416630486  0.41971111676031825  0.7987088327873552  1.0000
  H   H19       1.0  0.6775096311465841  0.6771309723735257  0.1837054206285059  1.0000
  H   H20       1.0  0.3224893385820948  0.3228687671909327  0.8162938707046978  1.0000
  H   H21       1.0  0.6613726817586707  0.6258832124457073  0.3341224591982552  1.0000
  H   H22       1.0  0.3386272555333179  0.3741154626053742  0.6658768489736248  1.0000
  H   H23       1.0  0.198622868407881  0.6826229650279245  0.005306173329913071  1.0000
  H   H24       1.0  0.8013761013207983  0.31737677453652674  0.9946931180032906  1.0000
  H   H25       1.0  0.13104232479579986  0.6180243097076001  0.129858637253605  1.0000
  H   H26       1.0  0.8689578782173158  0.3819754319154001  0.8701409949532463  1.0000
  H   H27       1.0  0.9899253990453257  0.8199854370357897  0.17198046781165024  1.0000
  H   H28       1.0  0.010074527032678299  0.18001322469395123  0.8280207773740216  1.0000
  H   H29       1.0  0.9374781088096995  0.7736274229705629  0.9830023614280067  1.0000
  H   H30       1.0  0.0625208440979961  0.2263722966118848  0.016999835425878004  1.0000
  H   H31       1.0  0.473653782662744  0.41923338406125776  0.1354877965859487  1.0000
  H   H32       1.0  0.5263451870659352  0.5807663555031939  0.864511494747255  1.0000
  H   H33       1.0  0.6076345024012113  0.42804091749638934  0.03570029499116599  1.0000
  H   H34       1.0  0.3923629683219119  0.5719577534376015  0.964298331433426  1.0000
  H   H35       1.0  0.2192388386594075  0.4834273097516118  0.301427985359176  1.0000
  H   H36       1.0  0.7807610930255888  0.5165713586387993  0.6985722913196  1.0000
  C   C1        1.0  0.9378891252084143  0.0734837748264852  0.395516009078868  1.0000
  C   C2        1.0  0.06211435835790985  0.9265191906113803  0.6044823714595113  1.0000
  C   C3        1.0  0.8217722886338092  0.9907026648270477  0.44891299326518913  1.0000
  C   C4        1.0  0.17823021054820737  0.009301345142176802  0.5510882759551948  1.0000
  C   C5        1.0  0.5945896851047863  0.38990994492670694  0.49182152809518004  1.0000
  C   C6        1.0  0.40540927901689366  0.6100897879770741  0.5081787317449199  1.0000
  C   C7        1.0  0.4254316078231711  0.37969653191857594  0.3734397847064486  1.0000
  C   C8        1.0  0.574571333086922  0.6203042870541111  0.626559884775773  1.0000
  C   C9        1.0  0.32551078729445476  0.8133903862695178  0.2256051750201422  1.0000
  C   C10       1.0  0.6744891443905418  0.1866082821208934  0.7743951016586339  1.0000
  C   C11       1.0  0.15135807668104911  0.9527084021716377  0.10699201297779128  1.0000
  C   C12       1.0  0.8486421151180751  0.0472913261300221  0.893009556242852  1.0000
  C   C13       1.0  0.11124352816689512  0.0780235845424926  0.44759935826685654  1.0000
  C   C14       1.0  0.8887624163613025  0.9219793783517928  0.5524006725257066  1.0000
  C   C15       1.0  0.8674268256931936  0.4307155676715554  0.3089342090788847  1.0000
  C   C16       1.0  0.13257065063692858  0.5692831099231057  0.6910634488388113  1.0000
  C   C17       1.0  0.8821705352535432  0.5780767400219277  0.2875612590746925  1.0000
  C   C18       1.0  0.11782694107657929  0.42192193757273344  0.7124363988430034  1.0000
  C   C19       1.0  0.6993246569905621  0.5963395782787728  0.24071461439098127  1.0000
  C   C20       1.0  0.3006743183451093  0.40366016794635584  0.7592837084353334  1.0000
  C   C21       1.0  0.1713035465589527  0.7144382782802482  0.10403160453792286  1.0000
  C   C22       1.0  0.8286954175627271  0.28556145462354016  0.8959686553021768  1.0000
  C   C23       1.0  0.042920208587808824  0.8104738895275716  0.08730141621343536  1.0000
  C   C24       1.0  0.9570787499268789  0.1895258367155392  0.9126998121335604  1.0000
  C   C25       1.0  0.6048071087738763  0.4473295491250228  0.14463251286837678  1.0000
  C   C26       1.0  0.39518939999292974  0.5526701929830085  0.8553651282106431  1.0000
  C   C27       1.0  0.3388837942111707  0.49059789950076277  0.38604980556659285  1.0000
  C   C28       1.0  0.6611164031949457  0.509401835461567  0.6139507951471543  1.0000
  Cl  Cl1       1.0  0.607950014163684  0.8774663505579738  0.047734342421016165  1.0000
  Cl  Cl2       1.0  0.392047185231327  0.12253124714342789  0.9522649284754936  1.0000
  O   O1        1.0  0.864411953166261  0.13519832333350476  0.3039858199858969  1.0000
  O   O2        1.0  0.1355909989578308  0.8648025089605158  0.6960119124825327  1.0000
  O   O3        1.0  0.6653848644389909  0.9895091799791444  0.392482448680788  1.0000
  O   O4        1.0  0.33461842629938593  0.010498023045173  0.6075207611513989  1.0000
  O   O5        1.0  0.6969104133585519  0.35100500925663164  0.21174045880860604  1.0000
  O   O6        1.0  0.303088296256007  0.6489936703965711  0.7882575399827375  1.0000
  O   O7        1.0  0.32335761819278014  0.9525304702358927  0.19914813464463077  1.0000
  O   O8        1.0  0.6766401126444704  0.04746926060933991  0.8008517843218215  1.0000
  O   O9        1.0  0.3748758769377574  0.2666854784249324  0.2667656776450755  1.0000
  O   O10       1.0  0.6251258250809072  0.7333153318285356  0.7332346194703946  1.0000
  O   O11       1.0  0.6659852225369178  0.2854917773195282  0.4687988002975061  1.0000
  O   O12       1.0  0.33401647948174673  0.7145090329339396  0.531201496817964  1.0000
