data_image0
_chemical_formula_structural       Zn2H46C57N4O12
_chemical_formula_sum              "Zn2 H46 C57 N4 O12"
_cell_length_a       9.586089232820903
_cell_length_b       10.835904156630832
_cell_length_c       28.13831702440293
_cell_angle_alpha    89.7677490786415
_cell_angle_beta     89.91904806126378
_cell_angle_gamma    90.19291023808627

_space_group_name_H-M_alt    "P 1"
_space_group_IT_number       1

loop_
  _space_group_symop_operation_xyz
  'x, y, z'

loop_
  _atom_site_type_symbol
  _atom_site_label
  _atom_site_symmetry_multiplicity
  _atom_site_fract_x
  _atom_site_fract_y
  _atom_site_fract_z
  _atom_site_occupancy
  Zn  Zn1       1.0  0.352872457035076  0.49971476058517783  0.5000314349449724  1.0000
  Zn  Zn2       1.0  0.6470989338611589  0.5006073350159782  0.5001171892153379  1.0000
  H   H1        1.0  0.2762096116309323  0.49641647535904093  0.6532610355312798  1.0000
  H   H2        1.0  0.27657279604868995  0.4991199225392364  0.7425833417280288  1.0000
  H   H3        1.0  0.7241126649521091  0.5094587231287022  0.3478574528815272  1.0000
  H   H4        1.0  0.7272233795080254  0.5055303915903124  0.258476670877549  1.0000
  H   H5        1.0  0.5101718620530988  0.7999461253424017  0.1238643826626671  1.0000
  H   H6        1.0  0.5181003742740627  0.808677203110669  0.035802961092919396  1.0000
  H   H7        1.0  0.5773035915347718  0.8049287996253297  0.9684188644771011  1.0000
  H   H8        1.0  0.7229602439414151  0.5096170442665482  0.6523595807789491  1.0000
  H   H9        1.0  0.724575527472645  0.5131292510052035  0.7416725126756772  1.0000
  H   H10       1.0  0.4281853650017027  0.2031177779612321  0.8763518292072444  1.0000
  H   H11       1.0  0.5043791522369573  0.18451073540596497  0.0315322659293074  1.0000
  H   H12       1.0  0.2780823387280051  0.4833615024889398  0.3467698794010943  1.0000
  H   H13       1.0  0.28007357496719715  0.4780763066904115  0.2574279948123532  1.0000
  H   H14       1.0  0.4369950722607285  0.19271952718763427  0.9644850451263878  1.0000
  H   H15       1.0  0.2927678238614106  0.8913269065021437  0.5320165195845519  1.0000
  H   H16       1.0  0.6790294638656676  0.8925467204060951  0.4545758747730844  1.0000
  H   H17       1.0  0.29130413850028  0.8920649808344622  0.4695283492828749  1.0000
  H   H18       1.0  0.519148906042396  0.8929815866266466  0.4235377770608508  1.0000
  H   H19       1.0  0.2910240108778765  0.10782586185712259  0.4696625776939455  1.0000
  H   H20       1.0  0.5190681139510075  0.10808915916608437  0.423362543472372  1.0000
  H   H21       1.0  0.29341822907468174  0.10709225299152791  0.5321286558508689  1.0000
  H   H22       1.0  0.6790554871076891  0.10916648921255499  0.4543286587576034  1.0000
  H   H23       1.0  0.522709871088132  0.8922123382347918  0.5765022067644665  1.0000
  H   H24       1.0  0.6811393406024705  0.8917995585035428  0.5444855038244256  1.0000
  H   H25       1.0  0.5232800217566265  0.1073200609693785  0.576333794077385  1.0000
  H   H26       1.0  0.6815941415459577  0.10843489121197081  0.5442249370928565  1.0000
  H   H27       1.0  0.8766031890925419  0.6252610653422083  0.5576755198871126  1.0000
  H   H28       1.0  0.12485135206829771  0.6251719250972555  0.5575123903000048  1.0000
  H   H29       1.0  0.8770713134859849  0.6934922013888781  0.500591466598479  1.0000
  H   H30       1.0  0.1247448472160357  0.6935008810351633  0.5004182054053317  1.0000
  H   H31       1.0  0.8754739725120901  0.4046672074671775  0.566069204607345  1.0000
  H   H32       1.0  0.1239813797848086  0.4049160374978412  0.5659526008981715  1.0000
  H   H33       1.0  0.875800217498437  0.4020292499976179  0.43712362613988626  1.0000
  H   H34       1.0  0.12327001935648951  0.40185829390082983  0.4369999977320589  1.0000
  H   H35       1.0  0.8767154692303551  0.5642980737178293  0.430867219338701  1.0000
  H   H36       1.0  0.12392225736542173  0.5640301413499885  0.43067093005237206  1.0000
  H   H37       1.0  0.8753928553743223  0.3098595979717373  0.5150525927778986  1.0000
  H   H38       1.0  0.12336661596817322  0.3097702728159817  0.5150146807792381  1.0000
  H   H39       1.0  0.31617541071369  0.14736025436307904  0.1611487063458625  1.0000
  H   H40       1.0  0.30058536747544196  0.0749546428359906  0.10452003952264727  1.0000
  H   H41       1.0  0.37777253096535185  0.9949003389805853  0.15325746112932848  1.0000
  H   H42       1.0  0.5595362074823668  0.07419253661894488  0.0955751929903599  1.0000
  H   H43       1.0  0.5790850236748071  0.1353834453420006  0.15372009039127477  1.0000
  H   H44       1.0  0.614059293948607  0.9180152098262083  0.9049029163357999  1.0000
  H   H45       1.0  0.683584058966872  0.8439351564971532  0.8533937134671916  1.0000
  H   H46       1.0  0.5073856308190586  0.8825326682769017  0.8545242963854633  1.0000
  C   C1        1.0  0.5012228531008134  0.7394771818682956  0.49988426205137415  1.0000
  C   C2        1.0  0.4981813507439199  0.5008870480787095  0.5943091997371042  1.0000
  C   C3        1.0  0.5012407609955929  0.2607705532851412  0.49975440837172147  1.0000
  C   C4        1.0  0.49891521333569244  0.49953738925717783  0.4058036483189297  1.0000
  C   C5        1.0  0.5291742198659434  0.6195212449287979  0.8209645542788592  1.0000
  C   C6        1.0  0.4738620534468581  0.3930643546309013  0.8205518649732965  1.0000
  C   C7        1.0  0.626834001385717  0.5096176941647386  0.7219787149311043  1.0000
  C   C8        1.0  0.6259204073576612  0.5077106215806069  0.6725234352580782  1.0000
  C   C9        1.0  0.373617891899137  0.5003025082526236  0.6730644945277146  1.0000
  C   C10       1.0  0.3738232062190576  0.5022315089490802  0.7225076300239619  1.0000
  C   C11       1.0  0.5006009722805587  0.506935362553591  0.7466374937252239  1.0000
  C   C12       1.0  0.5054406792476341  0.5051245691317588  0.898332749889448  1.0000
  C   C13       1.0  0.5314017758607575  0.6180283766492564  0.8735860019156901  1.0000
  C   C14       1.0  0.5595289359340824  0.7264425931786391  0.8993137463353591  1.0000
  C   C15       1.0  0.47730629127770646  0.3949218139765592  0.872970005417116  1.0000
  C   C16       1.0  0.49945063122578387  0.5030080393966544  0.6477064699140341  1.0000
  C   C17       1.0  0.500937868715141  0.4965647327030567  0.352392817344267  1.0000
  C   C18       1.0  0.5170905365061244  0.6106556610157128  0.026729645687176194  1.0000
  C   C19       1.0  0.4993776951704162  0.38201462722251006  0.0252448670527841  1.0000
  C   C20       1.0  0.5076489388206227  0.49489486700728236  0.0509823950715713  1.0000
  C   C21       1.0  0.5160991859853753  0.7191774802867458  0.053485118420127285  1.0000
  C   C22       1.0  0.5111221033814672  0.7154449895087184  0.10295711276014427  1.0000
  C   C23       1.0  0.5083295778658793  0.6033992947041044  0.1271431814518849  1.0000
  C   C24       1.0  0.5067196832168648  0.4903648843852864  0.1018282422259986  1.0000
  C   C25       1.0  0.5050199967745073  0.37500585398530023  0.1266099855869314  1.0000
  C   C26       1.0  0.5032333820328602  0.37481136306030993  0.17935619022151164  1.0000
  C   C27       1.0  0.5066722092311764  0.606251362186228  0.1795336293880752  1.0000
  C   C28       1.0  0.6294255111003152  0.49991236182040677  0.27818076639463374  1.0000
  C   C29       1.0  0.6276424874369368  0.5024590489077312  0.327626769918794  1.0000
  C   C30       1.0  0.3757259298393691  0.48775683367551875  0.326996465940752  1.0000
  C   C31       1.0  0.3768323020956572  0.48480197001349257  0.27755890647623715  1.0000
  C   C32       1.0  0.5038572858418888  0.49091842155969795  0.2534940755833475  1.0000
  C   C33       1.0  0.5273465302764535  0.6121877145865967  0.9748364662476376  1.0000
  C   C34       1.0  0.5069126196695707  0.5004640280126013  0.9491605854455258  1.0000
  C   C35       1.0  0.48770111585394454  0.38566302812512293  0.973406206793392  1.0000
  C   C36       1.0  0.5556693925035817  0.7198061707654588  0.9492769473410334  1.0000
  C   C37       1.0  0.451877241024242  0.2851130648636158  0.8972147158937601  1.0000
  C   C38       1.0  0.503221026056714  0.271649403386604  0.050747996998268284  1.0000
  C   C39       1.0  0.5075290144472504  0.2640218925151104  0.1007101722864263  1.0000
  C   C40       1.0  0.45767963201373624  0.2802803449016977  0.9467002585963868  1.0000
  C   C41       1.0  0.3470403725234377  0.928402178474066  0.5006013017078742  1.0000
  C   C42       1.0  0.572325732497461  0.9291563022317036  0.4552136590871001  1.0000
  C   C43       1.0  0.3471518371913547  0.0709667177075275  0.500613187342644  1.0000
  C   C44       1.0  0.5723291986958331  0.07199265790188751  0.45509281451396066  1.0000
  C   C45       1.0  0.5744819505026867  0.9285217433633262  0.5444145337679274  1.0000
  C   C46       1.0  0.49739832390423533  0.8798266202232269  0.5000878689322619  1.0000
  C   C47       1.0  0.4975541411267345  0.12035652563780273  0.4999358486225346  1.0000
  C   C48       1.0  0.5747661730029776  0.0714425927748366  0.5442867453656816  1.0000
  C   C49       1.0  0.919958941061722  0.6173304361037351  0.5216921904243677  1.0000
  C   C50       1.0  0.08137071265126389  0.6173064095804861  0.5215807644133291  1.0000
  C   C51       1.0  0.9189057318596026  0.3947539161865591  0.530180899303268  1.0000
  C   C52       1.0  0.0804844725475107  0.3947770021153333  0.5301159177714253  1.0000
  C   C53       1.0  0.919392574090466  0.487570459988092  0.4517438846544194  1.0000
  C   C54       1.0  0.08050694098557899  0.48748865805843167  0.4516425868628602  1.0000
  C   C55       1.0  0.5124465224066412  0.1359696622714566  0.12213543681756527  1.0000
  C   C56       1.0  0.36771470813653206  0.0855128307267918  0.13591961917173018  1.0000
  C   C57       1.0  0.5928861916268744  0.8494954808584864  0.8771335825908578  1.0000
  N   N1        1.0  0.5012219413051894  0.5063730441972822  0.7979432562366071  1.0000
  N   N2        1.0  0.5054498170186504  0.4907529062777343  0.2021438538343006  1.0000
  N   N3        1.0  0.8660591591680313  0.4999898769690176  0.50118299679022  1.0000
  N   N4        1.0  0.1341204301911247  0.49988006329601126  0.5010097346445263  1.0000
  O   O1        1.0  0.3845761860585952  0.6831078264638748  0.4996965566940332  1.0000
  O   O2        1.0  0.6205198479713161  0.68830571284564  0.49984113530250335  1.0000
  O   O3        1.0  0.37940182604052103  0.49972397122181883  0.5741494082800072  1.0000
  O   O4        1.0  0.6162712387271227  0.500523333939796  0.5733723883313215  1.0000
  O   O5        1.0  0.38451515365342454  0.31639240497542426  0.4998635542961622  1.0000
  O   O6        1.0  0.6205519909969083  0.3127464370309667  0.49951337907576476  1.0000
  O   O7        1.0  0.3799664811716923  0.4995192875792895  0.4258651129991406  1.0000
  O   O8        1.0  0.6165849514985381  0.5016163521847331  0.4267770323187392  1.0000
  O   O9        1.0  0.5497903616227616  0.7129606970120007  0.796842423401955  1.0000
  O   O10       1.0  0.5061807912625866  0.7026175482184128  0.20261112820911353  1.0000
  O   O11       1.0  0.4495286998350565  0.29913290932206854  0.7974673556173997  1.0000
  O   O12       1.0  0.49928788179857975  0.2805755215392338  0.20396596133033992  1.0000
