data_image0
_chemical_formula_structural       CoH12C12N8Cl2
_chemical_formula_sum              "Co1 H12 C12 N8 Cl2"
_cell_length_a       7.244330014373689
_cell_length_b       7.715530437801882
_cell_length_c       8.422791538081137
_cell_angle_alpha    105.20238017773156
_cell_angle_beta     104.28597743311799
_cell_angle_gamma    99.50355087371716

_space_group_name_H-M_alt    "P 1"
_space_group_IT_number       1

loop_
  _space_group_symop_operation_xyz
  'x, y, z'

loop_
  _atom_site_type_symbol
  _atom_site_label
  _atom_site_symmetry_multiplicity
  _atom_site_fract_x
  _atom_site_fract_y
  _atom_site_fract_z
  _atom_site_occupancy
  Co  Co1       1.0  2.5164394657391464e-06  0.5000024744256847  0.5000028404853724  1.0000
  H   H1        1.0  0.6059156743379501  0.3558440195248237  0.5916089857974853  1.0000
  H   H2        1.0  0.39408890442673794  0.6441583461878508  0.40839574771019477  1.0000
  H   H3        1.0  0.7011181053771977  0.826075456909791  0.33381067024600947  1.0000
  H   H4        1.0  0.2988773279333897  0.17392610509164538  0.6661766643716974  1.0000
  H   H5        1.0  0.5483634893063466  0.39708325963140106  0.2692077753526334  1.0000
  H   H6        1.0  0.45164256642620154  0.6029191954647783  0.7307984529458338  1.0000
  H   H7        1.0  0.8125667797157373  0.6613304559284355  0.9524414570414166  1.0000
  H   H8        1.0  0.18742825852891087  0.33866745037290963  0.04756043576995241  1.0000
  H   H9        1.0  0.9550349041706665  0.11609260722260471  0.33709364595254243  1.0000
  H   H10       1.0  0.04496368568057821  0.8839093245531371  0.6629026997790605  1.0000
  H   H11       1.0  0.06476862161438393  0.6530260224669746  0.22436455079820664  1.0000
  H   H12       1.0  0.9352272574270444  0.34697595975053014  0.775636031190615  1.0000
  C   C1        1.0  0.6570047671367475  0.24119257775954847  0.5262277222289172  1.0000
  C   C2        1.0  0.3430008192322801  0.7588083404244299  0.47377332291355867  1.0000
  C   C3        1.0  0.5824817742046235  0.0479613846884277  0.4811293156298007  1.0000
  C   C4        1.0  0.4175202436695073  0.9520365865158309  0.5188680080708395  1.0000
  C   C5        1.0  0.7030448680995888  0.9695358105548522  0.3918762068804896  1.0000
  C   C6        1.0  0.29695376227264353  0.030466159422353204  0.6081213431575848  1.0000
  C   C7        1.0  0.6452314913177802  0.46646764475580926  0.21273943501968523  1.0000
  C   C8        1.0  0.3547676705508849  0.5335291455896892  0.7872665762339112  1.0000
  C   C9        1.0  0.597072204652946  0.5155706755056783  0.05966344544200552  1.0000
  C   C10       1.0  0.4029300563470954  0.4844275249073391  0.940341104097435  1.0000
  C   C11       1.0  0.7767685029794791  0.6027009943281526  0.049011517143455356  1.0000
  C   C12       1.0  0.22322070843568298  0.3972966308421063  0.950986805117694  1.0000
  N   N1        1.0  0.812990724677107  0.27634711923267474  0.4692004804513489  1.0000
  N   N2        1.0  0.1870112479524124  0.7236564900208079  0.5308028337113555  1.0000
  N   N3        1.0  0.8374280565648035  0.11016816152810797  0.3873611527757391  1.0000
  N   N4        1.0  0.16257514990667238  0.889835307900121  0.6126364303389595  1.0000
  N   N5        1.0  0.8405194091181726  0.5208648416663664  0.2902995462056381  1.0000
  N   N6        1.0  0.15948408100019407  0.4791388951720846  0.7097064670543178  1.0000
  N   N7        1.0  0.9167133198143914  0.6026614675957448  0.18891895142047602  1.0000
  N   N8        1.0  0.08328547264177641  0.3973406551872997  0.8110834158434557  1.0000
  Cl  Cl1       1.0  0.18789747068869636  0.29926504986481445  0.3204369926181414  1.0000
  Cl  Cl2       1.0  0.8121025772213524  0.700730178347598  0.6795617173508504  1.0000
