data_image0
_chemical_formula_structural       Zn2H14C32S2N6O10F4
_chemical_formula_sum              "Zn2 H14 C32 S2 N6 O10 F4"
_cell_length_a       12.748308859215506
_cell_length_b       15.987770569076622
_cell_length_c       17.351926875049298
_cell_angle_alpha    96.16435043249831
_cell_angle_beta     89.91796354405734
_cell_angle_gamma    93.20730838729791

_space_group_name_H-M_alt    "P 1"
_space_group_IT_number       1

loop_
  _space_group_symop_operation_xyz
  'x, y, z'

loop_
  _atom_site_type_symbol
  _atom_site_label
  _atom_site_symmetry_multiplicity
  _atom_site_fract_x
  _atom_site_fract_y
  _atom_site_fract_z
  _atom_site_occupancy
  Zn  Zn1       1.0  0.49618655448364285  0.41213928343210426  0.49744196053215  1.0000
  Zn  Zn2       1.0  0.5038105888183394  0.5878607052420434  0.5025751690514325  1.0000
  H   H1        1.0  0.39578760345452224  0.7151380060464162  0.4256426875441051  1.0000
  H   H2        1.0  0.39792833670536953  0.8739737219913974  0.42605706093807066  1.0000
  H   H3        1.0  0.6405591549966729  0.8918898435404896  0.602029219260217  1.0000
  H   H4        1.0  0.3593930623428889  0.10810768970912929  0.39799567236779143  1.0000
  H   H5        1.0  0.6020355165907105  0.12602121141550526  0.5739578150540579  1.0000
  H   H6        1.0  0.6041785040282549  0.2848556859534951  0.5743743836677238  1.0000
  H   H7        1.0  0.5067878518156662  0.6190377087054342  0.2598418936752509  1.0000
  H   H8        1.0  0.5064995128336206  0.6139184870180968  0.114468750240782  1.0000
  H   H9        1.0  0.4909656656913625  0.34265384427979473  0.0993811199302286  1.0000
  H   H10       1.0  0.5091455474265558  0.6573398685819497  0.9006385193443334  1.0000
  H   H11       1.0  0.4935834444459886  0.38607454848696676  0.8855450127141324  1.0000
  H   H12       1.0  0.4932811929385964  0.3809585004758843  0.7401750176788295  1.0000
  H   H13       1.0  0.0705670799627995  0.3124908878262572  0.4922089340834006  1.0000
  H   H14       1.0  0.9294236252526745  0.6875094986682624  0.507547145213806  1.0000
  C   C1        1.0  0.4995416379065105  0.49434028538767893  0.34867261896478396  1.0000
  C   C2        1.0  0.295487428906462  0.5015838052158371  0.5004738131735137  1.0000
  C   C3        1.0  0.5004770068171067  0.5056640908083024  0.6513420710263134  1.0000
  C   C4        1.0  0.7045209127248597  0.49841227883316447  0.49945018920776346  1.0000
  C   C5        1.0  0.44817057802166005  0.757688425672576  0.46316390707035276  1.0000
  C   C6        1.0  0.44940951398587003  0.8443004762100655  0.4635838623536088  1.0000
  C   C7        1.0  0.51975169335568  0.8939686401413596  0.5142674702351755  1.0000
  C   C8        1.0  0.5855517480931098  0.8552735849918702  0.5621044143925217  1.0000
  C   C9        1.0  0.5774849528799707  0.7676516119951201  0.5567226425959717  1.0000
  C   C10       1.0  0.4144020435023492  0.14472393891012555  0.4379193265557077  1.0000
  C   C11       1.0  0.48020594839817227  0.10602759552381258  0.4857527012448415  1.0000
  C   C12       1.0  0.5505528037232781  0.155695106006263  0.536433375829219  1.0000
  C   C13       1.0  0.5517940488300042  0.24230652648689943  0.5368532773369735  1.0000
  C   C14       1.0  0.42247674866395357  0.23234650463054857  0.4432965564642899  1.0000
  C   C15       1.0  0.49903669846066373  0.48560520301786864  0.26158929010361476  1.0000
  C   C16       1.0  0.5032343714670588  0.559157897391401  0.22320638656878333  1.0000
  C   C17       1.0  0.5031352695987082  0.5566030096431333  0.1432344276873749  1.0000
  C   C18       1.0  0.49869199754783017  0.477907405311896  0.0979676618365559  1.0000
  C   C19       1.0  0.49447220966194294  0.4036359553487046  0.1342137081232266  1.0000
  C   C20       1.0  0.4946944838105338  0.40825015692822564  0.21462937791022796  1.0000
  C   C21       1.0  0.5056326759068314  0.5963571413859156  0.8658075921064918  1.0000
  C   C22       1.0  0.5014058282996672  0.5220856913195532  0.9020536256930071  1.0000
  C   C23       1.0  0.4969556919204905  0.4433925744531918  0.8567830419204296  1.0000
  C   C24       1.0  0.4968370346710529  0.4408382977684794  0.7768087987656356  1.0000
  C   C25       1.0  0.5010269049261353  0.5143916268038992  0.7384265158794107  1.0000
  C   C26       1.0  0.5053915398803285  0.5917422953842006  0.7853901001904829  1.0000
  C   C27       1.0  0.1075200347245087  0.43031575014097007  0.49782539919301166  1.0000
  C   C28       1.0  0.8924897325244813  0.5696870539175761  0.5019182574844052  1.0000
  C   C29       1.0  0.1801946182330028  0.4988916688638411  0.5002559198158423  1.0000
  C   C30       1.0  0.8198215336470157  0.501104532263504  0.49952748403524067  1.0000
  C   C31       1.0  0.9973531871944205  0.5437075751173238  0.5012086257191227  1.0000
  C   C32       1.0  0.0026709986285169103  0.456305364398311  0.4984651007233225  1.0000
  S   S1        1.0  0.12025156594411611  0.5948149383721953  0.5030500708664858  1.0000
  S   S2        1.0  0.8797824319749167  0.40518589611829725  0.49668365076198023  1.0000
  N   N1        1.0  0.5119077288035498  0.7195666952809459  0.5094188533588236  1.0000
  N   N2        1.0  0.5307134533093816  0.9832886133334638  0.5215764177834643  1.0000
  N   N3        1.0  0.46924572131692344  0.016706978207565698  0.47844196825688085  1.0000
  N   N4        1.0  0.4880594303946851  0.28043077259262356  0.4905979905663784  1.0000
  N   N5        1.0  0.4981304084726261  0.46615052595087286  0.016046344828382096  1.0000
  N   N6        1.0  0.5019695996525685  0.5338400409794416  0.9839735613970216  1.0000
  O   O1        1.0  0.5006878646728055  0.42729265471202627  0.3816867024956991  1.0000
  O   O2        1.0  0.4990047577492903  0.5691539877094838  0.38250982269632056  1.0000
  O   O3        1.0  0.34198465510468884  0.574611067979582  0.49956306125130107  1.0000
  O   O4        1.0  0.3391984189317228  0.4321247541864607  0.5016361820207534  1.0000
  O   O5        1.0  0.49914251146756783  0.5727003771018245  0.6183266060760173  1.0000
  O   O6        1.0  0.5011612113809605  0.43085917442536464  0.6175013292918479  1.0000
  O   O7        1.0  0.6580311467352902  0.42537579197291114  0.500310542529526  1.0000
  O   O8        1.0  0.6607977755303835  0.567889700872712  0.49845662181704137  1.0000
  O   O9        1.0  0.13461981682503682  0.34892413246380727  0.4950339710906702  1.0000
  O   O10       1.0  0.8653707926684007  0.6510785378676188  0.5047707293185795  1.0000
  F   F1        1.0  0.6389512388019656  0.7281346437533002  0.6015825023691264  1.0000
  F   F2        1.0  0.3610128627947802  0.27186409831272573  0.39843618218237953  1.0000
  F   F3        1.0  0.4901527093044677  0.33372799785784923  0.24566775095525628  1.0000
  F   F4        1.0  0.5099482928659  0.6662657382812538  0.7543547537297356  1.0000
