data_image0
_chemical_formula_structural       In4P4H24C24N4O20
_chemical_formula_sum              "In4 P4 H24 C24 N4 O20"
_cell_length_a       6.6979906111712575
_cell_length_b       10.460618851320003
_cell_length_c       13.820029231145211
_cell_angle_alpha    106.66148385113802
_cell_angle_beta     89.99962006377979
_cell_angle_gamma    90.00080262318932

_space_group_name_H-M_alt    "P 1"
_space_group_IT_number       1

loop_
  _space_group_symop_operation_xyz
  'x, y, z'

loop_
  _atom_site_type_symbol
  _atom_site_label
  _atom_site_symmetry_multiplicity
  _atom_site_fract_x
  _atom_site_fract_y
  _atom_site_fract_z
  _atom_site_occupancy
  In  In1       1.0  0.550924163600385  0.9240288174001351  0.2826029733422645  1.0000
  In  In2       1.0  0.0509275634138504  0.5759688860988491  0.2173987175908536  1.0000
  In  In3       1.0  0.4490620136085254  0.07597627766509871  0.7174036204399741  1.0000
  In  In4       1.0  0.9490705576145189  0.42402311272090987  0.7825957182378217  1.0000
  P   P1        1.0  0.0641642051783862  0.9040479717623028  0.33060517524018707  1.0000
  P   P2        1.0  0.5641656121556976  0.5959538059124512  0.169395158242871  1.0000
  P   P3        1.0  0.9358294369468394  0.09595104052080222  0.6693929046343712  1.0000
  P   P4        1.0  0.4358325089292663  0.4040482477963536  0.8306071785796617  1.0000
  H   H1        1.0  0.09621271668066808  0.9757891412688338  0.4329249271423875  1.0000
  H   H2        1.0  0.5962034849020625  0.5242118993345246  0.06707442535539346  1.0000
  H   H3        1.0  0.9037988411847024  0.024201898161962308  0.5670722016290242  1.0000
  H   H4        1.0  0.4037976222339524  0.47579609331533135  0.9329255408307304  1.0000
  H   H5        1.0  0.8051076463959459  0.35169765680511494  0.2720189237259092  1.0000
  H   H6        1.0  0.30511845643002994  0.1483025093750925  0.227985429220098  1.0000
  H   H7        1.0  0.19489346062582058  0.6483024300632609  0.7279851708202827  1.0000
  H   H8        1.0  0.694879664750381  0.8517034204856984  0.7720090383361936  1.0000
  H   H9        1.0  0.34460214775955916  0.5319057488606943  0.3760105467361399  1.0000
  H   H10       1.0  0.844606329789876  0.9680953917343943  0.12398803186218291  1.0000
  H   H11       1.0  0.6553989593099273  0.4680962760836778  0.6239896131769314  1.0000
  H   H12       1.0  0.1553947772699402  0.031907669394385614  0.8760152401847634  1.0000
  H   H13       1.0  0.8167759619639339  0.21108727350090825  0.39240134206048793  1.0000
  H   H14       1.0  0.3167854975368626  0.28891200289228886  0.10760351026869588  1.0000
  H   H15       1.0  0.1832311170075229  0.7889148282074104  0.6076046229345238  1.0000
  H   H16       1.0  0.6832230745106713  0.7110899165677794  0.8923886676455197  1.0000
  H   H17       1.0  0.1065430693431821  0.24108829348531208  0.5128713018489535  1.0000
  H   H18       1.0  0.6065437521132324  0.2589101836135299  0.9871274938728405  1.0000
  H   H19       1.0  0.8934655026608951  0.7589177803047279  0.48713405023650586  1.0000
  H   H20       1.0  0.39346481986297727  0.741085777733396  0.012865603404108644  1.0000
  H   H21       1.0  0.3773947600686326  0.400066235254812  0.5030516707303363  1.0000
  H   H22       1.0  0.8773948213556294  0.09993350031992071  0.9969443517086132  1.0000
  H   H23       1.0  0.6226093330183672  0.5999417957770137  0.49695119799675064  1.0000
  H   H24       1.0  0.1226122575924933  0.9000615303520905  0.0030536154290601793  1.0000
  C   C1        1.0  0.9292759383128766  0.35720267640302694  0.32402534116387466  1.0000
  C   C2        1.0  0.4292843435922435  0.14279453647425563  0.17597727046857867  1.0000
  C   C3        1.0  0.07072815467432748  0.6427964030705766  0.6759778181536475  1.0000
  C   C4        1.0  0.5707197494904078  0.8572084191513271  0.8240180195827022  1.0000
  C   C5        1.0  0.23231539506945603  0.45987466195184373  0.3835871172877177  1.0000
  C   C6        1.0  0.7323192824666336  0.0401267993781502  0.11641122807253618  1.0000
  C   C7        1.0  0.7676872049898051  0.540128370406201  0.6164139778508329  1.0000
  C   C8        1.0  0.26768331758792385  0.9598752255725176  0.8835889318394692  1.0000
  C   C9        1.0  0.9367350962836765  0.28087653216793024  0.39137153938710867  1.0000
  C   C10       1.0  0.4367415994846624  0.21911972663163234  0.10862940073246113  1.0000
  C   C11       1.0  0.06327048971228778  0.7191255503494034  0.6086329743374179  1.0000
  C   C12       1.0  0.5632639865689484  0.7808802067781287  0.8913630836381331  1.0000
  C   C13       1.0  0.0987864996074777  0.29648729341744934  0.4572400591828014  1.0000
  C   C14       1.0  0.5987889799942746  0.20350905011503787  0.042757638499082914  1.0000
  C   C15       1.0  0.9012190864170504  0.7035167655452527  0.5427634224517064  1.0000
  C   C16       1.0  0.40121511304091934  0.7964889164354004  0.9572366035983677  1.0000
  C   C17       1.0  0.24904750704848055  0.38692266486886245  0.45288377280725456  1.0000
  C   C18       1.0  0.7490494448976648  0.1130749271704303  0.0471122590257664  1.0000
  C   C19       1.0  0.7509565860243298  0.6130833609405643  0.5471179511025214  1.0000
  C   C20       1.0  0.25095464808980245  0.8869211013040186  0.9528859177048049  1.0000
  C   C21       1.0  0.5012570711531338  0.9243671449307487  0.498275520087752  1.0000
  C   C22       1.0  0.0012693449088985  0.5756271365462596  0.0017248873572129147  1.0000
  C   C23       1.0  0.49872611993359317  0.07562401908086261  0.5017310419689949  1.0000
  C   C24       1.0  0.998728776166928  0.42436985134864375  0.9982705964252928  1.0000
  N   N1        1.0  0.0745071359340486  0.44515023269786985  0.3207277624714351  1.0000
  N   N2        1.0  0.5745119901564592  0.05484994523090592  0.17927443642243904  1.0000
  N   N3        1.0  0.9254969570722265  0.5548498254060731  0.6792741551653023  1.0000
  N   N4        1.0  0.4254876239469354  0.9451540753372285  0.8207261426732373  1.0000
  O   O1        1.0  0.06501657920390609  0.7578508262329039  0.33291966828831226  1.0000
  O   O2        1.0  0.5650227060433296  0.742151966060284  0.16708159920069932  1.0000
  O   O3        1.0  0.9349770629454425  0.24214610408903783  0.6670714616827381  1.0000
  O   O4        1.0  0.4349754150175186  0.2578521696096914  0.8329276875253413  1.0000
  O   O5        1.0  0.8655933553096702  0.9521445403915224  0.2995701623349519  1.0000
  O   O6        1.0  0.36559636948464197  0.5478598666618383  0.2004362714181127  1.0000
  O   O7        1.0  0.13439431487465467  0.04786159086442151  0.7004395435800816  1.0000
  O   O8        1.0  0.6344032445666841  0.4521371404240497  0.7995606636348711  1.0000
  O   O9        1.0  0.2338651609209421  0.9394918007572954  0.26832682485971293  1.0000
  O   O10       1.0  0.7338694319577286  0.5605063811861016  0.23166931578577996  1.0000
  O   O11       1.0  0.766124002315763  0.06051114521295631  0.7316677395664541  1.0000
  O   O12       1.0  0.2661301820507447  0.4394876612317376  0.7683291674022357  1.0000
  O   O13       1.0  0.5284932367894298  0.838917523755143  0.41334556210831147  1.0000
  O   O14       1.0  0.028518176508065093  0.661074982333851  0.08665366161615404  1.0000
  O   O15       1.0  0.47148248938629667  0.16107361144794655  0.5866588230464344  1.0000
  O   O16       1.0  0.971482930533206  0.33892099816628024  0.913340886937675  1.0000
  O   O17       1.0  0.47640397791376893  0.8961076444098596  0.5805381938438572  1.0000
  O   O18       1.0  0.9764126358523199  0.60388777270326  0.9194652244184596  1.0000
  O   O19       1.0  0.5235851851083737  0.10388454621901391  0.4194707547067154  1.0000
  O   O20       1.0  0.023585485237788407  0.39611020341433095  0.08052974331903331  1.0000
