data_image0
_chemical_formula_structural       Zn2H48C70N2O8F4
_chemical_formula_sum              "Zn2 H48 C70 N2 O8 F4"
_cell_length_a       10.84121675172831
_cell_length_b       14.164959313528643
_cell_length_c       15.21513560289034
_cell_angle_alpha    90.19880069727881
_cell_angle_beta     92.77178742045592
_cell_angle_gamma    91.72694779186564

_space_group_name_H-M_alt    "P 1"
_space_group_IT_number       1

loop_
  _space_group_symop_operation_xyz
  'x, y, z'

loop_
  _atom_site_type_symbol
  _atom_site_label
  _atom_site_symmetry_multiplicity
  _atom_site_fract_x
  _atom_site_fract_y
  _atom_site_fract_z
  _atom_site_occupancy
  Zn  Zn1       1.0  0.48367381379816976  0.39764771169120644  0.4958682728930199  1.0000
  Zn  Zn2       1.0  0.4906344307635209  0.6044317890033211  0.5016878830757463  1.0000
  H   H1        1.0  0.3559820332701804  0.5876221267608487  0.774880918871645  1.0000
  H   H2        1.0  0.10738238006653231  0.6437117343295568  0.5607345534006001  1.0000
  H   H3        1.0  0.8831586995005054  0.6063024213521118  0.41233603909496  1.0000
  H   H4        1.0  0.8908150235938451  0.6380939724849952  0.5778064575861707  1.0000
  H   H5        1.0  0.8743810730282533  0.48849687509409984  0.3715528640178292  1.0000
  H   H6        1.0  0.9095367355123046  0.5430848531785202  0.6516353358535484  1.0000
  H   H7        1.0  0.0909244719389264  0.347110552457643  0.4964363300538253  1.0000
  H   H8        1.0  0.08919996409387923  0.3869431123815588  0.6066226335153503  1.0000
  H   H9        1.0  0.5229838695207648  0.34768117106253277  0.06124883664673322  1.0000
  H   H10       1.0  0.5588010027489716  0.6491193615731631  0.0574396550530452  1.0000
  H   H11       1.0  0.38631238276530405  0.6818397113581652  0.3148393048623461  1.0000
  H   H12       1.0  0.6598423075898765  0.400514195378868  0.7756908974645144  1.0000
  H   H13       1.0  0.19462062895412657  0.6545110356571086  0.22129541190668084  1.0000
  H   H14       1.0  0.9985061034569044  0.7292458151380856  0.2605761917439793  1.0000
  H   H15       1.0  0.9963910422621468  0.8292892803592267  0.3958498119635649  1.0000
  H   H16       1.0  0.1887680007936865  0.8576228156114779  0.48756765669784125  1.0000
  H   H17       1.0  0.15905877266911972  0.1284764024699143  0.5183529261084558  1.0000
  H   H18       1.0  0.9671254577419787  0.14434755234382377  0.4257119036386428  1.0000
  H   H19       1.0  0.9683266278809413  0.2401796525351543  0.2885844543888822  1.0000
  H   H20       1.0  0.1627701758220894  0.3244004653183054  0.2483886214191671  1.0000
  H   H21       1.0  0.35465914268560544  0.30815574451725064  0.3397796336895667  1.0000
  H   H22       1.0  0.7152224908574142  0.364912851845375  0.3077402726818761  1.0000
  H   H23       1.0  0.36886601243448075  0.9449236502796197  0.41538072112094687  1.0000
  H   H24       1.0  0.7638829436908878  0.20463166389338025  0.35814143300148527  1.0000
  H   H25       1.0  0.6284585286730505  0.06632226356678929  0.3092522331431412  1.0000
  H   H26       1.0  0.4434521718747816  0.09209733373868544  0.2092849685211746  1.0000
  H   H27       1.0  0.3966217887356009  0.2532906628271263  0.15740054310655444  1.0000
  H   H28       1.0  0.4572936173145976  0.7593753240115078  0.1507665499143513  1.0000
  H   H29       1.0  0.5324466248960321  0.9156467799096576  0.2093025065251837  1.0000
  H   H30       1.0  0.7109619749377813  0.9263239046709588  0.3191745184985635  1.0000
  H   H31       1.0  0.8145342810198315  0.7792357637391161  0.3680034515579038  1.0000
  H   H32       1.0  0.7416426336367152  0.6243204123856003  0.3066124612168224  1.0000
  H   H33       1.0  0.26872531324108456  0.47678148941034937  0.022779679469259403  1.0000
  H   H34       1.0  0.32183968407301927  0.048705523566098904  0.4849287640576989  1.0000
  H   H35       1.0  0.0971933090048651  0.558785800777656  0.0892853796287838  1.0000
  H   H36       1.0  0.060779767853254896  0.7280483797880708  0.055288004962101  1.0000
  H   H37       1.0  0.19645636631538113  0.8135983444482023  0.9523103727549369  1.0000
  H   H38       1.0  0.3665046788202204  0.7303026544949279  0.883994142445765  1.0000
  H   H39       1.0  0.782406525365971  0.5146082247632648  0.023034829454537897  1.0000
  H   H40       1.0  0.9438991821052343  0.4266093767727667  0.10605899903895732  1.0000
  H   H41       1.0  0.9609694822985522  0.2533038496253893  0.08301370993936533  1.0000
  H   H42       1.0  0.8181714628519076  0.1699180138126337  0.9731374168344686  1.0000
  H   H43       1.0  0.6562901953649316  0.2583562661060483  0.8901309199467988  1.0000
  H   H44       1.0  0.6561649026347496  0.7471825948136723  0.579558245042861  1.0000
  H   H45       1.0  0.6733834954818293  0.26760012787048026  0.5327164315973079  1.0000
  H   H46       1.0  0.6817197265268149  0.9214887023803155  0.5996251519739887  1.0000
  H   H47       1.0  0.7118228957042306  0.09599733374761849  0.5455907532209565  1.0000
  H   H48       1.0  0.0974150881090026  0.6003644777314037  0.4071659970933439  1.0000
  C   C1        1.0  0.5116961934392635  0.5037032414662121  0.3306504464485229  1.0000
  C   C2        1.0  0.6059591613646091  0.44405433362925345  0.9045317501752947  1.0000
  C   C3        1.0  0.4259381849016678  0.5484362656688049  0.812032681688656  1.0000
  C   C4        1.0  0.5959630263399021  0.4415864272237755  0.8124626573859574  1.0000
  C   C5        1.0  0.5081321492812451  0.4948881298975749  0.7663730544235179  1.0000
  C   C6        1.0  0.5204637226794305  0.4967453749280111  0.9508139442688732  1.0000
  C   C7        1.0  0.4312570099942761  0.904867017691096  0.4577499270890897  1.0000
  C   C8        1.0  0.40357741613865256  0.09418896594728207  0.4953007707935555  1.0000
  C   C9        1.0  0.25218824396880996  0.49951680470666565  0.5061864585351898  1.0000
  C   C10       1.0  0.41486451404819047  0.8069120664941279  0.4558814945395682  1.0000
  C   C11       1.0  0.39019396360691866  0.19026259930807754  0.4791930165969447  1.0000
  C   C12       1.0  0.9171280507430097  0.4021835439160597  0.5317064057074887  1.0000
  C   C13       1.0  0.5917195441805774  0.7948906017518098  0.5468478856431247  1.0000
  C   C14       1.0  0.5980559370901021  0.21559736398948806  0.5210528225322122  1.0000
  C   C15       1.0  0.6067372186311246  0.8926109162597056  0.5563708328650563  1.0000
  C   C16       1.0  0.6183938290991122  0.11931368797684168  0.530174313789793  1.0000
  C   C17       1.0  0.5227031342730869  0.9508985105510774  0.5113823126735895  1.0000
  C   C18       1.0  0.5182638343564463  0.05524128454354841  0.5154313673219164  1.0000
  C   C19       1.0  0.501384069439503  0.49505140394322206  0.6679307912319957  1.0000
  C   C20       1.0  0.7276603925532328  0.5067458122470896  0.5103089443578739  1.0000
  C   C21       1.0  0.05536899968554109  0.531737292397203  0.42345866141794625  1.0000
  C   C22       1.0  0.07195492965875869  0.5732880930609028  0.579015084978188  1.0000
  C   C23       1.0  0.5261545951702971  0.4150108228327696  0.0962229102661567  1.0000
  C   C24       1.0  0.9145317976283067  0.534328686351394  0.4244976217416081  1.0000
  C   C25       1.0  0.9307814462205926  0.5682952152432108  0.5856919732474068  1.0000
  C   C26       1.0  0.05790411140574749  0.4025763418566797  0.5387381773098242  1.0000
  C   C27       1.0  0.11143888016469819  0.4992633287921251  0.5126068060187805  1.0000
  C   C28       1.0  0.8691974746121647  0.501914620076711  0.5146066038337764  1.0000
  C   C29       1.0  0.3007990300574974  0.7724353657777102  0.4063764008285489  1.0000
  C   C30       1.0  0.3008920914703523  0.7138651824536879  0.3321561268561908  1.0000
  C   C31       1.0  0.1926255502822301  0.6987880378934931  0.2799175106665928  1.0000
  C   C32       1.0  0.08292492110363268  0.7406261949554107  0.30175549295454823  1.0000
  C   C33       1.0  0.0813583504322324  0.7967331635908154  0.3774199044471374  1.0000
  C   C34       1.0  0.5466128325350539  0.583826405849585  0.09418751930640212  1.0000
  C   C35       1.0  0.1896710532480981  0.8128940089117548  0.4290381180672824  1.0000
  C   C36       1.0  0.27143418057968205  0.2161003221629301  0.4348329984546453  1.0000
  C   C37       1.0  0.16065431714893924  0.17044974754166015  0.4583766816394714  1.0000
  C   C38       1.0  0.0525403300421132  0.1792377426053946  0.4061973550833073  1.0000
  C   C39       1.0  0.05296938400419289  0.2334768448991937  0.3295715056903461  1.0000
  C   C40       1.0  0.1618159640895485  0.2803270864978201  0.3070059860351932  1.0000
  C   C41       1.0  0.2703542042505376  0.2721146726422318  0.35905343995077743  1.0000
  C   C42       1.0  0.552581117737006  0.3205418282576247  0.22859520644518483  1.0000
  C   C43       1.0  0.6557755335697094  0.3052074926927589  0.285693525177571  1.0000
  C   C44       1.0  0.6829969394740445  0.2145322480867122  0.3141173304497897  1.0000
  C   C45       1.0  0.5350103806508103  0.41480797476254594  0.1881179844645402  1.0000
  C   C46       1.0  0.6071548459471999  0.1372608742914636  0.2868189326697603  1.0000
  C   C47       1.0  0.5039251460413824  0.15162233676919357  0.2306375029485324  1.0000
  C   C48       1.0  0.4775084205693929  0.2424021952407074  0.20127377088508075  1.0000
  C   C49       1.0  0.5938139229273106  0.6807421369298438  0.2254648973034463  1.0000
  C   C50       1.0  0.53652735375357  0.7638650348016184  0.197842127985723  1.0000
  C   C51       1.0  0.5782509646846563  0.8518059430063686  0.23141119542582092  1.0000
  C   C52       1.0  0.6780901728793723  0.8579415257384041  0.29280010166216647  1.0000
  C   C53       1.0  0.7368309856265043  0.7756085755862328  0.31974427425542024  1.0000
  C   C54       1.0  0.695798675934661  0.6883597557282001  0.2858501366544317  1.0000
  C   C55       1.0  0.3300841896123431  0.5979128083860272  0.9488426002381587  1.0000
  C   C56       1.0  0.5564188926962714  0.5872827114138561  0.18624377118554492  1.0000
  C   C57       1.0  0.2534995256115806  0.5508137203231697  0.007573656715337101  1.0000
  C   C58       1.0  0.15711315614121452  0.5971511023453857  0.045164910329234004  1.0000
  C   C59       1.0  0.1361256630220566  0.691878439540204  0.025778542117535604  1.0000
  C   C60       1.0  0.21207860520521396  0.7396512966288001  0.967925483194044  1.0000
  C   C61       1.0  0.30765388396353194  0.692925965053085  0.9294884459981745  1.0000
  C   C62       1.0  0.7069863087586937  0.3924935461946219  0.9514516406018316  1.0000
  C   C63       1.0  0.790170432192582  0.4389878558732008  0.011997141099314495  1.0000
  C   C64       1.0  0.8810258495208244  0.3894254899716572  0.0586330890892555  1.0000
  C   C65       1.0  0.8910692410006864  0.29232132855452864  0.045513225508507615  1.0000
  C   C66       1.0  0.8109084559441443  0.2456970222570476  0.9839748237342293  1.0000
  C   C67       1.0  0.5404961721867352  0.5022127712660449  0.2347231469682498  1.0000
  C   C68       1.0  0.7200728811320403  0.2954135206905093  0.9370685531321927  1.0000
  C   C69       1.0  0.5278057187387405  0.4987662143553493  0.04821496076741031  1.0000
  C   C70       1.0  0.42832293238626556  0.5477327422423385  0.9040781991052995  1.0000
  N   N1        1.0  0.49699361537953723  0.7517895753541595  0.4996156407244996  1.0000
  N   N2        1.0  0.4881365311837129  0.25114334540581507  0.4942216072538841  1.0000
  O   O1        1.0  0.4674296934911268  0.4279980165800977  0.3629680984140577  1.0000
  O   O2        1.0  0.5264434012252721  0.5813732417299349  0.3729554245083193  1.0000
  O   O3        1.0  0.3043287753617676  0.4215485770551198  0.5185884934842235  1.0000
  O   O4        1.0  0.3030514107129179  0.5779464306338938  0.486612567623702  1.0000
  O   O5        1.0  0.5243184883204463  0.4181848272954198  0.6294197925750495  1.0000
  O   O6        1.0  0.4728882789130182  0.5729022970642671  0.6314772953407797  1.0000
  O   O7        1.0  0.6681678987490188  0.43293164394142997  0.48377400219688144  1.0000
  O   O8        1.0  0.6827056349526474  0.5858326001976762  0.5285198420436359  1.0000
  F   F1        1.0  0.0888789556390392  0.46907486561174483  0.35610659162094294  1.0000
  F   F2        1.0  0.1291655972922356  0.5544598531176915  0.6629220008639082  1.0000
  F   F3        1.0  0.8754936830179004  0.3391152866078641  0.4650874577439978  1.0000
  F   F4        1.0  0.8681797293555178  0.36545863056825567  0.6084428798826168  1.0000
