data_image0
_chemical_formula_structural       Rb4H44C72N16O12
_chemical_formula_sum              "Rb4 H44 C72 N16 O12"
_cell_length_a       7.869929731
_cell_length_b       13.429028918777774
_cell_length_c       18.793
_cell_angle_alpha    107.71769674619334
_cell_angle_beta     90.0
_cell_angle_gamma    107.03891610676393

_space_group_name_H-M_alt    "P 1"
_space_group_IT_number       1

loop_
  _space_group_symop_operation_xyz
  'x, y, z'

loop_
  _atom_site_type_symbol
  _atom_site_label
  _atom_site_symmetry_multiplicity
  _atom_site_fract_x
  _atom_site_fract_y
  _atom_site_fract_z
  _atom_site_occupancy
  Rb  Rb1       1.0  0.6585270628229978  0.5784364947802914  0.9127273897513959  1.0000
  Rb  Rb2       1.0  0.9202382992917536  0.5786624269595535  0.4126674389265618  1.0000
  Rb  Rb3       1.0  0.2010431690238264  0.6587426501493354  0.9295675324580087  1.0000
  Rb  Rb4       1.0  0.4579644026340048  0.6586440615620218  0.4295492855676528  1.0000
  H   H1        1.0  0.7103004680415878  0.969170178171417  0.9630832792824221  1.0000
  H   H2        1.0  0.2589254468186013  0.9697674606962323  0.4631780478754095  1.0000
  H   H3        1.0  0.5314794013090492  0.9890916453815493  0.8622715648474538  1.0000
  H   H4        1.0  0.4576332666951402  0.9890144176548219  0.36225051361464716  1.0000
  H   H5        1.0  0.601353752853555  0.9294209029091005  0.7297752319707839  1.0000
  H   H6        1.0  0.32788942197921495  0.9289443914037462  0.22974663532573908  1.0000
  H   H7        1.0  0.8527049566050164  0.8533384469349412  0.6986537876710841  1.0000
  H   H8        1.0  0.0004974241101151322  0.853093618609776  0.19873410644424888  1.0000
  H   H9        1.0  0.08196265012665553  0.8857609470166281  0.07610097129178682  1.0000
  H   H10       1.0  0.8038398792612328  0.8864173826938355  0.5762538332326271  1.0000
  H   H11       1.0  0.15155456885350557  0.13649179127990857  0.12912134211880041  1.0000
  H   H12       1.0  0.9851043377886555  0.137134260240579  0.6292642493181688  1.0000
  H   H13       1.0  0.1614433811460145  0.05930842941405959  0.1899453453678461  1.0000
  H   H14       1.0  0.8980084300656445  0.05994761208848589  0.6900827488977512  1.0000
  H   H15       1.0  0.9550643500655269  0.0381981481552245  0.1401962941437631  1.0000
  H   H16       1.0  0.08321039043571689  0.038792965965356495  0.640309150703267  1.0000
  H   H17       1.0  0.36229594353745387  0.926597983025651  0.014604861862871047  1.0000
  H   H18       1.0  0.5642660989583702  0.9270810671034935  0.5147923932666387  1.0000
  H   H19       1.0  0.4103672716822118  0.9928314391270375  0.11315028904662229  1.0000
  H   H20       1.0  0.5824692486239513  0.9933728547857041  0.6133302852336158  1.0000
  H   H21       1.0  0.3961536995260105  0.07023697431793609  0.053376569540894495  1.0000
  H   H22       1.0  0.6737192488868474  0.0707709958325609  0.5535038749102554  1.0000
  H   H23       1.0  0.8488845138500665  0.2761688155016556  0.8152983684653066  1.0000
  H   H24       1.0  0.4275236229537285  0.2761737449310218  0.3153233855296662  1.0000
  H   H25       1.0  0.6443166217089883  0.2575626843606145  0.708137196280461  1.0000
  H   H26       1.0  0.6136377659999397  0.2578116205435848  0.2082466709450301  1.0000
  H   H27       1.0  0.7685714483326649  0.31341969164709127  0.599240135381109  1.0000
  H   H28       1.0  0.5451733700338224  0.31356018038401595  0.0993175127120196  1.0000
  H   H29       1.0  0.095959688279315  0.3814408874651249  0.5961081385468106  1.0000
  H   H30       1.0  0.2852964017567459  0.38108679012235297  0.09603379532846647  1.0000
  H   H31       1.0  0.3089153018942525  0.34532788793161007  0.9569899919627858  1.0000
  H   H32       1.0  0.03652382522535899  0.3452334072021017  0.4569550786581047  1.0000
  H   H33       1.0  0.4784936724692059  0.1892054657741511  0.8471749418206329  1.0000
  H   H34       1.0  0.7105863576078804  0.1893434897963928  0.3471820763566029  1.0000
  H   H35       1.0  0.5678428312982717  0.2693941364099857  0.9417142204311729  1.0000
  H   H36       1.0  0.7015767123131482  0.2696701844544691  0.44170667286927306  1.0000
  H   H37       1.0  0.5555641716291859  0.33478383851826976  0.873480087635464  1.0000
  H   H38       1.0  0.779642397295973  0.3349210409689505  0.3734439423536812  1.0000
  H   H39       1.0  0.19362058629998558  0.09238407888670958  0.8925257862648764  1.0000
  H   H40       1.0  0.8983246103968624  0.09229288444343807  0.392640047145278  1.0000
  H   H41       1.0  0.06461514761787869  0.16959044475625967  0.9489807705762132  1.0000
  H   H42       1.0  0.1046219590492825  0.16942037944313879  0.44906138429818293  1.0000
  H   H43       1.0  0.2703348273858168  0.1700858524075173  0.9876693589813287  1.0000
  H   H44       1.0  0.8994826878103835  0.17017211742141564  0.48775516484436576  1.0000
  C   C1        1.0  0.08637288354073985  0.8340068681055823  0.7950468764279891  1.0000
  C   C2        1.0  0.7475226032018722  0.8341826844196232  0.2951000094896941  1.0000
  C   C3        1.0  0.9246160628396538  0.8673068066143657  0.813020635524275  1.0000
  C   C4        1.0  0.9425973202961657  0.8674875523577795  0.3131269876404446  1.0000
  C   C5        1.0  0.8809261829894978  0.8985174886436338  0.8879561136028612  1.0000
  C   C6        1.0  0.017524618229792625  0.898896233133236  0.3880794499810349  1.0000
  C   C7        1.0  0.7407888123977315  0.9429086432253654  0.9050698611880109  1.0000
  C   C8        1.0  0.20209600752345117  0.9432454875653633  0.4051612048896871  1.0000
  C   C9        1.0  0.640915968857577  0.9545675652469328  0.8482698779866168  1.0000
  C   C10       1.0  0.3135915340248516  0.9545700299616157  0.34830446920916097  1.0000
  C   C11       1.0  0.6797657856816315  0.9208839528191816  0.7739869608929126  1.0000
  C   C12       1.0  0.24099698321493426  0.9206629500692856  0.2740043504284628  1.0000
  C   C13       1.0  0.8205927655818783  0.8775518039795215  0.7565139287787801  1.0000
  C   C14       1.0  0.05682639800727424  0.8774507506775249  0.25658507299973365  1.0000
  C   C15       1.0  0.9719221874759896  0.878599307719746  0.9498822552426559  1.0000
  C   C16       1.0  0.9066312770166575  0.87915715480964  0.45004241171814396  1.0000
  C   C17       1.0  0.1408101349979276  0.9686977745238678  0.07222122273610412  1.0000
  C   C18       1.0  0.8278926025378012  0.9693459944854651  0.5723616557858264  1.0000
  C   C19       1.0  0.0991729400999262  0.055470047081264795  0.13653999349825338  1.0000
  C   C20       1.0  0.9563960679608812  0.0561043003263251  0.6366656827893138  1.0000
  C   C21       1.0  0.33844083914677736  0.9905630800472238  0.06236061335596335  1.0000
  C   C22       1.0  0.6520638408739002  0.9911274997096056  0.5625216670229988  1.0000
  C   C23       1.0  0.09877970481073807  0.7746803641171736  0.7125615498154261  1.0000
  C   C24       1.0  0.6759100427488036  0.774910404154248  0.21257113488562848  1.0000
  C   C25       1.0  0.013435363195505163  0.6606256921670592  0.688979316301932  1.0000
  C   C26       1.0  0.6470582526784057  0.6608360144866623  0.18897131063291542  1.0000
  C   C27       1.0  0.19132549347737893  0.8389165797538709  0.6699404595578002  1.0000
  C   C28       1.0  0.6477346198456289  0.8391803042249393  0.16994779177952074  1.0000
  C   C29       1.0  0.2839964293460895  0.9520461621263507  0.7038786407865274  1.0000
  C   C30       1.0  0.6678007787221957  0.9522375883000576  0.2039761411491767  1.0000
  C   C31       1.0  0.20317971787871864  0.7976005675248101  0.5920624674810709  1.0000
  C   C32       1.0  0.5948713319603129  0.797937411864801  0.09205004914368696  1.0000
  C   C33       1.0  0.9408363303400337  0.6108162731407987  0.7430370968657128  1.0000
  C   C34       1.0  0.6698256112839402  0.6110233091741648  0.2430358261267074  1.0000
  C   C35       1.0  0.0011922438428655028  0.5893313552501667  0.6150625854979737  1.0000
  C   C36       1.0  0.5879326378308747  0.5895030637064024  0.11507598099380799  1.0000
  C   C37       1.0  0.3539533347837249  0.3990907093092062  0.6988315805150335  1.0000
  C   C38       1.0  0.044903349113774  0.3985591525092644  0.1986798018229052  1.0000
  C   C39       1.0  0.1591711337689148  0.3667774782451261  0.7036047216326153  1.0000
  C   C40       1.0  0.20742420779389192  0.366355190462798  0.2035128888143021  1.0000
  C   C41       1.0  0.08782293894142158  0.3375968995429872  0.766171859787704  1.0000
  C   C42       1.0  0.24968964681644218  0.33732742407099886  0.266124432673962  1.0000
  C   C43       1.0  0.9032060377275427  0.2984145086577357  0.7669502677737796  1.0000
  C   C44       1.0  0.3953318471936456  0.2983397456456913  0.26695476184215744  1.0000
  C   C45       1.0  0.788156326996159  0.2887897978211029  0.7068308370952607  1.0000
  C   C46       1.0  0.500861481430931  0.28887359812032537  0.2068847123008624  1.0000
  C   C47       1.0  0.8578871670843427  0.31994789927047407  0.6458409766240933  1.0000
  C   C48       1.0  0.4622389006832393  0.31992653840988783  0.14585708379206613  1.0000
  C   C49       1.0  0.04195810954728068  0.35869403565685326  0.6442807406376403  1.0000
  C   C50       1.0  0.316664748541278  0.358432775900468  0.14422977902439982  1.0000
  C   C51       1.0  0.20438527610700413  0.3556649013115986  0.8348565121044159  1.0000
  C   C52       1.0  0.1511079593099041  0.35543650441765345  0.334793540945256  1.0000
  C   C53       1.0  0.30196154169635037  0.2672983073579828  0.913822703585204  1.0000
  C   C54       1.0  0.9652805241216312  0.2672128639156384  0.4138163612253365  1.0000
  C   C55       1.0  0.4872868673395557  0.26522137445187605  0.892597883123365  1.0000
  C   C56       1.0  0.7779882775549255  0.2653331081841657  0.3925955756499349  1.0000
  C   C57       1.0  0.20072856294764554  0.16926592398968407  0.9368168660394572  1.0000
  C   C58       1.0  0.9682455306055998  0.16920101983636468  0.4368793759318734  1.0000
  C   C59       1.0  0.42655703748840773  0.45778871105347446  0.6419257202206977  1.0000
  C   C60       1.0  0.03133064749046347  0.45722100510484853  0.1417431994935683  1.0000
  C   C61       1.0  0.4492727365496307  0.3928180104412817  0.5705846060464879  1.0000
  C   C62       1.0  0.9435910455773922  0.392297134071633  0.07041014066230389  1.0000
  C   C63       1.0  0.4656622757490254  0.5727306802894317  0.6693501409471878  1.0000
  C   C64       1.0  0.10777714621958269  0.5721103937609087  0.16916416747884713  1.0000
  C   C65       1.0  0.4493819325687056  0.6230420795394309  0.7457883696856982  1.0000
  C   C66       1.0  0.17406619878952506  0.6224053615796875  0.24563979565854774  1.0000
  C   C67       1.0  0.5296872014595309  0.6446042251567974  0.6272027584449161  1.0000
  C   C68       1.0  0.11617881152522362  0.6440751330715386  0.12704938728991522  1.0000
  C   C69       1.0  0.5098131636781389  0.4353540564383707  0.511833324372553  1.0000
  C   C70       1.0  0.9258507890644905  0.43491615879637635  0.011676903958509394  1.0000
  C   C71       1.0  0.4188112717576615  0.27837309199970406  0.5544708519047674  1.0000
  C   C72       1.0  0.8591305398647648  0.2778957589227886  0.054306919889363314  1.0000
  N   N1        1.0  0.8872860817977112  0.5723240023667556  0.7899593028974863  1.0000
  N   N2        1.0  0.6849115189049613  0.5725441835450908  0.28996780823688073  1.0000
  N   N3        1.0  0.9868725307779442  0.527520418861421  0.5543181502799541  1.0000
  N   N4        1.0  0.5404353476741193  0.5275688915835204  0.05436434297352118  1.0000
  N   N5        1.0  0.3672461782538576  0.0449128525229412  0.7298936169822667  1.0000
  N   N6        1.0  0.6769821042137281  0.04502212154054769  0.23010202238888408  1.0000
  N   N7        1.0  0.2129130500857812  0.7664087816414451  0.5272604021171645  1.0000
  N   N8        1.0  0.5542337665531533  0.7667899908457299  0.027223044239242676  1.0000
  N   N9        1.0  0.5580652821749011  0.46836069389988916  0.46196487261448027  1.0000
  N   N10       1.0  0.9107603705519339  0.46806985756731473  0.9618675706541423  1.0000
  N   N11       1.0  0.40022046384362403  0.1843910564269322  0.5407328823086672  1.0000
  N   N12       1.0  0.7833100726371498  0.18396876864460404  0.04056282887628979  1.0000
  N   N13       1.0  0.4395639384142527  0.6621636741291752  0.8099097401534934  1.0000
  N   N14       1.0  0.2227124504889986  0.6616945567678627  0.3097832463411904  1.0000
  N   N15       1.0  0.5811080126670589  0.7070740619374263  0.5940916520942424  1.0000
  N   N16       1.0  0.12757820394256214  0.7067010684487514  0.0940451264065203  1.0000
  O   O1        1.0  0.20867409299947323  0.851138278294698  0.8423859383015112  1.0000
  O   O2        1.0  0.6421541291843055  0.8512138628783033  0.3423635310534933  1.0000
  O   O3        1.0  0.9613624792538004  0.7858915296380217  0.951615879378238  1.0000
  O   O4        1.0  0.8244020040529492  0.7864584140150865  0.4518189738501092  1.0000
  O   O5        1.0  0.05158926159581506  0.9721763085129635  0.004023816376147171  1.0000
  O   O6        1.0  0.9205497869133836  0.9727629106074929  0.504140739548177  1.0000
  O   O7        1.0  0.45991202462658975  0.3835728656658118  0.7392280774150137  1.0000
  O   O8        1.0  0.9233504805466525  0.3831251091650856  0.23906844881807393  1.0000
  O   O9        1.0  0.2874262602446152  0.44810649020757143  0.8770606378071689  1.0000
  O   O10       1.0  0.16038418672595606  0.4478518030236741  0.3769302243193309  1.0000
  O   O11       1.0  0.19532905056483676  0.2615752398643422  0.8467706551259724  1.0000
  O   O12       1.0  0.06614025894700859  0.2613575234006831  0.346756832532563  1.0000
