data_image0
_chemical_formula_structural       Sr4H36C36S4N4O20
_chemical_formula_sum              "Sr4 H36 C36 S4 N4 O20"
_cell_length_a       5.989537183897013
_cell_length_b       11.378611783656297
_cell_length_c       17.110275953518798
_cell_angle_alpha    89.99923208483466
_cell_angle_beta     90.00049508748094
_cell_angle_gamma    91.94772683557748

_space_group_name_H-M_alt    "P 1"
_space_group_IT_number       1

loop_
  _space_group_symop_operation_xyz
  'x, y, z'

loop_
  _atom_site_type_symbol
  _atom_site_label
  _atom_site_symmetry_multiplicity
  _atom_site_fract_x
  _atom_site_fract_y
  _atom_site_fract_z
  _atom_site_occupancy
  Sr  Sr1       1.0  0.7823886393906109  0.09851935397814057  0.5006443449548142  1.0000
  Sr  Sr2       1.0  0.7176056923061083  0.4014820557346893  0.0006421829658265  1.0000
  Sr  Sr3       1.0  0.21759879399260032  0.9014939978251773  0.49935409929269536  1.0000
  Sr  Sr4       1.0  0.2824092925113462  0.5985164155829564  0.9993568458347255  1.0000
  H   H1        1.0  0.33913565279183183  0.7541025990797721  0.6786150598036116  1.0000
  H   H2        1.0  0.1608669220275445  0.7458886043856122  0.1786211347810465  1.0000
  H   H3        1.0  0.660854186468825  0.2458940532470137  0.32138747563132597  1.0000
  H   H4        1.0  0.8391325430246752  0.2541010372798951  0.8213860762529563  1.0000
  H   H5        1.0  0.3897508247008047  0.642167938529603  0.813470273671804  1.0000
  H   H6        1.0  0.11024834056577502  0.8578232452328011  0.3134746043139103  1.0000
  H   H7        1.0  0.6102593964634977  0.3578349173792291  0.1865345995428811  1.0000
  H   H8        1.0  0.8897510753317732  0.14216551709773737  0.6865320222798559  1.0000
  H   H9        1.0  0.20896012827694216  0.32469640111143855  0.48582211910414236  1.0000
  H   H10       1.0  0.29101615490354493  0.1752954136384588  0.9858277091438623  1.0000
  H   H11       1.0  0.7910380599692317  0.6753002714043673  0.5141704807935951  1.0000
  H   H12       1.0  0.7089736843638832  0.824701238682607  0.0141754107351844  1.0000
  H   H13       1.0  0.04491102933194209  0.4966285168268312  0.2887792713755459  1.0000
  H   H14       1.0  0.45507473828747896  0.0033795007458649992  0.7887798934887158  1.0000
  H   H15       1.0  0.9550822969449798  0.5033707816159562  0.7112174196117422  1.0000
  H   H16       1.0  0.5449208475978935  0.9966303537921206  0.21121796634284354  1.0000
  H   H17       1.0  0.8179496717184237  0.43903872033640573  0.3471976538306762  1.0000
  H   H18       1.0  0.6820351020923424  0.060969926004659676  0.8471969239992845  1.0000
  H   H19       1.0  0.18205033384568742  0.5609605941740197  0.6527996216108605  1.0000
  H   H20       1.0  0.31795881397968634  0.9390399245092593  0.15280152027385444  1.0000
  H   H21       1.0  0.9325746404468445  0.5843122354597624  0.364396782521041  1.0000
  H   H22       1.0  0.5674209025236295  0.9156955439668761  0.8643954391555155  1.0000
  H   H23       1.0  0.06742703491706692  0.41568708308618324  0.6355987395906979  1.0000
  H   H24       1.0  0.4325794961966237  0.0843108052919916  0.13559949847859804  1.0000
  H   H25       1.0  0.4230552430348951  0.48955288596001617  0.3415955109946296  1.0000
  H   H26       1.0  0.0769432395744687  0.010450607776853398  0.841594913449832  1.0000
  H   H27       1.0  0.5769599383538733  0.5104491027375672  0.6584017644580982  1.0000
  H   H28       1.0  0.9230565694386357  0.9895451893364607  0.1584058686718564  1.0000
  H   H29       1.0  0.3583206759281977  0.5870498160441143  0.4194785808229184  1.0000
  H   H30       1.0  0.1416669473849126  0.9129577211948852  0.9194751512809985  1.0000
  H   H31       1.0  0.6416761866076044  0.4129530077752221  0.5805204479303825  1.0000
  H   H32       1.0  0.8583413581521243  0.0870407340493884  0.0805238775094139  1.0000
  H   H33       1.0  0.46111625028320447  0.4434852118923727  0.44017162626043665  1.0000
  H   H34       1.0  0.038882746483764705  0.05651458819555438  0.9401658231392673  1.0000
  H   H35       1.0  0.5388871932439799  0.5565158693132302  0.5598279869548648  1.0000
  H   H36       1.0  0.9611203038737487  0.9434794582730673  0.059834958995232106  1.0000
  C   C1        1.0  0.7150749840064776  0.8954363622228311  0.6218555413268234  1.0000
  C   C2        1.0  0.7849394501162053  0.6045665558221316  0.12185742026467489  1.0000
  C   C3        1.0  0.284907095921703  0.10457082210626818  0.3781464096048524  1.0000
  C   C4        1.0  0.21507735199212874  0.39543455751303475  0.8781439463032328  1.0000
  C   C5        1.0  0.6846152051195133  0.8163563474551195  0.68979864648432  1.0000
  C   C6        1.0  0.8153937295994853  0.6836381888817086  0.1897981551391297  1.0000
  C   C7        1.0  0.3153862737407493  0.1836394536536402  0.31020447341634144  1.0000
  C   C8        1.0  0.18461757157628972  0.31635411898578514  0.8102037959040089  1.0000
  C   C9        1.0  0.492275647709306  0.7545675014439225  0.7128391700153144  1.0000
  C   C10       1.0  0.007721187659150509  0.7454256535611634  0.2128447809303182  1.0000
  C   C11       1.0  0.5077207725495114  0.2454274082634028  0.2871645343257256  1.0000
  C   C12       1.0  0.9922784248435405  0.25456662612069175  0.7871630145361834  1.0000
  C   C13       1.0  0.5196696290085044  0.6950935369282402  0.7844110890666016  1.0000
  C   C14       1.0  0.9803212618810448  0.8048955804352643  0.2844141042460322  1.0000
  C   C15       1.0  0.48033690845321786  0.304903155581961  0.21559144639368097  1.0000
  C   C16       1.0  0.0196700997830845  0.1950984378648925  0.7155907689794958  1.0000
  C   C17       1.0  0.7321611469704905  0.7130474757697911  0.8155031755031033  1.0000
  C   C18       1.0  0.7678240793754724  0.7869462925258758  0.315503948855941  1.0000
  C   C19       1.0  0.2678403318762435  0.2869483253504156  0.1844987755093328  1.0000
  C   C20       1.0  0.23216266599801832  0.2130547484562299  0.6844997554427792  1.0000
  C   C21       1.0  0.8200457555647275  0.6745636331530774  0.8922696320355143  1.0000
  C   C22       1.0  0.6799429670625373  0.8254295147810211  0.3922651155690602  1.0000
  C   C23       1.0  0.17996726451139014  0.3254295581306933  0.10772647456519019  1.0000
  C   C24       1.0  0.3200406352014511  0.17457503557869097  0.607733328712115  1.0000
  C   C25       1.0  0.06940058114064841  0.3562239295273174  0.45005787578347883  1.0000
  C   C26       1.0  0.43059830058696485  0.14376952143056343  0.9500606689892309  1.0000
  C   C27       1.0  0.9306380268572098  0.6437789947849167  0.5499376463685337  1.0000
  C   C28       1.0  0.5693968430078867  0.8562324190068435  0.0499406975418495  1.0000
  C   C29       1.0  0.9712203981768185  0.49400638829693094  0.3475781144611219  1.0000
  C   C30       1.0  0.528772438615576  0.005996994672976499  0.8475739029712628  1.0000
  C   C31       1.0  0.028781178918365007  0.5059911715447355  0.6524197454348055  1.0000
  C   C32       1.0  0.47122958077687827  0.9940084792635342  0.1524210346692527  1.0000
  C   C33       1.0  0.35566528556229565  0.4942882779954586  0.40119056815791504  1.0000
  C   C34       1.0  0.14430427431289417  0.0057095793365534  0.9011867124937893  1.0000
  C   C35       1.0  0.6443298088440698  0.505712783135607  0.598807291712383  1.0000
  C   C36       1.0  0.8556855649071765  0.994287073024573  0.09881231627648648  1.0000
  S   S1        1.0  0.8991645632483768  0.799757063337388  0.7552865959619126  1.0000
  S   S2        1.0  0.6008275688108924  0.7002370253248528  0.2552835462289593  1.0000
  S   S3        1.0  0.10083391991226878  0.20024488519967323  0.24470834168902658  1.0000
  S   S4        1.0  0.3991621229993072  0.2997569889855781  0.7447184047734793  1.0000
  N   N1        1.0  0.12873383107884  0.4447598085234218  0.4021658808341044  1.0000
  N   N2        1.0  0.3712490116456948  0.055236303166175595  0.9021622742846913  1.0000
  N   N3        1.0  0.8712674019877937  0.5552315959276726  0.5978325635330464  1.0000
  N   N4        1.0  0.6287461319220996  0.9447656372941324  0.0978367544699523  1.0000
  O   O1        1.0  0.5414206213037288  0.9262470530660775  0.5852204273790491  1.0000
  O   O2        1.0  0.958594634421715  0.5737565866432917  0.085221945036821  1.0000
  O   O3        1.0  0.45855482850545576  0.07376099451889928  0.4147826924268401  1.0000
  O   O4        1.0  0.04142727542920711  0.4262462974397323  0.9147782526427264  1.0000
  O   O5        1.0  0.9120869542680055  0.932744775058914  0.6046578226183073  1.0000
  O   O6        1.0  0.5879218264389721  0.5672540711436368  0.1046565120047021  1.0000
  O   O7        1.0  0.0878937998686098  0.06726856064241099  0.3953435438396156  1.0000
  O   O8        1.0  0.4120913902490456  0.432742637485731  0.8953413479128329  1.0000
  O   O9        1.0  0.6818212507559168  0.6256763570005643  0.9397738419215856  1.0000
  O   O10       1.0  0.8181674916574834  0.874326408475831  0.4397663868176522  1.0000
  O   O11       1.0  0.31819702458091825  0.37432124299017017  0.06022752466434159  1.0000
  O   O12       1.0  0.18181483396960374  0.12568517259107637  0.5602320574299995  1.0000
  O   O13       1.0  0.026634434997269814  0.6960476670447662  0.9055772839354077  1.0000
  O   O14       1.0  0.47334746382225024  0.803953095719393  0.4055744418808231  1.0000
  O   O15       1.0  0.9733788308183549  0.30394992094246487  0.0944188226459346  1.0000
  O   O16       1.0  0.5266345669647946  0.19605320926329028  0.5944280934988342  1.0000
  O   O17       1.0  0.8767793613169986  0.3101445479538468  0.45520651621212954  1.0000
  O   O18       1.0  0.6232224502525837  0.18985322526067697  0.9552167224900643  1.0000
  O   O19       1.0  0.12322894413208021  0.6898539073648421  0.5447849148048505  1.0000
  O   O20       1.0  0.3767761312918125  0.8101504818833473  0.0447858129265626  1.0000
