data_image0
_chemical_formula_structural       Cu12H42C96N24
_chemical_formula_sum              "Cu12 H42 C96 N24"
_cell_length_a       27.417344885017087
_cell_length_b       27.449853664375294
_cell_length_c       29.33558806850014
_cell_angle_alpha    89.90281076003704
_cell_angle_beta     89.98559225492484
_cell_angle_gamma    89.90355460688141

_space_group_name_H-M_alt    "P 1"
_space_group_IT_number       1

loop_
  _space_group_symop_operation_xyz
  'x, y, z'

loop_
  _atom_site_type_symbol
  _atom_site_label
  _atom_site_symmetry_multiplicity
  _atom_site_fract_x
  _atom_site_fract_y
  _atom_site_fract_z
  _atom_site_occupancy
  Cu  Cu1       1.0  0.7818987187628323  0.7820336730693285  0.8542208289821077  1.0000
  Cu  Cu2       1.0  0.8654526450718976  0.7831856195401912  0.7794526063751164  1.0000
  Cu  Cu3       1.0  0.783182563070845  0.8656070924308138  0.779519637588372  1.0000
  Cu  Cu4       1.0  0.7816135981701322  0.21805605719532656  0.1456742806036502  1.0000
  Cu  Cu5       1.0  0.8651699244102244  0.21692024662387868  0.2205249327121024  1.0000
  Cu  Cu6       1.0  0.782841992928411  0.1349265079394968  0.220707522551379  1.0000
  Cu  Cu7       1.0  0.21772566691824835  0.7822189575378572  0.1454758784809016  1.0000
  Cu  Cu8       1.0  0.13412729381651187  0.7833409806616841  0.2202738696730009  1.0000
  Cu  Cu9       1.0  0.21688140867293976  0.8650280103752053  0.2205283376839162  1.0000
  Cu  Cu10      1.0  0.21798229639608016  0.218072070866036  0.8539452070430045  1.0000
  Cu  Cu11      1.0  0.13431048610968327  0.21682789385742035  0.7792153253362031  1.0000
  Cu  Cu12      1.0  0.2170337805507856  0.13491209971341786  0.7792458858743458  1.0000
  H   H1        1.0  0.8200235172623777  0.6985894685700557  0.9196144962175197  1.0000
  H   H2        1.0  0.9378253096378656  0.7038351097617478  0.8212084003318836  1.0000
  H   H3        1.0  0.7040347005414702  0.9380385973906442  0.8213048586588059  1.0000
  H   H4        1.0  0.698412757200721  0.8200920693927856  0.9195494504162269  1.0000
  H   H5        1.0  0.9309807568225847  0.8192353936452861  0.6969074094960988  1.0000
  H   H6        1.0  0.8194406872513156  0.9312871337438364  0.697187401812819  1.0000
  H   H7        1.0  0.8198053932976348  0.30111555651394173  0.0800544378762638  1.0000
  H   H8        1.0  0.9374225511687442  0.2960320450873297  0.17861925503530077  1.0000
  H   H9        1.0  0.7035928063788573  0.06263238521084699  0.17944663073582492  1.0000
  H   H10       1.0  0.6980177823821448  0.17996878159606675  0.080542767050531  1.0000
  H   H11       1.0  0.930698495250496  0.18074282918512816  0.3031688554919826  1.0000
  H   H12       1.0  0.8188813718824477  0.0693416881548927  0.3031823000531446  1.0000
  H   H13       1.0  0.1796413470536606  0.6990308149050006  0.08016176088428041  1.0000
  H   H14       1.0  0.06189741764127629  0.704117869091206  0.1786385281646332  1.0000
  H   H15       1.0  0.2964499345900861  0.9371835339931709  0.1792364003198941  1.0000
  H   H16       1.0  0.30143398053888854  0.8202304259307309  0.08028079899353463  1.0000
  H   H17       1.0  0.0687758751543726  0.8194222380856219  0.3029524634412937  1.0000
  H   H18       1.0  0.18108077712297893  0.9303305094233278  0.30307127004990525  1.0000
  H   H19       1.0  0.17962928286578256  0.3012317883972954  0.9192250765962768  1.0000
  H   H20       1.0  0.0617840274113703  0.29593050638803936  0.8209343462989693  1.0000
  H   H21       1.0  0.2965406901502163  0.06263454854639149  0.820775175003462  1.0000
  H   H22       1.0  0.3016859507666112  0.1800301255332215  0.9192476007401496  1.0000
  H   H23       1.0  0.0689907333174773  0.18067284663103322  0.6966212877656803  1.0000
  H   H24       1.0  0.18129432643370785  0.0693836450602348  0.6969050670423869  1.0000
  H   H25       1.0  0.0562374546388043  0.05524191108776221  0.5306817771144666  1.0000
  H   H26       1.0  0.9445370742582779  0.9448226261809083  0.5310194770720856  1.0000
  H   H27       1.0  0.0562501273104772  0.944725319023341  0.4692345350424603  1.0000
  H   H28       1.0  0.9443520434465923  0.0553200039645461  0.469312281644747  1.0000
  H   H29       1.0  0.0004954491831413  9.87141494377e-05  0.6581689012783087  1.0000
  H   H30       1.0  0.9998185253337651  0.9998385251340097  0.34195899477173  1.0000
  H   H31       1.0  0.04998159690483559  0.5327548764927172  0.057079791466243514  1.0000
  H   H32       1.0  0.950524179294561  0.5329454030321017  0.9433079571841746  1.0000
  H   H33       1.0  0.950431603929708  0.4668638535732654  0.057006015643231905  1.0000
  H   H34       1.0  0.04993958891746789  0.4669475223335198  0.9432214981701679  1.0000
  H   H35       1.0  6.432011443989992e-05  0.6689873542014126  0.0001233353209428999  1.0000
  H   H36       1.0  0.9994008483482587  0.33077823943933987  0.9994572470577481  1.0000
  H   H37       1.0  0.5329069186688216  0.04939274572021189  0.0573580698136098  1.0000
  H   H38       1.0  0.5333114071890392  0.9507100294350579  0.9432236971263068  1.0000
  H   H39       1.0  0.4671445430157063  0.0494812535242133  0.9430492783514384  1.0000
  H   H40       1.0  0.46704496876348134  0.9506073940044288  0.05733980578784072  1.0000
  H   H41       1.0  0.6694107930233528  8.937460681579999e-05  0.0004763590981014  1.0000
  H   H42       1.0  0.3307848404331182  0.9999458594589683  0.9998726419361788  1.0000
  C   C1        1.0  0.8440625513900173  0.7055546338790464  0.8909734445046951  1.0000
  C   C2        1.0  0.8908888353636114  0.6865959662812885  0.8822431976785836  1.0000
  C   C3        1.0  0.9044080099172545  0.7082503737178312  0.8405676287202724  1.0000
  C   C4        1.0  0.7083347360444066  0.9045802972689643  0.8406235041895513  1.0000
  C   C5        1.0  0.6866744424211503  0.8910453447388774  0.8822819196843383  1.0000
  C   C6        1.0  0.7054557206467392  0.8441631429896786  0.8909349175900234  1.0000
  C   C7        1.0  0.8994085920423344  0.8422040226816704  0.7029416368927672  1.0000
  C   C8        1.0  0.8863424591727735  0.8863886474617857  0.681703773271032  1.0000
  C   C9        1.0  0.8422760959585671  0.8995921211526222  0.7030862605303413  1.0000
  C   C10       1.0  0.8438066366436273  0.2942176267511698  0.10874691742080961  1.0000
  C   C11       1.0  0.890552526432721  0.3131667209021742  0.1174997406266982  1.0000
  C   C12       1.0  0.904041264713058  0.29161258826849956  0.15923801640185792  1.0000
  C   C13       1.0  0.7079335548234766  0.0959352551763075  0.1599167977900819  1.0000
  C   C14       1.0  0.6862456650524252  0.1093034224578773  0.11821106825296823  1.0000
  C   C15       1.0  0.7050627177348471  0.15605006719435718  0.109273565712698  1.0000
  C   C16       1.0  0.8990618314994449  0.15794617259580687  0.2972051911009856  1.0000
  C   C17       1.0  0.8858917865297612  0.1138944736965755  0.3185481791886247  1.0000
  C   C18       1.0  0.8418030246065341  0.1008877721253043  0.2972151075674034  1.0000
  C   C19       1.0  0.1555934333554632  0.7059546536511123  0.10881188906665071  1.0000
  C   C20       1.0  0.10889542086085412  0.6868794990790974  0.11765460838114451  1.0000
  C   C21       1.0  0.09527810182002838  0.7085762641681156  0.1592289361448849  1.0000
  C   C22       1.0  0.2919709859333395  0.903971320020574  0.15971219202764084  1.0000
  C   C23       1.0  0.3135518072377934  0.890687099707968  0.11796627332800111  1.0000
  C   C24       1.0  0.294512895957844  0.8440664998495535  0.1090277297380382  1.0000
  C   C25       1.0  0.1004993553256028  0.8421188441217353  0.2969935470146225  1.0000
  C   C26       1.0  0.11387162609529608  0.8859958103736858  0.31839852624259624  1.0000
  C   C27       1.0  0.1580288865744066  0.898915328798239  0.2970668184893057  1.0000
  C   C28       1.0  0.15559820718466  0.2942702220071994  0.8906080217526978  1.0000
  C   C29       1.0  0.1087436756349973  0.31318446059655247  0.8818769617594739  1.0000
  C   C30       1.0  0.0952207781317256  0.29154297071222157  0.8402772073798133  1.0000
  C   C31       1.0  0.29209116643341554  0.0959504387802923  0.8401804093125947  1.0000
  C   C32       1.0  0.3136999875374328  0.10933294416547308  0.8818548230130503  1.0000
  C   C33       1.0  0.29473096992391856  0.15608724672492974  0.8906082387849069  1.0000
  C   C34       1.0  0.10071992736508407  0.15789754636035272  0.7026601015020546  1.0000
  C   C35       1.0  0.11412140854442747  0.1139135552708979  0.6813921911707014  1.0000
  C   C36       1.0  0.15823252139670532  0.10090364977656921  0.7027976842028423  1.0000
  C   C37       1.0  0.03178989408509379  0.0310461429467921  0.549288056800073  1.0000
  C   C38       1.0  0.00040404486595949996  1.37407391705e-05  0.5254776687220684  1.0000
  C   C39       1.0  0.9690467998341603  0.96901002661167  0.5494760284126343  1.0000
  C   C40       1.0  0.9688327951369402  0.9687082337608858  0.5975076463380233  1.0000
  C   C41       1.0  0.0004753037139834999  6.336681237680003e-05  0.6210434075667949  1.0000
  C   C42       1.0  0.03206929757211441  0.0314154220988598  0.5973143853990733  1.0000
  C   C43       1.0  0.0003045030495699  1.30894239234e-05  0.4746401247527601  1.0000
  C   C44       1.0  0.0316641121649397  0.9689303008409879  0.4507167122328113  1.0000
  C   C45       1.0  0.03174548060758299  0.9685315338941862  0.4026889782899588  1.0000
  C   C46       1.0  0.9999692088832289  0.9998946451371609  0.37908374113484206  1.0000
  C   C47       1.0  0.9683864687312607  0.0313449960154841  0.4027359579585976  1.0000
  C   C48       1.0  0.96880086454631  0.031062547010883197  0.45075954928924494  1.0000
  C   C49       1.0  0.028007731241729093  0.5525511019978069  0.0322102501750621  1.0000
  C   C50       1.0  0.00025734546947829996  0.527006586725804  0.00019294699837499972  1.0000
  C   C51       1.0  0.9724477991956845  0.5526646211297646  0.9681519405478058  1.0000
  C   C52       1.0  0.9718634288363288  0.6039917873352109  0.9679971148751249  1.0000
  C   C53       1.0  0.00011304091446360011  0.6293003240247828  0.0001307612851491001  1.0000
  C   C54       1.0  0.028439488181852792  0.6038903530677684  0.0322907041491902  1.0000
  C   C55       1.0  0.0002063621220926999  0.47274092200969875  0.00013891131898449965  1.0000
  C   C56       1.0  0.972300011055246  0.44712164221417083  0.03207182450951511  1.0000
  C   C57       1.0  0.9715122485265295  0.39579730631620436  0.0319512103731867  1.0000
  C   C58       1.0  0.9996410055979582  0.370461282974567  0.9996573538017159  1.0000
  C   C59       1.0  0.028099982101664995  0.39583869639415076  0.9676398123542853  1.0000
  C   C60       1.0  0.0278759637776957  0.44717208652959783  0.9679958711184895  1.0000
  C   C61       1.0  0.5527874342422476  0.027613974166598602  0.03245081779135011  1.0000
  C   C62       1.0  0.5272603407303363  4.2608651320099995e-05  0.0002978192700951  1.0000
  C   C63       1.0  0.5530036534753506  0.9724888843072393  0.9681951440308867  1.0000
  C   C64       1.0  0.6043975960394902  0.9719570341670191  0.968171369532179  1.0000
  C   C65       1.0  0.6296775794807629  7.17958877914e-05  0.00042620812824620003  1.0000
  C   C66       1.0  0.6041761575831756  0.028195069086180493  0.0326031995659193  1.0000
  C   C67       1.0  0.47293742316701054  4.422961958989998e-05  0.00020760891238330006  1.0000
  C   C68       1.0  0.44733271149479487  0.027651287927057004  0.967977402902271  1.0000
  C   C69       1.0  0.3959395104623411  0.028174390290203608  0.967770754422105  1.0000
  C   C70       1.0  0.3705169394551575  0.9999754609722871  0.999968111313237  1.0000
  C   C71       1.0  0.3958837103193885  0.9718186595015085  0.0322899330995199  1.0000
  C   C72       1.0  0.4472764205289365  0.9724132313490941  0.0323182108919227  1.0000
  C   C73       1.0  0.9186876987713575  0.6556058761092487  0.9104259405054052  1.0000
  C   C74       1.0  0.942961970147543  0.6305627641650773  0.9362970064959981  1.0000
  C   C75       1.0  0.9183079523550859  0.34413485830083357  0.0893329649819847  1.0000
  C   C76       1.0  0.9425437584347163  0.3692313896525194  0.063533685900957  1.0000
  C   C77       1.0  0.08129935044482288  0.655695317048007  0.08965714482369692  1.0000
  C   C78       1.0  0.0572338105727894  0.6304374793653338  0.063944122953508  1.0000
  C   C79       1.0  0.0809907901221152  0.34418878696116906  0.910007697060266  1.0000
  C   C80       1.0  0.0568400429081706  0.3692912217888988  0.9358607113604194  1.0000
  C   C81       1.0  0.6558596622023671  0.9188899087578689  0.9105255189660043  1.0000
  C   C82       1.0  0.6310121991097759  0.9431995847350266  0.9364638346807297  1.0000
  C   C83       1.0  0.34459843278279567  0.08143486071079307  0.910042405868744  1.0000
  C   C84       1.0  0.3694657099810641  0.05704861998867731  0.9359726075802541  1.0000
  C   C85       1.0  0.6554042907261959  0.08141816964638343  0.0901388909654486  1.0000
  C   C86       1.0  0.6305803720567765  0.05705391823616421  0.0643015638416031  1.0000
  C   C87       1.0  0.3444733827330352  0.9185697839557393  0.0898629801624864  1.0000
  C   C88       1.0  0.36935930896022734  0.9429421193021029  0.0639944806712407  1.0000
  C   C89       1.0  0.9131633610307544  0.9131817488930237  0.6492931183405233  1.0000
  C   C90       1.0  0.9376609725737023  0.9376895777732558  0.6231998555406406  1.0000
  C   C91       1.0  0.0872290378371616  0.9128184672690338  0.35089558949132293  1.0000
  C   C92       1.0  0.0628541754961631  0.9373922930664095  0.3770334628370264  1.0000
  C   C93       1.0  0.08751849485931731  0.08709622682325602  0.648941680357531  1.0000
  C   C94       1.0  0.0631683397110123  0.0625345460937154  0.6228567311332682  1.0000
  C   C95       1.0  0.912650600994688  0.08702830467354522  0.35100434619226933  1.0000
  C   C96       1.0  0.9371352415632187  0.062452608789101284  0.3771197049696724  1.0000
  N   N1        1.0  0.868481308043087  0.7379612054471778  0.8260171036663451  1.0000
  N   N2        1.0  0.8311097891977397  0.7362777030032532  0.8572501607340259  1.0000
  N   N3        1.0  0.7361048098064982  0.8311972725983098  0.857198018241192  1.0000
  N   N4        1.0  0.7379004164594534  0.8686163750656631  0.8260166268532245  1.0000
  N   N5        1.0  0.8304870170173329  0.8660384255845345  0.7347404725004196  1.0000
  N   N6        1.0  0.8658871819796514  0.8304809583583931  0.7346541352275581  1.0000
  N   N7        1.0  0.8681654851106089  0.2619715954254929  0.1738146904820539  1.0000
  N   N8        1.0  0.8308562668573743  0.26360127185808585  0.14252449388742863  1.0000
  N   N9        1.0  0.7357571472527978  0.16909158273057298  0.1429045137270393  1.0000
  N   N10       1.0  0.7375388740534774  0.13186285475539708  0.174285495861497  1.0000
  N   N11       1.0  0.8301059138882037  0.1344186263827893  0.2654828773933319  1.0000
  N   N12       1.0  0.8655853209773666  0.1697743231633524  0.2654708972957991  1.0000
  N   N13       1.0  0.13104347185158358  0.7383864981163198  0.1736331992011131  1.0000
  N   N14       1.0  0.16840107521610287  0.7367523033111495  0.14238126661943803  1.0000
  N   N15       1.0  0.26378767596120406  0.8310168474575975  0.14268708461709423  1.0000
  N   N16       1.0  0.26220764092758486  0.8681171428820278  0.174094159778754  1.0000
  N   N17       1.0  0.16957355467435778  0.8655012377120598  0.2652787814804114  1.0000
  N   N18       1.0  0.1339300936152057  0.8303109232622604  0.2652271325103968  1.0000
  N   N19       1.0  0.1311790589024184  0.2618993234104465  0.8257567831934055  1.0000
  N   N20       1.0  0.16857036934306538  0.26360264645032316  0.8569471866588287  1.0000
  N   N21       1.0  0.2640250280185086  0.16912172009332244  0.8569064758094882  1.0000
  N   N22       1.0  0.2623829047476178  0.13187661539160436  0.8256592804857307  1.0000
  N   N23       1.0  0.1697432184269019  0.1343824488000962  0.7344933372267306  1.0000
  N   N24       1.0  0.1341053003360457  0.1696990956320192  0.7344130870535039  1.0000
