data_image0
_chemical_formula_structural       Cu12H88C88N24Cl8O24
_chemical_formula_sum              "Cu12 H88 C88 N24 Cl8 O24"
_cell_length_a       11.649225346411367
_cell_length_b       18.347869541205633
_cell_length_c       18.344092641248732
_cell_angle_alpha    84.2296678022961
_cell_angle_beta     71.46150692947278
_cell_angle_gamma    71.45007837437771

_space_group_name_H-M_alt    "P 1"
_space_group_IT_number       1

loop_
  _space_group_symop_operation_xyz
  'x, y, z'

loop_
  _atom_site_type_symbol
  _atom_site_label
  _atom_site_symmetry_multiplicity
  _atom_site_fract_x
  _atom_site_fract_y
  _atom_site_fract_z
  _atom_site_occupancy
  Cu  Cu1       1.0  0.4235681147999129  0.5979465904861384  0.2547596086569754  1.0000
  Cu  Cu2       1.0  0.7768523936826879  0.9012714776024068  0.24511881834102683  1.0000
  Cu  Cu3       1.0  0.6786511965512219  0.7451513999717175  0.09822510046093685  1.0000
  Cu  Cu4       1.0  0.021948907693065633  0.7544494059496427  0.4015013216690093  1.0000
  Cu  Cu5       1.0  0.576356490406695  0.40193735499595107  0.7453780368353407  1.0000
  Cu  Cu6       1.0  0.2232279794791123  0.09880604201089228  0.7548394696536036  1.0000
  Cu  Cu7       1.0  0.3215202665667004  0.2548887204918343  0.9016988818418171  1.0000
  Cu  Cu8       1.0  0.9784056426839455  0.24542568573545498  0.5983838631077634  1.0000
  Cu  Cu9       1.0  0.5003134496099687  0.4997991858928116  0.49983418016393  1.0000
  Cu  Cu10      1.0  5.900597548707341e-05  6.887469682229983e-05  0.9999953073814963  1.0000
  Cu  Cu11      1.0  0.9999580084604243  0.4998826150856387  0.9999701026605196  1.0000
  Cu  Cu12      1.0  0.9999175400676773  5.166800242759995e-05  0.4999800827859532  1.0000
  H   H1        1.0  0.9613899028687313  0.7575745237434501  0.5652672557022671  1.0000
  H   H2        1.0  0.9482999397202575  0.7271029300680423  0.7017838238833322  1.0000
  H   H3        1.0  0.12841057770697237  0.6298673554901056  0.7365661839871933  1.0000
  H   H4        1.0  0.32266959170022574  0.5618294410236827  0.6329668626763337  1.0000
  H   H5        1.0  0.17121211865909194  0.6318679433074194  0.2339566469070462  1.0000
  H   H6        1.0  0.3506747564750085  0.6713152742924038  0.04199969083549609  1.0000
  H   H7        1.0  0.24179300442498428  0.6470555927578798  0.005571998924281721  1.0000
  H   H8        1.0  0.21235936687935456  0.7447555674893208  0.030499021315158432  1.0000
  H   H9        1.0  0.9999959334944324  0.6766899027224296  0.2019506610083754  1.0000
  H   H10       1.0  0.0031577682098813662  0.7524919009844664  0.13320186676622822  1.0000
  H   H11       1.0  0.01689946122966286  0.6582736808459443  0.10473943696399601  1.0000
  H   H12       1.0  0.7845938761938949  0.7422363868468549  0.9348729354457037  1.0000
  H   H13       1.0  0.877205318918065  0.7726779850652787  0.7982455136864673  1.0000
  H   H14       1.0  0.9946126133578231  0.8700048249592597  0.7633074191536411  1.0000
  H   H15       1.0  0.017493433015538268  0.9379477301481881  0.8667397127336541  1.0000
  H   H16       1.0  0.5373060361698663  0.8674806742838398  0.265976035630132  1.0000
  H   H17       1.0  0.5643350349340179  0.8280672782602706  0.4579510293855763  1.0000
  H   H18       1.0  0.3946592360738206  0.8524992939488667  0.49423326355950087  1.0000
  H   H19       1.0  0.48789099116255147  0.7546972425015283  0.4695841312088547  1.0000
  H   H20       1.0  0.3789356929806613  0.8227444779870224  0.29809654913834305  1.0000
  H   H21       1.0  0.3889530819519962  0.7470092513510095  0.36693781856226343  1.0000
  H   H22       1.0  0.28026143905189127  0.8413923705720661  0.3952969627591401  1.0000
  H   H23       1.0  0.5270814119709043  0.43497314380822866  0.2576391943762531  1.0000
  H   H24       1.0  0.650385684969137  0.2982763697821724  0.22734331840727864  1.0000
  H   H25       1.0  0.8651845941756166  0.26324380858824264  0.12980305405069012  1.0000
  H   H26       1.0  0.9560930522786463  0.3665078817321755  0.0618654247092892  1.0000
  H   H27       1.0  0.40508949686111595  0.76586334041324  0.13202806750908286  1.0000
  H   H28       1.0  0.392277524004882  0.9579675214784229  0.1712573296142709  1.0000
  H   H29       1.0  0.2470214627154093  0.9941546862891143  0.14686336964054905  1.0000
  H   H30       1.0  0.24235700741160565  0.9696800588201027  0.24465133966684505  1.0000
  H   H31       1.0  0.2018742393625743  0.7980340328880046  0.176591463304007  1.0000
  H   H32       1.0  0.13595424887214597  0.8669158323417532  0.25242143170229536  1.0000
  H   H33       1.0  0.12165421233028442  0.8951953397018639  0.1580666305690883  1.0000
  H   H34       1.0  0.7194290687183339  0.06453274374258199  0.24208043893410294  1.0000
  H   H35       1.0  0.6755162754355338  0.20119047324095618  0.27242887366241325  1.0000
  H   H36       1.0  0.7578728393620365  0.2361953427342128  0.36986288256081684  1.0000
  H   H37       1.0  0.8843107278375938  0.13289728165600675  0.43772444194253524  1.0000
  H   H38       1.0  0.8030653140306395  0.7338734039234749  0.36798804036147464  1.0000
  H   H39       1.0  0.02189094518475791  0.5417862613039617  0.3285306412577356  1.0000
  H   H40       1.0  0.888386473328687  0.5056624592608754  0.35306142284683534  1.0000
  H   H41       1.0  0.9569620838919161  0.5300657675671587  0.25523748560264903  1.0000
  H   H42       1.0  0.6763906409698421  0.7017239798943321  0.32342193231341565  1.0000
  H   H43       1.0  0.7553839619863252  0.6329536329809001  0.24750862337440088  1.0000
  H   H44       1.0  0.6751759353624537  0.6045568662159652  0.3418832618251316  1.0000
  H   H45       1.0  0.038583216934142656  0.24254398382316103  0.4348781231921848  1.0000
  H   H46       1.0  0.05142057258262861  0.2729776793909906  0.2984104334835679  1.0000
  H   H47       1.0  0.871185875888635  0.37016791295079793  0.2637105362769462  1.0000
  H   H48       1.0  0.676906014811628  0.43804315681050093  0.3673352708016895  1.0000
  H   H49       1.0  0.8286972312487608  0.36814647128041134  0.7661471784676267  1.0000
  H   H50       1.0  0.6493435901482835  0.32863759213248755  0.9580658379682705  1.0000
  H   H51       1.0  0.7582546040103325  0.35291620719888067  0.994452086230119  1.0000
  H   H52       1.0  0.7876363039958245  0.2551910003670629  0.9695941350775785  1.0000
  H   H53       1.0  0.9999812018678111  0.32331525555734686  0.7980895461818704  1.0000
  H   H54       1.0  0.9969265862761956  0.24748793500745583  0.8668086104119369  1.0000
  H   H55       1.0  0.9830611880963499  0.34173147394339043  0.895296946411456  1.0000
  H   H56       1.0  0.21549615085944399  0.257909108261444  0.06523708324310463  1.0000
  H   H57       1.0  0.12280713024374987  0.22743528775236393  0.20183332280267052  1.0000
  H   H58       1.0  0.005409084917708603  0.13008884349442698  0.23670775525379642  1.0000
  H   H59       1.0  0.9826255442831382  0.062178662774634595  0.1332269879547427  1.0000
  H   H60       1.0  0.4628754312168012  0.13247146711476177  0.733925017163287  1.0000
  H   H61       1.0  0.43578937054847694  0.17194582151005017  0.5419719952948654  1.0000
  H   H62       1.0  0.6054443106673233  0.14752933729560164  0.5057001141385129  1.0000
  H   H63       1.0  0.5121947914248962  0.2453330677356788  0.5302992073681452  1.0000
  H   H64       1.0  0.6210910133861204  0.17728244496308315  0.7018547674628338  1.0000
  H   H65       1.0  0.6111333102921886  0.2530239818211583  0.6329986370267875  1.0000
  H   H66       1.0  0.7198188657197517  0.15861846347561934  0.604663130060388  1.0000
  H   H67       1.0  0.47294537309264195  0.5649669988317284  0.7423428455864853  1.0000
  H   H68       1.0  0.34954050941068004  0.7016713157502392  0.7727146682758246  1.0000
  H   H69       1.0  0.13481153574618063  0.7366452606499932  0.8702795401482534  1.0000
  H   H70       1.0  0.04385108917260528  0.6333846034276148  0.938180560785504  1.0000
  H   H71       1.0  0.5947265974834933  0.23415960030996524  0.8679692621168301  1.0000
  H   H72       1.0  0.6075797854842688  0.042015781100857894  0.828772043740493  1.0000
  H   H73       1.0  0.7528644693846118  0.0058648189339365  0.8531491201355977  1.0000
  H   H74       1.0  0.7574765518692457  0.030338874956953504  0.755364922805967  1.0000
  H   H75       1.0  0.7979829456740928  0.20196654328680097  0.8234673819823898  1.0000
  H   H76       1.0  0.863938687103818  0.13306233627467628  0.7476518114024203  1.0000
  H   H77       1.0  0.8781119308221363  0.10481390092540009  0.8420372466663225  1.0000
  H   H78       1.0  0.28042714098133775  0.9355494179771353  0.7579249431347108  1.0000
  H   H79       1.0  0.32434195118151626  0.7988801817164201  0.7275666849881048  1.0000
  H   H80       1.0  0.2419552146882396  0.7639017445134114  0.6301188298588798  1.0000
  H   H81       1.0  0.1155924579907575  0.8671882932438493  0.5622413281697192  1.0000
  H   H82       1.0  0.19703053376917268  0.26604538399511307  0.6319021959514474  1.0000
  H   H83       1.0  0.9779942542724238  0.4581296656077639  0.6713743208707968  1.0000
  H   H84       1.0  0.11139562116449021  0.4943461022135267  0.6469282331642319  1.0000
  H   H85       1.0  0.04290093682700276  0.4697875295384434  0.7447038239815243  1.0000
  H   H86       1.0  0.3236751749198918  0.2982890296655397  0.6764022659537189  1.0000
  H   H87       1.0  0.24471938650549413  0.36716737471126487  0.7522266807558537  1.0000
  H   H88       1.0  0.32484334742171916  0.39547786558379266  0.6578055628947226  1.0000
  C   C1        1.0  0.3618539878622398  0.5955774979424575  0.41035042038213027  1.0000
  C   C2        1.0  0.2542702823602382  0.6520130546943504  0.39121330887701333  1.0000
  C   C3        1.0  0.14600228627028147  0.6746507804740745  0.5219005630017577  1.0000
  C   C4        1.0  0.03848867676625612  0.7137245672664249  0.5807498957482552  1.0000
  C   C5        1.0  0.03259097572303911  0.696831952651891  0.6568965685501524  1.0000
  C   C6        1.0  0.13407653136268025  0.6419523258415225  0.6763384830308397  1.0000
  C   C7        1.0  0.24212636568614676  0.6038394098660544  0.6190007280497412  1.0000
  C   C8        1.0  0.2496608492479028  0.619163850233491  0.5411016458623266  1.0000
  C   C9        1.0  0.23570806446105763  0.6387346435226887  0.17688262966204607  1.0000
  C   C10       1.0  0.25060345746750545  0.6841846236547936  0.04563278981927253  1.0000
  C   C11       1.0  0.04164326129939146  0.6904679676318393  0.1417713720518563  1.0000
  C   C12       1.0  0.8682766822777592  0.9040194117941949  0.08951627481712193  1.0000
  C   C13       1.0  0.7980427748275286  0.8476597145724368  0.10862499154923479  1.0000
  C   C14       1.0  0.8428994513675433  0.8251461319263027  0.9780196109322786  1.0000
  C   C15       1.0  0.8332557046745918  0.7860844713008105  0.91922886792905  1.0000
  C   C16       1.0  0.8863682142916925  0.8029776409978167  0.8430604960489847  1.0000
  C   C17       1.0  0.9522439964051941  0.8579008997340621  0.823553183485302  1.0000
  C   C18       1.0  0.9649557756668444  0.895998227391537  0.8808183124646548  1.0000
  C   C19       1.0  0.9101045755310787  0.8806680781064029  0.9587611931132971  1.0000
  C   C20       1.0  0.5517913546780446  0.8604598399778849  0.3229803424591892  1.0000
  C   C21       1.0  0.4807797951958362  0.8152232243945788  0.4543183104434976  1.0000
  C   C22       1.0  0.37419908168726573  0.8089951562044176  0.35827434645656814  1.0000
  C   C23       1.0  0.7726417001298241  0.5893305279302296  0.0958429808931315  1.0000
  C   C24       1.0  0.645476827491528  0.6086374466939971  0.15232841682452414  1.0000
  C   C25       1.0  0.6684045327130335  0.4780234213152424  0.17476024470430232  1.0000
  C   C26       1.0  0.6197439116057737  0.4192501604552773  0.21382923511639274  1.0000
  C   C27       1.0  0.6898577098378594  0.3430521223441615  0.1969904540677235  1.0000
  C   C28       1.0  0.810709670892436  0.3234855896753571  0.14202344885954002  1.0000
  C   C29       1.0  0.8616125418245771  0.3806971901916326  0.10392951205669493  1.0000
  C   C30       1.0  0.7914589424139534  0.4586242505366228  0.11923899699502996  1.0000
  C   C31       1.0  0.4124656806135149  0.8229280221981978  0.13892695579714606  1.0000
  C   C32       1.0  0.29586398409094944  0.9543189405924083  0.18412109598607174  1.0000
  C   C33       1.0  0.1832369793865425  0.85822150991968  0.19041157831816247  1.0000
  C   C34       1.0  0.9578868960336775  0.9100621507661157  0.4038646762385768  1.0000
  C   C35       1.0  0.9067039505478293  0.8908496659048806  0.34754573650829484  1.0000
  C   C36       1.0  0.8209616312303041  0.021492249180234096  0.3249701449918022  1.0000
  C   C37       1.0  0.7524284473584899  0.08023334308923319  0.2859305975345735  1.0000
  C   C38       1.0  0.7294459296062854  0.15641414700662887  0.3027830717173715  1.0000
  C   C39       1.0  0.775852516953499  0.17594729304352089  0.3577029422088885  1.0000
  C   C40       1.0  0.8459872778606439  0.11871608767896187  0.3957326863485522  1.0000
  C   C41       1.0  0.8691607169134058  0.04076657764575489  0.380391445569174  1.0000
  C   C42       1.0  0.8744099416834317  0.6767804938647257  0.36102487286785845  1.0000
  C   C43       1.0  0.9346343352523901  0.5454602058851774  0.31574196703694923  1.0000
  C   C44       1.0  0.7319818899254499  0.6415783935960347  0.30951831789765555  1.0000
  C   C45       1.0  0.6382752317043127  0.4042973459417282  0.5898930933913179  1.0000
  C   C46       1.0  0.7459970455988199  0.34803947560627074  0.6090800266271331  1.0000
  C   C47       1.0  0.8538821628546884  0.32539537192468515  0.4783334896433474  1.0000
  C   C48       1.0  0.9613671542547592  0.28634914462153915  0.419445573419111  1.0000
  C   C49       1.0  0.9671324435592151  0.30322855459284875  0.3433184241761326  1.0000
  C   C50       1.0  0.8655560044053556  0.35805073966334067  0.32392825819290044  1.0000
  C   C51       1.0  0.7574759975365524  0.39607515096623996  0.38129707273825636  1.0000
  C   C52       1.0  0.750132995363103  0.38075814812686554  0.4591566739372157  1.0000
  C   C53       1.0  0.7642731237317474  0.36118375687628657  0.8232128724602179  1.0000
  C   C54       1.0  0.7494177381923844  0.31575387201986155  0.954434375632779  1.0000
  C   C55       1.0  0.9583668688023433  0.3095084445306923  0.8582670507173803  1.0000
  C   C56       1.0  0.13181440792426022  0.09611162173592898  0.910495877638965  1.0000
  C   C57       1.0  0.20206452369308156  0.15247934152634457  0.8913588002460529  1.0000
  C   C58       1.0  0.15726548745134747  0.1749877990280879  0.022017711325624127  1.0000
  C   C59       1.0  0.16685971365438948  0.21404373047340639  0.0808300550494465  1.0000
  C   C60       1.0  0.1136768439570658  0.19714768411058967  0.15699599821967783  1.0000
  C   C61       1.0  0.04779674036628726  0.14222612430349807  0.176475112199121  1.0000
  C   C62       1.0  0.035140833322159906  0.10414027373394667  0.11918729801649161  1.0000
  C   C63       1.0  0.09003515304224409  0.11947560569775814  0.04125391627860611  1.0000
  C   C64       1.0  0.4483340623180823  0.13954520253458466  0.6769330405331502  1.0000
  C   C65       1.0  0.5193246575809594  0.18481057106291124  0.5456043368553267  1.0000
  C   C66       1.0  0.6258753596558505  0.19103405887242528  0.6416688279513494  1.0000
  C   C67       1.0  0.22752378123854533  0.4104968580342571  0.9040533015430157  1.0000
  C   C68       1.0  0.35443705014478155  0.39127978328035334  0.8477444683993056  1.0000
  C   C69       1.0  0.33156244084617725  0.5219437940681501  0.825279774387063  1.0000
  C   C70       1.0  0.3803054048422183  0.5806808105322857  0.7861819277593015  1.0000
  C   C71       1.0  0.3101459644776269  0.6568673845153795  0.803057591703869  1.0000
  C   C72       1.0  0.18926847258970256  0.6764023186433404  0.8580469413585803  1.0000
  C   C73       1.0  0.13834335250479035  0.6191866689729081  0.8961135717331318  1.0000
  C   C74       1.0  0.2086106718354015  0.5412693024799607  0.880717241339113  1.0000
  C   C75       1.0  0.5873821108490203  0.17709778752097796  0.861064400160096  1.0000
  C   C76       1.0  0.7039840097534694  0.045681601037543394  0.8158999050742325  1.0000
  C   C77       1.0  0.8165982151108575  0.14178137160813256  0.8096536142818493  1.0000
  C   C78       1.0  0.04214001129565756  0.09000388296087178  0.5961066582348948  1.0000
  C   C79       1.0  0.09333202703039928  0.10917607622271668  0.6523715722223358  1.0000
  C   C80       1.0  0.17892321994659702  0.9785910472327116  0.6750187098818685  1.0000
  C   C81       1.0  0.24742999990884557  0.919842498994768  0.7140793327973824  1.0000
  C   C82       1.0  0.2704081133331327  0.8436691585134566  0.697215760114581  1.0000
  C   C83       1.0  0.22401056844137188  0.8241492173504807  0.6422766187881876  1.0000
  C   C84       1.0  0.15390063899727124  0.881378683619914  0.6042310710273284  1.0000
  C   C85       1.0  0.13073038151105693  0.9593282056109657  0.6195854117311228  1.0000
  C   C86       1.0  0.12567765763330369  0.32312504883173426  0.6388404324183696  1.0000
  C   C87       1.0  0.06523343623385348  0.4544683778880766  0.6841731686847652  1.0000
  C   C88       1.0  0.2680861189150291  0.35844834557649813  0.6902316685999212  1.0000
  N   N1        1.0  0.35550611272653027  0.5807890590025407  0.4834347876737652  1.0000
  N   N2        1.0  0.1516427103573717  0.6887770038562236  0.4457301517260818  1.0000
  N   N3        1.0  0.1791365829664357  0.6699120071543944  0.12391582777470943  1.0000
  N   N4        1.0  0.9200227836832295  0.918934328121267  0.016433702186290734  1.0000
  N   N5        1.0  0.7867251308343909  0.8109021607608752  0.054186546508184275  1.0000
  N   N6        1.0  0.4734878613333392  0.8293365698559397  0.3760061611651367  1.0000
  N   N7        1.0  0.8393393962733171  0.5163715517889  0.08103931311158177  1.0000
  N   N8        1.0  0.5976265564718588  0.5541449482209513  0.18902411213912282  1.0000
  N   N9        1.0  0.30286107549051144  0.8759721676068607  0.17002397825969953  1.0000
  N   N10       1.0  0.9367316195211399  0.9831447540401969  0.41869664392744727  1.0000
  N   N11       1.0  0.8408179339665052  0.9452950097941863  0.31083511732531144  1.0000
  N   N12       1.0  0.8490645531534822  0.6238207757413078  0.32983855470136825  1.0000
  N   N13       1.0  0.6442714836638855  0.4189181121825384  0.5170224744213882  1.0000
  N   N14       1.0  0.848483324166217  0.31122145048185956  0.5545233901034339  1.0000
  N   N15       1.0  0.8208808740162682  0.32999255839117575  0.8761385938617394  1.0000
  N   N16       1.0  0.08008721926543667  0.08122315650250299  0.9835852033435585  1.0000
  N   N17       1.0  0.2134394457806788  0.18919265626165327  0.9458273015637104  1.0000
  N   N18       1.0  0.5265920243436567  0.17071332930581917  0.6239239254764827  1.0000
  N   N19       1.0  0.1606236756493331  0.4834656041483639  0.9188535148814266  1.0000
  N   N20       1.0  0.4023607311214544  0.44575961099012307  0.8110233699953967  1.0000
  N   N21       1.0  0.6969530998385589  0.12404275072548639  0.8300019067968805  1.0000
  N   N22       1.0  0.06315467964269318  0.016960373577418898  0.5812762093678144  1.0000
  N   N23       1.0  0.15912197764836836  0.054783110994655694  0.6891519669915525  1.0000
  N   N24       1.0  0.15093023302086533  0.37613647226465463  0.6699886601390902  1.0000
  Cl  Cl1       1.0  0.5968649930544315  0.5893874338225301  0.50268304895247  1.0000
  Cl  Cl2       1.0  0.1893009609369399  0.9103985008734197  0.9959174977594074  1.0000
  Cl  Cl3       1.0  0.099560138794665  0.4957272624940216  0.08922916803067693  1.0000
  Cl  Cl4       1.0  0.1854960089062202  0.0037147533109304996  0.4104258503510891  1.0000
  Cl  Cl5       1.0  0.40532188946219344  0.4097889776748857  0.49510556163710373  1.0000
  Cl  Cl6       1.0  0.8108461852615391  0.08976229115190648  0.0039459143626389345  1.0000
  Cl  Cl7       1.0  0.9000681728074867  0.5039415985453672  0.9108255808176012  1.0000
  Cl  Cl8       1.0  0.8143326777668487  0.9964801190151957  0.5896148201433392  1.0000
  O   O1        1.0  0.4592676984259326  0.5618403318687581  0.35393154326271775  1.0000
  O   O2        1.0  0.26350020099243193  0.6648850508784532  0.3190213660628842  1.0000
  O   O3        1.0  0.35496358208497003  0.6195376490612999  0.16461485552876107  1.0000
  O   O4        1.0  0.8756388320373244  0.9376071597388814  0.14599344473388254  1.0000
  O   O5        1.0  0.7478515702714855  0.8348165172194654  0.18087646734677787  1.0000
  O   O6        1.0  0.6398606235140248  0.8794434442321657  0.3351318795270046  1.0000
  O   O7        1.0  0.8135094677120874  0.6456648452475945  0.062156077138361486  1.0000
  O   O8        1.0  0.5826607183506379  0.6808192923084275  0.16474483800317333  1.0000
  O   O9        1.0  0.5194687753787548  0.8351091957191698  0.11985143172613288  1.0000
  O   O10       1.0  0.021501893103028448  0.8536145964554008  0.437569426876621  1.0000
  O   O11       1.0  0.9288793733278168  0.8185864013025678  0.3347354460910808  1.0000
  O   O12       1.0  0.9746339145204883  0.6644825912575313  0.38007140611000534  1.0000
  O   O13       1.0  0.5407311826661426  0.43807707484705105  0.6463349639369654  1.0000
  O   O14       1.0  0.7367712624824425  0.33546698758814836  0.6812616682105174  1.0000
  O   O15       1.0  0.645020913607453  0.38025483235794866  0.8354607953650088  1.0000
  O   O16       1.0  0.12442582834223953  0.0625192992251016  0.8540456046824616  1.0000
  O   O17       1.0  0.25220963088514037  0.16534727006518318  0.8191192938250538  1.0000
  O   O18       1.0  0.36024805765838164  0.12058403142519575  0.6647951359239103  1.0000
  O   O19       1.0  0.18654444879216212  0.3541257664359775  0.9377606521443694  1.0000
  O   O20       1.0  0.41750815870327057  0.3190747968251485  0.8351689243863377  1.0000
  O   O21       1.0  0.48033144809843265  0.16492233513023535  0.8801095047177653  1.0000
  O   O22       1.0  0.9785522862623139  0.14654281854974016  0.5623732107777217  1.0000
  O   O23       1.0  0.07125179782933326  0.18149617181291686  0.6650908267218656  1.0000
  O   O24       1.0  0.025424219197340413  0.3353740920846703  0.6198007746138713  1.0000
