data_image0
_chemical_formula_structural       Dy2H36C48N2O14
_chemical_formula_sum              "Dy2 H36 C48 N2 O14"
_cell_length_a       8.692461311582765
_cell_length_b       10.78892150993041
_cell_length_c       12.110251345829576
_cell_angle_alpha    69.89024071729843
_cell_angle_beta     84.32155937302262
_cell_angle_gamma    77.92065886143516

_space_group_name_H-M_alt    "P 1"
_space_group_IT_number       1

loop_
  _space_group_symop_operation_xyz
  'x, y, z'

loop_
  _atom_site_type_symbol
  _atom_site_label
  _atom_site_symmetry_multiplicity
  _atom_site_fract_x
  _atom_site_fract_y
  _atom_site_fract_z
  _atom_site_occupancy
  Dy  Dy1       1.0  0.28430008205008045  0.023426920817087204  0.5570994953222979  1.0000
  Dy  Dy2       1.0  0.7157011612244232  0.9765741115007459  0.44290517457650935  1.0000
  H   H1        1.0  0.770017944389586  0.3627962800415646  0.23687129709779947  1.0000
  H   H2        1.0  0.22998337282950115  0.6371996107865032  0.7631283888896403  1.0000
  H   H3        1.0  0.003189759436260347  0.7014214935219415  0.14873724300944957  1.0000
  H   H4        1.0  0.9968207337474413  0.2985692910623996  0.8512626935300246  1.0000
  H   H5        1.0  0.143275919016709  0.3520148773147014  0.44971033306843106  1.0000
  H   H6        1.0  0.8567276494583851  0.6479759485556543  0.5502891723316026  1.0000
  H   H7        1.0  0.035408829475450335  0.7859576082407075  0.30765696384591473  1.0000
  H   H8        1.0  0.9645852828298727  0.2140402376889057  0.6923367456277417  1.0000
  H   H9        1.0  0.22107127769853457  0.9031695142059631  0.3539738696341317  1.0000
  H   H10       1.0  0.7789155095397077  0.09683546018344916  0.6460204918056361  1.0000
  H   H11       1.0  0.5923269637896594  0.5595501664900483  0.3878308289302693  1.0000
  H   H12       1.0  0.40767269046899884  0.44046479476415373  0.6121629158222461  1.0000
  H   H13       1.0  0.402642380029796  0.43763677761571534  0.34594888712712185  1.0000
  H   H14       1.0  0.5973654092228597  0.5623721459579514  0.6540487683396776  1.0000
  H   H15       1.0  0.009324716179335649  0.67013871823076  0.975550169572713  1.0000
  H   H16       1.0  0.9906818842665  0.32985410438471524  0.024449350870398213  1.0000
  H   H17       1.0  0.8843571472095705  0.7983566794445168  0.7830747884525664  1.0000
  H   H18       1.0  0.11564831837180373  0.20163613677342346  0.21692397489709236  1.0000
  H   H19       1.0  0.44475541413464  0.6840966152768857  0.9292611292273205  1.0000
  H   H20       1.0  0.5552489827402809  0.31590037912551594  0.0707446336274202  1.0000
  H   H21       1.0  0.5663744990690986  0.5603115198034844  0.12402196674024417  1.0000
  H   H22       1.0  0.4336379851147213  0.4396803300891606  0.8759816450045507  1.0000
  H   H23       1.0  0.09282595278458666  0.8675532020694309  0.8870374832326744  1.0000
  H   H24       1.0  0.9071561517381425  0.1324569360223435  0.11296130059741222  1.0000
  H   H25       1.0  0.4579768341150014  0.0334111634203467  0.8738727048673096  1.0000
  H   H26       1.0  0.542009377192741  0.9665908382427589  0.12612428383494023  1.0000
  H   H27       1.0  0.3233378876000401  0.12972939423826094  0.9490131336357166  1.0000
  H   H28       1.0  0.6766516113028654  0.8702735675909781  0.05098253137547454  1.0000
  H   H29       1.0  0.2943131061988139  0.15171504120575466  0.7981561272035123  1.0000
  H   H30       1.0  0.7056779879772035  0.8482909794185503  0.2018417790599613  1.0000
  H   H31       1.0  0.17324857570847724  0.8144835048991869  0.0614948130283891  1.0000
  H   H32       1.0  0.8267513911226344  0.18551933923117053  0.9384986206970466  1.0000
  H   H33       1.0  0.20214948473198988  0.951944462967745  0.1021391482207149  1.0000
  H   H34       1.0  0.7978530366646622  0.048051386455121324  0.8978588280073936  1.0000
  H   H35       1.0  0.36706784840319523  0.8401858129531095  0.06810510963975941  1.0000
  H   H36       1.0  0.6329335074404483  0.15981686229809366  0.9318800360522488  1.0000
  C   C1        1.0  0.9386064524095802  0.20592431619240165  0.4252334608607953  1.0000
  C   C2        1.0  0.061395376058356925  0.7940695014776793  0.5747635476583638  1.0000
  C   C3        1.0  0.9527338218403401  0.34668939524060255  0.35104311412253947  1.0000
  C   C4        1.0  0.047271132492177424  0.6533054941353243  0.6489583266953929  1.0000
  C   C5        1.0  0.8560411867322271  0.4140068445235841  0.2540761074858294  1.0000
  C   C6        1.0  0.14396284215152363  0.5859870337443029  0.7459248820730335  1.0000
  C   C7        1.0  0.8773769065948187  0.5406401177805266  0.17748804402072677  1.0000
  C   C8        1.0  0.12263106123553764  0.4593516905877379  0.8225117170659715  1.0000
  C   C9        1.0  0.9903435286913691  0.6005066275163955  0.20496194244213234  1.0000
  C   C10       1.0  0.009667173908013558  0.3994831523574406  0.7950382999317255  1.0000
  C   C11       1.0  0.08767808266260595  0.5347892015825196  0.30137367383350977  1.0000
  C   C12       1.0  0.912328471574483  0.46520365290144383  0.6986274911781292  1.0000
  C   C13       1.0  0.06902893519458075  0.4059113954276088  0.3741052540272633  1.0000
  C   C14       1.0  0.9309785444912815  0.5940824701643949  0.6258963622434521  1.0000
  C   C15       1.0  0.2054423228716899  0.603218016103071  0.32449640074247543  1.0000
  C   C16       1.0  0.7945604325213792  0.39677595137275296  0.6755087654285035  1.0000
  C   C17       1.0  0.15758435264837087  0.736016001427956  0.3237092922615402  1.0000
  C   C18       1.0  0.8424108959977658  0.2639809895968952  0.6762928806983196  1.0000
  C   C19       1.0  0.2620562641316794  0.8019637745166722  0.3506737719247893  1.0000
  C   C20       1.0  0.7379342310094755  0.19803928931557385  0.6493275838854301  1.0000
  C   C21       1.0  0.4181685649093295  0.7377015027475551  0.3768196983208936  1.0000
  C   C22       1.0  0.581828850308959  0.26230661348570555  0.6231846056873491  1.0000
  C   C23       1.0  0.46976663703902205  0.6079215004359926  0.370416881053785  1.0000
  C   C24       1.0  0.5302333266369885  0.3920855760790972  0.6295867761229771  1.0000
  C   C25       1.0  0.3635892114641449  0.5403055364697238  0.34664743249511787  1.0000
  C   C26       1.0  0.6364151099898405  0.4596974607247405  0.6533556078782468  1.0000
  C   C27       1.0  0.5241116918794971  0.8054771829269642  0.41546028989900197  1.0000
  C   C28       1.0  0.47588152729140615  0.1945349010872094  0.5845388749228064  1.0000
  C   C29       1.0  0.7963823612360699  0.6092774619840571  0.06475362125194542  1.0000
  C   C30       1.0  0.20362849846245007  0.39071730003708893  0.9352433821906628  1.0000
  C   C31       1.0  0.883889393033861  0.6771550732115017  0.9666797705616973  1.0000
  C   C32       1.0  0.11611970966094987  0.3228367415542976  0.033320747618461155  1.0000
  C   C33       1.0  0.8154300651686907  0.7473280834390154  0.8587204818221394  1.0000
  C   C34       1.0  0.18457554051526154  0.2526637758711558  0.14128105421468717  1.0000
  C   C35       1.0  0.6563297264925296  0.7513767930204198  0.8440919611205684  1.0000
  C   C36       1.0  0.3436724006534747  0.24862018858691212  0.15591228754725248  1.0000
  C   C37       1.0  0.5682189109928756  0.6823513188756253  0.940572869073911  1.0000
  C   C38       1.0  0.4317852348890838  0.31764161841874045  0.05943171545638384  1.0000
  C   C39       1.0  0.6372929721170378  0.6115396053530731  0.04941905576742289  1.0000
  C   C40       1.0  0.3627186559311183  0.38845118562880304  0.9505816378655111  1.0000
  C   C41       1.0  0.589159364106841  0.8277033889547596  0.7245234892500463  1.0000
  C   C42       1.0  0.4108405117831495  0.17229865761028415  0.275480940005174  1.0000
  C   C43       1.0  0.15650350586140138  0.9517333799905434  0.846023024664376  1.0000
  C   C44       1.0  0.8434795749502939  0.048272643653753305  0.1539720487976766  1.0000
  C   C45       1.0  0.33401149703821176  0.07913113997966555  0.8833223660204156  1.0000
  C   C46       1.0  0.665979777341306  0.9208798468577089  0.1166714790275519  1.0000
  C   C47       1.0  0.24549170432912587  0.8912120088438304  0.04505882020162481  1.0000
  C   C48       1.0  0.7545030546961654  0.10878790070705695  0.9549375015495086  1.0000
  N   N1        1.0  0.23832849761880925  0.9752378229330606  0.9221260498703072  1.0000
  N   N2        1.0  0.7616555086416597  0.024769211819261703  0.0778694748508215  1.0000
  O   O1        1.0  0.04038485517898488  0.13862691172170125  0.5023206864386012  1.0000
  O   O2        1.0  0.9596230156024246  0.8613700540705693  0.4976848808437211  1.0000
  O   O3        1.0  0.8233889974335398  0.16130621584315463  0.40598311883322674  1.0000
  O   O4        1.0  0.17662985715639198  0.8386834654052255  0.5940150226364835  1.0000
  O   O5        1.0  0.6728175531695583  0.7756562612945574  0.40487892587777435  1.0000
  O   O6        1.0  0.3271712128531589  0.2243616883818191  0.5951087320989926  1.0000
  O   O7        1.0  0.46218079476279417  0.8999355207351841  0.4580011716199833  1.0000
  O   O8        1.0  0.5378148172430528  0.10006968011121134  0.5420082916943301  1.0000
  O   O9        1.0  0.6890688383316071  0.8467945270942542  0.6389614731627445  1.0000
  O   O10       1.0  0.31092188469813914  0.15321260978027607  0.36104188325618475  1.0000
  O   O11       1.0  0.4409612421978153  0.8687110805460067  0.7169903200176219  1.0000
  O   O12       1.0  0.5590336953522266  0.13129716630039212  0.2830198703620681  1.0000
  O   O13       1.0  0.14632658853732747  0.017620863970918804  0.7389357359936851  1.0000
  O   O14       1.0  0.8536570049995825  0.9823822252130869  0.261064366392837  1.0000
