data_image0
_chemical_formula_structural       Cd4H20C24S4N12Cl8
_chemical_formula_sum              "Cd4 H20 C24 S4 N12 Cl8"
_cell_length_a       3.846345957008476
_cell_length_b       10.828870220029534
_cell_length_c       22.26931165806104
_cell_angle_alpha    90.00021628382123
_cell_angle_beta     90.00017596988822
_cell_angle_gamma    89.99984921516607

_space_group_name_H-M_alt    "P 1"
_space_group_IT_number       1

loop_
  _space_group_symop_operation_xyz
  'x, y, z'

loop_
  _atom_site_type_symbol
  _atom_site_label
  _atom_site_symmetry_multiplicity
  _atom_site_fract_x
  _atom_site_fract_y
  _atom_site_fract_z
  _atom_site_occupancy
  Cd  Cd1       1.0  0.3030327000911369  0.3224746723224641  0.4276004900813462  1.0000
  Cd  Cd2       1.0  0.1969684969960781  0.6775247674933809  0.9276009747180609  1.0000
  Cd  Cd3       1.0  0.8030388550969149  0.17752544234466683  0.5723979709934  1.0000
  Cd  Cd4       1.0  0.6969680276803203  0.8224744992972788  0.07239879783194432  1.0000
  H   H1        1.0  0.6563424579762369  0.014759681222322702  0.3324532267681803  1.0000
  H   H2        1.0  0.8436556461245814  0.9852376491480469  0.8324516701289683  1.0000
  H   H3        1.0  0.15634935120461788  0.4852405660720154  0.6675478439928852  1.0000
  H   H4        1.0  0.3436528249667105  0.5147605615684866  0.1675472889254408  1.0000
  H   H5        1.0  0.4318249275281758  0.9701708661886174  0.3954164755016478  1.0000
  H   H6        1.0  0.0681783470750048  0.029829248818664705  0.8954161384779908  1.0000
  H   H7        1.0  0.9318249355198348  0.5298309586524966  0.6045843306030605  1.0000
  H   H8        1.0  0.5681720701494654  0.47017015472839335  0.1045844323806975  1.0000
  H   H9        1.0  0.6226149291314653  0.4676960099913573  0.2979051943718858  1.0000
  H   H10       1.0  0.8773722147924515  0.5323029008119634  0.7979064129046449  1.0000
  H   H11       1.0  0.12263364874777949  0.032302420866031405  0.7020936116960216  1.0000
  H   H12       1.0  0.37737428784912896  0.9676962028795731  0.20209301464674917  1.0000
  H   H13       1.0  0.8599792987521793  0.6318014051135279  0.2305795794920158  1.0000
  H   H14       1.0  0.6400197518150677  0.3681979097969332  0.730579010845034  1.0000
  H   H15       1.0  0.3599939407692928  0.8681995612130748  0.7694202870816724  1.0000
  H   H16       1.0  0.14001508853166908  0.1318014287950788  0.2694202543037889  1.0000
  H   H17       1.0  0.8305143311356885  0.8503450859791073  0.2548400646870519  1.0000
  H   H18       1.0  0.6694981125136933  0.14965256914153002  0.7548368640991328  1.0000
  H   H19       1.0  0.3305198523543141  0.649653136628082  0.7451624791780631  1.0000
  H   H20       1.0  0.16948358349646497  0.3503467427994665  0.24516107090333614  1.0000
  C   C1        1.0  0.43952167762771666  0.6041002302747387  0.3626149461535277  1.0000
  C   C2        1.0  0.060473265015119196  0.3958987082597715  0.8626161789919067  1.0000
  C   C3        1.0  0.9395272162532888  0.8959015876038025  0.6373854153434735  1.0000
  C   C4        1.0  0.5604755215024538  0.1040997787902072  0.1373839383759758  1.0000
  C   C5        1.0  0.5973803050532994  0.5651808405918216  0.3088104188683047  1.0000
  C   C6        1.0  0.9026096157266891  0.4348181543288592  0.8088110228332184  1.0000
  C   C7        1.0  0.09739316756737541  0.9348203631380371  0.6911883981521569  1.0000
  C   C8        1.0  0.4026093922927245  0.06518094686349228  0.19118839376742613  1.0000
  C   C9        1.0  0.7305398044767414  0.6574718924843382  0.2723029030953512  1.0000
  C   C10       1.0  0.7694547235201766  0.3425268208172838  0.7723023616830745  1.0000
  C   C11       1.0  0.23054876602752464  0.842530114325335  0.727697337870879  1.0000
  C   C12       1.0  0.2694517864932847  0.1574733242157436  0.2276974271680814  1.0000
  C   C13       1.0  0.713291890075105  0.7847243784530918  0.2859814806482177  1.0000
  C   C14       1.0  0.7867106595181494  0.2152753638103491  0.7859793669801932  1.0000
  C   C15       1.0  0.21329640369159358  0.7152767204996096  0.7140200975133837  1.0000
  C   C16       1.0  0.2867065267170758  0.28472568907667284  0.21401953372703997  1.0000
  C   C17       1.0  0.5526045748884273  0.8276644963034767  0.3381020791239919  1.0000
  C   C18       1.0  0.9474014204956163  0.17233657147015444  0.8381013259619864  1.0000
  C   C19       1.0  0.05259817170923502  0.6723349010090729  0.6618989573067681  1.0000
  C   C20       1.0  0.44740131292300583  0.3276643361457515  0.16189901457129713  1.0000
  C   C21       1.0  0.41549329889882347  0.7341757321911331  0.37725448805268513  1.0000
  C   C22       1.0  0.08450448120362351  0.26582331926460523  0.8772545963774192  1.0000
  C   C23       1.0  0.9154917957227581  0.765824260500743  0.6227463086305036  1.0000
  C   C24       1.0  0.5845081045734942  0.23417791643114333  0.12274553485358551  1.0000
  S   S1        1.0  0.15724668180776996  0.6265158143473641  0.4600408873587796  1.0000
  S   S2        1.0  0.34274724217362257  0.3734820287929779  0.9600404454001535  1.0000
  S   S3        1.0  0.657253410635292  0.8734834883562428  0.5399602094288412  1.0000
  S   S4        1.0  0.8427425461857253  0.12651620306507994  0.0399593857207634  1.0000
  N   N1        1.0  0.29832855860992413  0.5339684954161968  0.4069996880785496  1.0000
  N   N2        1.0  0.2016671043917881  0.4660307854931532  0.9070006828509848  1.0000
  N   N3        1.0  0.7983354400655499  0.9660306797335707  0.592999693885247  1.0000
  N   N4        1.0  0.7016639774572082  0.0339675739077308  0.0929986178529774  1.0000
  N   N5        1.0  0.26273567373004875  0.7568228747931229  0.43041596439187674  1.0000
  N   N6        1.0  0.23726816892661162  0.24317473982359417  0.9304161189872674  1.0000
  N   N7        1.0  0.7627308811842539  0.7431754090862128  0.5695842951361669  1.0000
  N   N8        1.0  0.7372681562978299  0.2568263577641403  0.0695836513017696  1.0000
  N   N9        1.0  0.5146227334597882  0.9485571469255093  0.3533828497120837  1.0000
  N   N10       1.0  0.9853809100687555  0.0514412683494783  0.8533818951396768  1.0000
  N   N11       1.0  0.014614407533677801  0.5514432081867044  0.6466190629095935  1.0000
  N   N12       1.0  0.4853770294809009  0.44855960493403313  0.1466189163459077  1.0000
  Cl  Cl1       1.0  0.30055631920108533  0.11257304746738583  0.48825641369427325  1.0000
  Cl  Cl2       1.0  0.1994432624493214  0.8874296306119263  0.9882572874932691  1.0000
  Cl  Cl3       1.0  0.8005572836344611  0.3874270694426302  0.5117424949991616  1.0000
  Cl  Cl4       1.0  0.6994408150920676  0.6125724043143917  0.0117424864860709  1.0000
  Cl  Cl5       1.0  0.8020384751466806  0.2534198833850425  0.35805014925851  1.0000
  Cl  Cl6       1.0  0.6979574445307505  0.7465813382777782  0.8580516601240902  1.0000
  Cl  Cl7       1.0  0.3020441793668311  0.2465839260088742  0.6419478621976324  1.0000
  Cl  Cl8       1.0  0.19796798080970038  0.7534179276173062  0.1419490110963864  1.0000
