data_image0
_chemical_formula_structural       Cd2H32C44N4O8
_chemical_formula_sum              "Cd2 H32 C44 N4 O8"
_cell_length_a       7.367234919129857
_cell_length_b       10.210161938021587
_cell_length_c       12.967658492249921
_cell_angle_alpha    85.03780045857508
_cell_angle_beta     77.44643722670959
_cell_angle_gamma    73.99102979331003

_space_group_name_H-M_alt    "P 1"
_space_group_IT_number       1

loop_
  _space_group_symop_operation_xyz
  'x, y, z'

loop_
  _atom_site_type_symbol
  _atom_site_label
  _atom_site_symmetry_multiplicity
  _atom_site_fract_x
  _atom_site_fract_y
  _atom_site_fract_z
  _atom_site_occupancy
  Cd  Cd1       1.0  0.25023560515788273  0.9556747220187916  0.5153863497158329  1.0000
  Cd  Cd2       1.0  0.7497642020033266  0.04432816649986649  0.4846114782992218  1.0000
  H   H1        1.0  0.4451496919709398  0.9244440668751182  0.2767739503232606  1.0000
  H   H2        1.0  0.5548491344993776  0.0755577662982603  0.7232271504528642  1.0000
  H   H3        1.0  0.6160030749624851  0.7510627502987077  0.14294967542144124  1.0000
  H   H4        1.0  0.3839937243358306  0.24893705370679697  0.8570510334071815  1.0000
  H   H5        1.0  0.4693034615455075  0.44554260444361665  0.3731207679859169  1.0000
  H   H6        1.0  0.5306855936800828  0.5544592753306005  0.6268776958614595  1.0000
  H   H7        1.0  0.29870519620943264  0.6347337031325894  0.4991431889791685  1.0000
  H   H8        1.0  0.7012842470658497  0.3652671482833653  0.50085606125068  1.0000
  H   H9        1.0  0.6628202981484106  0.36962636355997347  0.20305047986118308  1.0000
  H   H10       1.0  0.33717573236054227  0.6303754881039721  0.7969494270324591  1.0000
  H   H11       1.0  0.6934022693867233  0.5991660460517921  0.032539510078308416  1.0000
  H   H12       1.0  0.3066046599659272  0.40083271922691216  0.967461538741688  1.0000
  H   H13       1.0  0.815867451510833  0.2846046358313147  0.020542435929243666  1.0000
  H   H14       1.0  0.1841335271094876  0.7153951585544789  0.9794585220631763  1.0000
  H   H15       1.0  0.843512894320561  0.5214763038965062  0.857950374737918  1.0000
  H   H16       1.0  0.15649543301277893  0.4785224521369146  0.14205127102331971  1.0000
  H   H17       1.0  0.01564187911668569  0.46169640220973907  0.6808917274207648  1.0000
  H   H18       1.0  0.984362013132987  0.5382993147881123  0.3191091188929606  1.0000
  H   H19       1.0  0.17251751126256198  0.28567980561923895  0.5447571861542289  1.0000
  H   H20       1.0  0.8274784177028276  0.7143148932016744  0.4552447190443304  1.0000
  H   H21       1.0  0.07003568578681281  0.9745715411646786  0.755697012235082  1.0000
  H   H22       1.0  0.9299692748740325  0.025425122481536288  0.2443098112770984  1.0000
  H   H23       1.0  0.908821684453862  0.1333462665150051  0.90155591746494  1.0000
  H   H24       1.0  0.09118389077824657  0.8666524536605281  0.09844915939358861  1.0000
  H   H25       1.0  0.02907006867038568  0.7787615116118332  0.8238523040518617  1.0000
  H   H26       1.0  0.970937446013451  0.22123934642849016  0.17614391479462915  1.0000
  H   H27       1.0  0.8177644803812851  0.8232982049603947  0.002252688501037906  1.0000
  H   H28       1.0  0.18224231087770446  0.1766934527656545  0.9977465044740657  1.0000
  H   H29       1.0  0.4600655668455429  0.8677418332621588  0.022614168932484788  1.0000
  H   H30       1.0  0.5399408363637476  0.1322508528221533  0.9773842376601538  1.0000
  H   H31       1.0  0.3219901165677256  0.865653163774617  0.8637338432745029  1.0000
  H   H32       1.0  0.6780129995825561  0.13434460993975963  0.1362654302742854  1.0000
  C   C1        1.0  0.4533334937846546  0.8171643540392141  0.29512215073126674  1.0000
  C   C2        1.0  0.54666369356336  0.18283442160802113  0.704879344479828  1.0000
  C   C3        1.0  0.546685859169898  0.7195784143644062  0.2202111668511152  1.0000
  C   C4        1.0  0.45330852490673107  0.2804203888314801  0.7797883636475337  1.0000
  C   C5        1.0  0.5554054677783782  0.5812789573327278  0.24534859953384117  1.0000
  C   C6        1.0  0.4445875329376179  0.4187198369922882  0.7546518756835002  1.0000
  C   C7        1.0  0.4667203682146094  0.5507660350148172  0.34879364212824276  1.0000
  C   C8        1.0  0.5332676843900186  0.4492348165883513  0.6512057819903279  1.0000
  C   C9        1.0  0.37518477623978436  0.6546420964517948  0.41982710057705225  1.0000
  C   C10       1.0  0.6248060577061593  0.3453587547769601  0.5801719757640669  1.0000
  C   C11       1.0  0.648438884522882  0.4735262937833228  0.17021910027455087  1.0000
  C   C12       1.0  0.3515579147754407  0.526473510222175  0.8297816085540718  1.0000
  C   C13       1.0  0.7114693070232434  0.49521306383708474  0.06522254221616211  1.0000
  C   C14       1.0  0.2885326961481097  0.504787731545541  0.9347797679949469  1.0000
  C   C15       1.0  0.7991921619756253  0.3896648689989207  0.9902946985111712  1.0000
  C   C16       1.0  0.20081022193540568  0.6103349070835195  0.009707627252446095  1.0000
  C   C17       1.0  0.8602624327210859  0.41530463309732113  0.88563838879697  1.0000
  C   C18       1.0  0.13974133455057097  0.5846951518559821  0.11436299224796193  1.0000
  C   C19       1.0  0.9501911724841035  0.3137038431698045  0.8052842044246804  1.0000
  C   C20       1.0  0.04981715484923643  0.686294912863616  0.19471744133655733  1.0000
  C   C21       1.0  0.025384488764643637  0.3542607984774904  0.7018093272589072  1.0000
  C   C22       1.0  0.9746172586450471  0.645736948249862  0.2981924326684863  1.0000
  C   C23       1.0  0.11379043238949285  0.25666254673260613  0.6252380293035102  1.0000
  C   C24       1.0  0.8862120838095675  0.7433331523362979  0.3747645325588565  1.0000
  C   C25       1.0  0.05681487761039959  0.08312420658184289  0.7435729612519568  1.0000
  C   C26       1.0  0.9431890511893853  0.9168714651256237  0.25643173921157114  1.0000
  C   C27       1.0  0.9676858690549321  0.17314389211681197  0.8245735669620661  1.0000
  C   C28       1.0  0.03231970617717634  0.8268548280587212  0.17543150989645545  1.0000
  C   C29       1.0  0.594152725233158  0.8286340449976207  0.7552802991823101  1.0000
  C   C30       1.0  0.4058471038581217  0.1713688163468134  0.24471984132262758  1.0000
  C   C31       1.0  0.7945929885593727  0.8066122399889226  0.7433346798628409  1.0000
  C   C32       1.0  0.20540593945450072  0.19339674602748858  0.2566644226083668  1.0000
  C   C33       1.0  0.8728704315853689  0.801251038690296  0.8336487026585647  1.0000
  C   C34       1.0  0.12713419139917903  0.1987538695637525  0.16634994035650416  1.0000
  C   C35       1.0  0.7542515861728556  0.8245625648099876  0.9334227591280355  1.0000
  C   C36       1.0  0.24575052004644965  0.17543418979140313  0.06657670386198332  1.0000
  C   C37       1.0  0.5545610190189622  0.8485685020247118  0.945172501414618  1.0000
  C   C38       1.0  0.4454428513006476  0.1514272421473635  0.054826032409224006  1.0000
  C   C39       1.0  0.47695622463910314  0.8478321092506104  0.8567447085591839  1.0000
  C   C40       1.0  0.5230465107715075  0.15216668376394446  0.14325454943709562  1.0000
  C   C41       1.0  0.9339738795831776  0.7864177521728877  0.6379147599638274  1.0000
  C   C42       1.0  0.06601802197717177  0.21359132536032632  0.36207750365138497  1.0000
  C   C43       1.0  0.49468350671006767  0.8399911756286899  0.6640427598217543  1.0000
  C   C44       1.0  0.5053156566397874  0.16000969259296483  0.3359537315271127  1.0000
  N   N1        1.0  0.36877642286706447  0.7863795541539816  0.39383250414820753  1.0000
  N   N2        1.0  0.6312175804698936  0.21362026834208345  0.6061670107979398  1.0000
  N   N3        1.0  0.13059729693255656  0.1226844848795352  0.6451170805612066  1.0000
  N   N4        1.0  0.8694020644955388  0.8773122248058912  0.35488658435605913  1.0000
  O   O1        1.0  0.3389140203037115  0.8048473582018404  0.6794232716551962  1.0000
  O   O2        1.0  0.6610875728878794  0.1951544927132787  0.32057593968356474  1.0000
  O   O3        1.0  0.5639922286724183  0.8913383661254173  0.5752469411678407  1.0000
  O   O4        1.0  0.43600659048787804  0.1086634761060381  0.42475338877832064  1.0000
  O   O5        1.0  0.9606247176101372  0.8980406634369162  0.5891854664393608  1.0000
  O   O6        1.0  0.03937445885537021  0.1019713802928521  0.4108134154855991  1.0000
  O   O7        1.0  0.017376458418219286  0.6678793853996867  0.6095466980443478  1.0000
  O   O8        1.0  0.982604515058341  0.332132814751084  0.39044134032467087  1.0000
