data_image0
_chemical_formula_structural       Zr4H32C56O20
_chemical_formula_sum              "Zr4 H32 C56 O20"
_cell_length_a       7.841256800498331
_cell_length_b       15.596610402782959
_cell_length_c       17.869959964954884
_cell_angle_alpha    115.86566814499872
_cell_angle_beta     101.47960657461823
_cell_angle_gamma    89.99625415739244

_space_group_name_H-M_alt    "P 1"
_space_group_IT_number       1

loop_
  _space_group_symop_operation_xyz
  'x, y, z'

loop_
  _atom_site_type_symbol
  _atom_site_label
  _atom_site_symmetry_multiplicity
  _atom_site_fract_x
  _atom_site_fract_y
  _atom_site_fract_z
  _atom_site_occupancy
  Zr  Zr1       1.0  0.6621310659310139  0.059189469469480095  0.08399131309774079  1.0000
  Zr  Zr2       1.0  0.8378141073268351  0.9751463005351653  0.9159970505527893  1.0000
  Zr  Zr3       1.0  0.3378682288432627  0.9408100395994339  0.9160095710767847  1.0000
  Zr  Zr4       1.0  0.16218623289551456  0.024854183297421204  0.0840033766535839  1.0000
  H   H1        1.0  0.7917750303621318  0.0403033808752085  0.700833446739189  1.0000
  H   H2        1.0  0.7081695700716749  0.3395027112064072  0.29913618423854876  1.0000
  H   H3        1.0  0.2082240124000379  0.9596992323812188  0.2991691034339396  1.0000
  H   H4        1.0  0.2918165836609602  0.6604966619443288  0.7008638414666349  1.0000
  H   H5        1.0  0.7659103466593107  0.05690582693647874  0.5684324807900082  1.0000
  H   H6        1.0  0.7341340112613607  0.4884555438824023  0.4315571410169595  1.0000
  H   H7        1.0  0.23408739371173226  0.9430961130303289  0.43156939708936176  1.0000
  H   H8        1.0  0.26585487227340104  0.5115430632111141  0.5684428372243245  1.0000
  H   H9        1.0  0.2765569007868294  0.915980982902198  0.6680909869513768  1.0000
  H   H10       1.0  0.2234473597506081  0.24798753865082554  0.3319540847217368  1.0000
  H   H11       1.0  0.7234407086472102  0.08401970644492  0.3319089286667917  1.0000
  H   H12       1.0  0.7765445095431502  0.7520094403687239  0.6680464162654544  1.0000
  H   H13       1.0  0.25326561052006713  0.9308332066747768  0.5352471232675312  1.0000
  H   H14       1.0  0.24672698721244757  0.3956805024931426  0.4647454009226805  1.0000
  H   H15       1.0  0.7467306965228389  0.06916680938272889  0.4647521200568788  1.0000
  H   H16       1.0  0.7532650100597422  0.6043160455180329  0.5352553851694212  1.0000
  H   H17       1.0  0.7170285146804645  0.3607399393195577  0.1288658822819712  1.0000
  H   H18       1.0  0.7831997107504804  0.23190592173805397  0.8711156371683728  1.0000
  H   H19       1.0  0.28297443131033617  0.6392624516349557  0.871136448564016  1.0000
  H   H20       1.0  0.2168008874011206  0.7680948211631675  0.12888647835200828  1.0000
  H   H21       1.0  0.7262331336035716  0.5206150827857101  0.13127533812590286  1.0000
  H   H22       1.0  0.7739251562635231  0.38936880706205557  0.8686923599647044  1.0000
  H   H23       1.0  0.2737683820176642  0.47938706588756475  0.8687260353214299  1.0000
  H   H24       1.0  0.22607947408133097  0.6106318430715589  0.13131038038553552  1.0000
  H   H25       1.0  0.6385701695084265  0.7894227725400429  0.11033572262515175  1.0000
  H   H26       1.0  0.861609449040607  0.6792281810137979  0.8897809988196171  1.0000
  H   H27       1.0  0.3614286133521246  0.21057846056237384  0.8896640211297678  1.0000
  H   H28       1.0  0.1383923205651171  0.32077198455733946  0.11021982673331365  1.0000
  H   H29       1.0  0.6316743228105038  0.6305986714073767  0.10917037253408063  1.0000
  H   H30       1.0  0.8684277305019918  0.5215079674124538  0.8908309063395449  1.0000
  H   H31       1.0  0.36832614637646793  0.36940194195953063  0.8908308988292929  1.0000
  H   H32       1.0  0.13157404008992293  0.4784927587013783  0.10917047826549006  1.0000
  C   C1        1.0  0.0074723012232454245  0.995371371629595  0.5400555608628678  1.0000
  C   C2        1.0  0.4925523415294392  0.45534653055528196  0.45993773449411174  1.0000
  C   C3        1.0  0.9925227083594803  0.004630773851744085  0.4599458054282976  1.0000
  C   C4        1.0  0.5074373108621161  0.5446500510306719  0.5400645134286747  1.0000
  C   C5        1.0  0.8791011403531851  0.02570900254128347  0.5889526748952036  1.0000
  C   C6        1.0  0.6209214400671783  0.43677124984250065  0.411033857705675  1.0000
  C   C7        1.0  0.12089517063448343  0.9742932556869802  0.41104880463761617  1.0000
  C   C8        1.0  0.3790688738371486  0.5632275995322544  0.5889670779342637  1.0000
  C   C9        1.0  0.8923522959709372  0.01678422421368003  0.6638696875424442  1.0000
  C   C10       1.0  0.6075970709866282  0.3529617890212791  0.33610509474760863  1.0000
  C   C11       1.0  0.10764817518841593  0.9832175102386032  0.3361327019251378  1.0000
  C   C12       1.0  0.3923957157767645  0.6470365957703236  0.6638946641665412  1.0000
  C   C13       1.0  0.03583851231663711  0.9773314816119979  0.6931309324556594  1.0000
  C   C14       1.0  0.4641764700517327  0.28424496929581267  0.3068903047091353  1.0000
  C   C15       1.0  0.9641614469289834  0.022671976873795005  0.30687031659232383  1.0000
  C   C16       1.0  0.535811370993528  0.7157543446620949  0.6931118076565993  1.0000
  C   C17       1.0  0.16504540684326935  0.9468752968412701  0.6455357929816826  1.0000
  C   C18       1.0  0.33495325738959986  0.3014232307110517  0.354476135282475  1.0000
  C   C19       1.0  0.8349533779896559  0.05312705734652915  0.3544650688774382  1.0000
  C   C20       1.0  0.6650387369240177  0.698571635672053  0.6455229736533211  1.0000
  C   C21       1.0  0.15056410182814522  0.9556884714157334  0.5705338880845899  1.0000
  C   C22       1.0  0.34941029073809904  0.38524759366799793  0.42945262234646003  1.0000
  C   C23       1.0  0.8494297313695113  0.04431144868223667  0.4294659729135191  1.0000
  C   C24       1.0  0.6505763719497039  0.6147483738211649  0.5705468666220169  1.0000
  C   C25       1.0  0.05052908716520926  0.967099478572436  0.7731397548291666  1.0000
  C   C26       1.0  0.44948129251502417  0.19402755550786568  0.22686446171361035  1.0000
  C   C27       1.0  0.9494751562857715  0.03290078295823657  0.22686045305007946  1.0000
  C   C28       1.0  0.550512667674873  0.8059713730390425  0.7731351253372905  1.0000
  C   C29       1.0  0.7501023951915966  0.4680543453940444  0.9999842900200376  1.0000
  C   C30       1.0  0.24990315163670124  0.5319471499689357  1.714920505687976e-05  1.0000
  C   C31       1.0  0.7348375527128252  0.4576897727807676  0.07300789070537653  1.0000
  C   C32       1.0  0.7653641109351524  0.3847083314731847  0.9269606841017007  1.0000
  C   C33       1.0  0.2651614890631535  0.5423122799329717  0.9269941004156477  1.0000
  C   C34       1.0  0.23463909002632719  0.6152926369218862  0.07304165790198884  1.0000
  C   C35       1.0  0.7319776657015139  0.3685066893635422  0.07271077896881199  1.0000
  C   C36       1.0  0.7682952580288569  0.2958180713838984  0.9272851420105325  1.0000
  C   C37       1.0  0.26802397789816007  0.6314950283013585  0.9272908795834167  1.0000
  C   C38       1.0  0.2317078159403749  0.704183888562234  0.07271747394035794  1.0000
  C   C39       1.0  0.7501779914264048  0.28672575987175725  1.692943207794491e-06  1.0000
  C   C40       1.0  0.24982371216442087  0.7132756924082456  1.466669949919648e-06  1.0000
  C   C41       1.0  0.750033183293958  0.562884398853754  0.9999958581833184  1.0000
  C   C42       1.0  0.24996988771670905  0.4371158794643081  5.080611266791067e-06  1.0000
  C   C43       1.0  0.6871509012239088  0.6405935843532262  0.0619679060116738  1.0000
  C   C44       1.0  0.812919049665119  0.5786624430593149  0.9380326340748508  1.0000
  C   C45       1.0  0.31284956894925375  0.35940758955636903  0.938033924403811  1.0000
  C   C46       1.0  0.18708141952185287  0.42133817030758547  0.06196863728852968  1.0000
  C   C47       1.0  0.6882622673584037  0.7298799359194349  0.06243986212185601  1.0000
  C   C48       1.0  0.811919663158278  0.6675198764640983  0.9376523101745775  1.0000
  C   C49       1.0  0.311737943899331  0.2701204183788376  0.937559720927524  1.0000
  C   C50       1.0  0.18808223343969388  0.3324792975559774  0.06234824143115249  1.0000
  C   C51       1.0  0.7501134357118244  0.744318201119647  6.199757186210709e-05  1.0000
  C   C52       1.0  0.2498856031055894  0.2556821699660146  0.9999383163928639  1.0000
  C   C53       1.0  0.7501269184744074  0.19150859686519064  0.9999861010372013  1.0000
  C   C54       1.0  0.24987485408988855  0.808493250334017  1.640167203478718e-05  1.0000
  C   C55       1.0  0.749982172099557  0.8397687769767401  3.8276481092198486e-05  1.0000
  C   C56       1.0  0.25001959651997646  0.16023082805170924  0.9999619900197343  1.0000
  O   O1        1.0  0.40505221288476173  0.007356259019658788  0.051637599368198984  1.0000
  O   O2        1.0  0.09498472892978065  0.9558095952123011  0.9483614189754019  1.0000
  O   O3        1.0  0.594949557707153  0.9926444670941663  0.9483637852368361  1.0000
  O   O4        1.0  0.9050157382848166  0.04418989706923069  0.05163873428377028  1.0000
  O   O5        1.0  0.9280273895366447  0.993418191241588  0.8128308701956397  1.0000
  O   O6        1.0  0.5718916374833185  0.18071425764962612  0.18711751592100967  1.0000
  O   O7        1.0  0.0719756795016409  0.0065809659910910645  0.18716895049474394  1.0000
  O   O8        1.0  0.4281063588445945  0.819286820300434  0.8128849321681669  1.0000
  O   O9        1.0  0.18637371155773494  0.9310950004541211  0.7958254896466882  1.0000
  O   O10       1.0  0.3137576054605944  0.13527971749792303  0.2042132657517186  1.0000
  O   O11       1.0  0.8136293584667413  0.06890471732125289  0.20417489009579978  1.0000
  O   O12       1.0  0.6862338779254812  0.8647174334613793  0.7957852618165758  1.0000
  O   O13       1.0  0.6940044973256291  0.1836286044211093  0.05941347613131138  1.0000
  O   O14       1.0  0.8061901142725599  0.12419008245886685  0.9405659567472284  1.0000
  O   O15       1.0  0.30599467144259745  0.8163724567415613  0.940588241042512  1.0000
  O   O16       1.0  0.193810612843663  0.8758107899766615  0.059437002930152916  1.0000
  O   O17       1.0  0.6923926913314703  0.907057520692085  0.05871290876083882  1.0000
  O   O18       1.0  0.8074691448021625  0.8483724862425319  0.9413313814912526  1.0000
  O   O19       1.0  0.3076090763018797  0.09294152379367655  0.9412867986878908  1.0000
  O   O20       1.0  0.19253236983288957  0.1516291018880551  0.05866943290398299  1.0000
