data_image0
_chemical_formula_structural       Zn2H28C32N4O8
_chemical_formula_sum              "Zn2 H28 C32 N4 O8"
_cell_length_a       8.118755785552676
_cell_length_b       8.97568343439814
_cell_length_c       11.24852233632629
_cell_angle_alpha    91.28831346195679
_cell_angle_beta     106.65576713563954
_cell_angle_gamma    96.60403419768122

_space_group_name_H-M_alt    "P 1"
_space_group_IT_number       1

loop_
  _space_group_symop_operation_xyz
  'x, y, z'

loop_
  _atom_site_type_symbol
  _atom_site_label
  _atom_site_symmetry_multiplicity
  _atom_site_fract_x
  _atom_site_fract_y
  _atom_site_fract_z
  _atom_site_occupancy
  Zn  Zn1       1.0  0.48088113068117627  0.8648020976167246  0.7419903575799223  1.0000
  Zn  Zn2       1.0  0.5191121720051015  0.13519761675214437  0.2580118432998687  1.0000
  H   H1        1.0  0.9498183860329661  0.06147246654021641  0.6120955840297169  1.0000
  H   H2        1.0  0.05016892400318804  0.9385285764669293  0.38788581371967  1.0000
  H   H3        1.0  0.38263240699394174  0.38175609461476523  0.9012762161587984  1.0000
  H   H4        1.0  0.6173751308255929  0.6182437928788858  0.09872368701670807  1.0000
  H   H5        1.0  0.6547021719418638  0.015590004253681402  0.996842559652826  1.0000
  H   H6        1.0  0.3452961382713724  0.9844086361251456  0.0031597918901198033  1.0000
  H   H7        1.0  0.8656275659217629  0.23576423877195657  0.08998607233097293  1.0000
  H   H8        1.0  0.13438203316789554  0.7642322516179906  0.9100177409338455  1.0000
  H   H9        1.0  0.8879732212382764  0.3376102942275168  0.7205238148027104  1.0000
  H   H10       1.0  0.11201968693201543  0.6623861074404902  0.279473773352464  1.0000
  H   H11       1.0  0.6726119020775556  0.1104739281242715  0.6403745616265792  1.0000
  H   H12       1.0  0.3273701379776952  0.8895279592006916  0.3596244055248262  1.0000
  H   H13       1.0  0.07630237153600211  0.4905659729208765  0.8896586128536723  1.0000
  H   H14       1.0  0.9237052130941166  0.5094249255802197  0.11034196349520184  1.0000
  H   H15       1.0  0.1471515517595989  0.4005929851920769  0.029336473631673198  1.0000
  H   H16       1.0  0.8528531259817669  0.5993956246461921  0.9706652041335742  1.0000
  H   H17       1.0  0.8408010889094583  0.7946210884260767  0.8130017138379484  1.0000
  H   H18       1.0  0.15920313028676955  0.20537417178992004  0.18700625697446324  1.0000
  H   H19       1.0  0.0466418695795667  0.6836334939828248  0.716217365147969  1.0000
  H   H20       1.0  0.9533608624844092  0.3163696223779269  0.28378959719599806  1.0000
  H   H21       1.0  0.627575957891075  0.598179054743362  0.37746325726200053  1.0000
  H   H22       1.0  0.37242772067723007  0.40183082482244004  0.6225422984920994  1.0000
  H   H23       1.0  0.4371538853519112  0.7093480592664109  0.4885810097823437  1.0000
  H   H24       1.0  0.5628464130754764  0.2906561500340389  0.5114263506830594  1.0000
  H   H25       1.0  0.09597929469712338  0.6575518196736071  0.5002057524091512  1.0000
  H   H26       1.0  0.9040194141279726  0.34244914783644026  0.4997905189165336  1.0000
  H   H27       1.0  0.9168928728961562  0.5670303732876079  0.37607585888206063  1.0000
  H   H28       1.0  0.08309810681531359  0.4329795608168538  0.6239154349066991  1.0000
  C   C1        1.0  0.19324972868649584  0.9652474605770825  0.6401302268320135  1.0000
  C   C2        1.0  0.8067430096379978  0.03475584410809771  0.3598541622986317  1.0000
  C   C3        1.0  0.028084863748119908  0.010842082374232103  0.5620682292516007  1.0000
  C   C4        1.0  0.9719043673043685  0.9891544516398556  0.43791613168106364  1.0000
  C   C5        1.0  0.4280714667947549  0.6181590848228353  0.8570503313086629  1.0000
  C   C6        1.0  0.5719356387250442  0.38184747601575714  0.14295409290748748  1.0000
  C   C7        1.0  0.4514277039736355  0.49161309005633325  0.9404951818417824  1.0000
  C   C8        1.0  0.5485824339816716  0.5083868393541948  0.059503498111801875  1.0000
  C   C9        1.0  0.70752425122852  0.09031921580415771  0.9380707068334072  1.0000
  C   C10       1.0  0.29247247840924473  0.9096771798375021  0.0619303625084413  1.0000
  C   C11       1.0  0.8279829738184575  0.21442544288681384  0.9896029988556163  1.0000
  C   C12       1.0  0.17202359125135303  0.7855676584345589  0.010400082916284222  1.0000
  C   C13       1.0  0.8977235524944548  0.307422576831364  0.9129845236663526  1.0000
  C   C14       1.0  0.10228018442279559  0.6925683047288586  0.08701434350236777  1.0000
  C   C15       1.0  0.8383711281122573  0.26985461656764204  0.7849063555018316  1.0000
  C   C16       1.0  0.16162418744922746  0.730140669193439  0.21509260653842685  1.0000
  C   C17       1.0  0.7177329157660638  0.14391646517719187  0.7395285183104574  1.0000
  C   C18       1.0  0.28226009328992757  0.856081013929341  0.2604726747605283  1.0000
  C   C19       1.0  0.032611769906225226  0.4401480774504663  0.9652493797942437  1.0000
  C   C20       1.0  0.9673968211615007  0.5598406067467395  0.03474957713486767  1.0000
  C   C21       1.0  0.7985811186531607  0.7479811466953167  0.7171018917445549  1.0000
  C   C22       1.0  0.20142111391324852  0.252018565095682  0.2829075459008763  1.0000
  C   C23       1.0  0.9114243019271913  0.6866952448990987  0.6636688706852352  1.0000
  C   C24       1.0  0.0885798967038554  0.3133090272766736  0.3363366549472956  1.0000
  C   C25       1.0  0.8532389316924734  0.6351067501363091  0.5382876174188522  1.0000
  C   C26       1.0  0.1467640062387758  0.36489753553185983  0.46171586181485924  1.0000
  C   C27       1.0  0.679005131832987  0.6408650891943779  0.47414173348241184  1.0000
  C   C28       1.0  0.3210037338841616  0.3591448627215712  0.5258622618310936  1.0000
  C   C29       1.0  0.5734016867492998  0.7021982094226614  0.534938167152738  1.0000
  C   C30       1.0  0.426603798826939  0.2978060722279352  0.46506763287208486  1.0000
  C   C31       1.0  0.976534410204714  0.5773421514283187  0.47707856480901256  1.0000
  C   C32       1.0  0.0234594838380033  0.42266104789557357  0.5229149587465116  1.0000
  N   N1        1.0  0.6529735886097897  0.05506520977672842  0.8147188498174952  1.0000
  N   N2        1.0  0.3470160066174087  0.9449355995406282  0.18528258878818346  1.0000
  N   N3        1.0  0.6322299505321637  0.7574429585891451  0.6536462679046264  1.0000
  N   N4        1.0  0.3677727946545062  0.24256016925521356  0.34635980843608377  1.0000
  O   O1        1.0  0.2963840284639616  0.9106428111472624  0.5860086707841956  1.0000
  O   O2        1.0  0.7036117382001664  0.08935484767948762  0.4139806670257612  1.0000
  O   O3        1.0  0.22815741173207021  0.9777920310621726  0.7571390177378701  1.0000
  O   O4        1.0  0.7718305192525323  0.022204481993469503  0.2428459548057589  1.0000
  O   O5        1.0  0.5280444826203734  0.7435175077089654  0.8940691403139805  1.0000
  O   O6        1.0  0.4719635374781461  0.2564867584404596  0.10593986650520998  1.0000
  O   O7        1.0  0.31267483450768907  0.5983339954324336  0.7534186683844977  1.0000
  O   O8        1.0  0.6873251366015366  0.4016769790818486  0.246586125095483  1.0000
