data_image0
_chemical_formula_structural       Y2H22C32N4O28
_chemical_formula_sum              "Y2 H22 C32 N4 O28"
_cell_length_a       9.13339878610732
_cell_length_b       10.021721556770904
_cell_length_c       13.228648804131161
_cell_angle_alpha    113.81443242377598
_cell_angle_beta     96.57669424368594
_cell_angle_gamma    111.4872062887748

_space_group_name_H-M_alt    "P 1"
_space_group_IT_number       1

loop_
  _space_group_symop_operation_xyz
  'x, y, z'

loop_
  _atom_site_type_symbol
  _atom_site_label
  _atom_site_symmetry_multiplicity
  _atom_site_fract_x
  _atom_site_fract_y
  _atom_site_fract_z
  _atom_site_occupancy
  Y   Y1        1.0  0.201231431404608  0.4375325901324202  0.46667443339381276  1.0000
  Y   Y2        1.0  0.7987813634887856  0.5624564707558333  0.5333234794706102  1.0000
  H   H1        1.0  0.8838709092943162  0.9608440626746242  0.24983091096563487  1.0000
  H   H2        1.0  0.116116213775264  0.0391512972589325  0.7501684044200801  1.0000
  H   H3        1.0  0.4874705344227478  0.6757636787882928  0.15646716380260986  1.0000
  H   H4        1.0  0.5124914133829748  0.32423916310310824  0.8435331753279558  1.0000
  H   H5        1.0  0.11581472954411247  0.40516976792060416  0.8220839905983086  1.0000
  H   H6        1.0  0.884178230856932  0.5948454695785725  0.17790414754587405  1.0000
  H   H7        1.0  0.5932758845887207  0.7840841407301227  0.8817082917593101  1.0000
  H   H8        1.0  0.40673314267793603  0.21591748636715377  0.11829850264911816  1.0000
  H   H9        1.0  0.7156634141422415  0.27985421495761637  0.6411109375297813  1.0000
  H   H10       1.0  0.28434594220106385  0.7201396452929882  0.35888597530473026  1.0000
  H   H11       1.0  0.1847352789494963  0.04542811666123469  0.5485983503872944  1.0000
  H   H12       1.0  0.8152766685476395  0.9545821200618219  0.4514119211894185  1.0000
  H   H13       1.0  0.4668504373177384  0.8638960378353672  0.692432460618953  1.0000
  H   H14       1.0  0.5331680407515192  0.13610926176087898  0.3075766479150134  1.0000
  H   H15       1.0  0.09875743251200214  0.4219434079993859  0.23637137013802353  1.0000
  H   H16       1.0  0.9012291694774675  0.5780370362431385  0.7636196667953005  1.0000
  H   H17       1.0  0.9903149216508209  0.4933253468321368  0.3125644421054191  1.0000
  H   H18       1.0  0.00969466855826785  0.5066710870601979  0.6874355242456576  1.0000
  H   H19       1.0  0.3824046733031564  0.3276872622031775  0.3053109692463068  1.0000
  H   H20       1.0  0.6176135102985612  0.6723105593106596  0.6946936138058109  1.0000
  H   H21       1.0  0.2121535356393522  0.1711738051449173  0.2595443183416748  1.0000
  H   H22       1.0  0.7878644516506697  0.8288190309806394  0.740457247722546  1.0000
  C   C1        1.0  0.557840078656106  0.7442226968380863  0.026700931054442406  1.0000
  C   C2        1.0  0.4421401154372547  0.2557789100038831  0.9733014346444052  1.0000
  C   C3        1.0  0.4495958597948189  0.6547933032377671  0.06825178089736997  1.0000
  C   C4        1.0  0.5503715358484769  0.34521678712862774  0.9317494785939575  1.0000
  C   C5        1.0  0.2902568383924445  0.5381996740082469  0.9940777610854499  1.0000
  C   C6        1.0  0.7097163038641838  0.46180744576611926  0.005913801210084612  1.0000
  C   C7        1.0  0.2384255960067279  0.5021787363828167  0.8790291635117385  1.0000
  C   C8        1.0  0.7615644080822364  0.4978367198284061  0.12096268272771482  1.0000
  C   C9        1.0  0.3495949681166265  0.5892336154685721  0.8375301008243455  1.0000
  C   C10       1.0  0.6504072772606903  0.410767269865019  0.16246175843378552  1.0000
  C   C11       1.0  0.5072704297555148  0.7123254394766575  0.9120443632835847  1.0000
  C   C12       1.0  0.49272917553692946  0.28766855075073033  0.08795363118973405  1.0000
  C   C13       1.0  0.7259821466334272  0.8803050144834541  0.10416931848227054  1.0000
  C   C14       1.0  0.27398296270629163  0.11968865521194517  0.895840539872829  1.0000
  C   C15       1.0  0.2997265123832591  0.5477863476376044  0.7130930416578567  1.0000
  C   C16       1.0  0.700286123568034  0.4522108076124382  0.2868982027536618  1.0000
  C   C17       1.0  0.6016608199891137  0.1861041281301681  0.6357074071345041  1.0000
  C   C18       1.0  0.3983487731649688  0.8139051389447186  0.3643070028010058  1.0000
  C   C19       1.0  0.44874649828908286  0.17394672488202184  0.5902938226939156  1.0000
  C   C20       1.0  0.5512636578074323  0.8260573489879163  0.4097137591842427  1.0000
  C   C21       1.0  0.30304866444196676  0.0531584399290637  0.5838838529373265  1.0000
  C   C22       1.0  0.6969612289603832  0.9468470246700773  0.41612716123384547  1.0000
  C   C23       1.0  0.30877001313340446  0.9397905325315319  0.6183598889948386  1.0000
  C   C24       1.0  0.6912424439576341  0.06020474257900329  0.3816413831052614  1.0000
  C   C25       1.0  0.46050439733328824  0.9517557849764842  0.6658090468570779  1.0000
  C   C26       1.0  0.5395082272410646  0.0482484398932641  0.33420172804049747  1.0000
  C   C27       1.0  0.604163472038671  0.07696714939991979  0.674904624513431  1.0000
  C   C28       1.0  0.395848611168411  0.9230431682707304  0.32510719208589495  1.0000
  C   C29       1.0  0.4398191654754342  0.28665318612944896  0.5444861929679591  1.0000
  C   C30       1.0  0.5601885742037709  0.7133385970603567  0.45551683351150274  1.0000
  C   C31       1.0  0.14933423640631815  0.8027617006040514  0.5985199017124431  1.0000
  C   C32       1.0  0.8506814859707745  0.19723110594308219  0.40148078886628724  1.0000
  N   N1        1.0  0.17280499794803456  0.44850488931241006  0.03833840966262869  1.0000
  N   N2        1.0  0.8271570521372593  0.5514982396203079  0.9616446069298166  1.0000
  N   N3        1.0  0.764190308606338  0.08786115102355299  0.7210665511920313  1.0000
  N   N4        1.0  0.23582569373185436  0.9121488615397766  0.2789400637765028  1.0000
  O   O1        1.0  0.40606428984543896  0.6099092866633951  0.6698872193487234  1.0000
  O   O2        1.0  0.593954569176482  0.39009159790246867  0.33010695723837113  1.0000
  O   O3        1.0  0.14997165860280853  0.447529707625982  0.6495546149464319  1.0000
  O   O4        1.0  0.850040075131204  0.5524724384600289  0.3504395949658986  1.0000
  O   O5        1.0  0.027695991909865793  0.356895649992417  0.9764592943925127  1.0000
  O   O6        1.0  0.9722634625288579  0.6431242911139066  0.023521818502480578  1.0000
  O   O7        1.0  0.22764627498143133  0.4719784789281859  0.13827150178043013  1.0000
  O   O8        1.0  0.7723164046132638  0.5279975891854957  0.8617019254674149  1.0000
  O   O9        1.0  0.7875117138514299  0.8563607657586018  0.18931339361856922  1.0000
  O   O10       1.0  0.2124721439320965  0.1436370627383639  0.8106865032885154  1.0000
  O   O11       1.0  0.7955746766993738  0.9995172289120189  0.09116010635421656  1.0000
  O   O12       1.0  0.2044038659362926  0.0005130372948727155  0.9088590920516854  1.0000
  O   O13       1.0  0.2986092331822974  0.2745733515639515  0.5091157984800958  1.0000
  O   O14       1.0  0.7013940214783786  0.7254110967555788  0.49088481410307605  1.0000
  O   O15       1.0  0.5738453275350325  0.384623049597323  0.5427125836457166  1.0000
  O   O16       1.0  0.42615851311572317  0.6153635217044949  0.4572826363167267  1.0000
  O   O17       1.0  0.8835368207792343  0.1596221939383682  0.6950447298860924  1.0000
  O   O18       1.0  0.116481010513688  0.8403915697315297  0.3049646113096572  1.0000
  O   O19       1.0  0.7701479139531671  0.02208739966405911  0.7827076767105796  1.0000
  O   O20       1.0  0.22986300717818842  0.9779051858310406  0.2172881728519371  1.0000
  O   O21       1.0  0.13215563126226465  0.6571138713610692  0.5540237430011886  1.0000
  O   O22       1.0  0.867853139090947  0.3428778659072477  0.4459785624540516  1.0000
  O   O23       1.0  0.03037053650547243  0.8342862683604934  0.6224180164580134  1.0000
  O   O24       1.0  0.9696469094172784  0.16571266056596556  0.377584591307958  1.0000
  O   O25       1.0  0.07584251777986846  0.4537607694867915  0.31098068913298255  1.0000
  O   O26       1.0  0.9241602546427856  0.546228259483051  0.6890152153250072  1.0000
  O   O27       1.0  0.2622512329961707  0.2908122683244229  0.2955105047278011  1.0000
  O   O28       1.0  0.7377640822510967  0.7091802953799371  0.7044855507830835  1.0000
