data_image0
_chemical_formula_structural       Ho2H12C12N2O16
_chemical_formula_sum              "Ho2 H12 C12 N2 O16"
_cell_length_a       6.699445437270378
_cell_length_b       7.84513259955594
_cell_length_c       9.173309711714383
_cell_angle_alpha    95.77706581493302
_cell_angle_beta     111.02996091070611
_cell_angle_gamma    94.14015324333253

_space_group_name_H-M_alt    "P 1"
_space_group_IT_number       1

loop_
  _space_group_symop_operation_xyz
  'x, y, z'

loop_
  _atom_site_type_symbol
  _atom_site_label
  _atom_site_symmetry_multiplicity
  _atom_site_fract_x
  _atom_site_fract_y
  _atom_site_fract_z
  _atom_site_occupancy
  Ho  Ho1       1.0  0.3742731381380082  0.7636675274012817  0.2159478652685037  1.0000
  Ho  Ho2       1.0  0.6257284333292006  0.23634192558057524  0.784047461655177  1.0000
  H   H1        1.0  0.754283051805352  0.2643355807807809  0.3828241186840771  1.0000
  H   H2        1.0  0.24571831843191919  0.7356597201910446  0.6171852103156681  1.0000
  H   H3        1.0  0.9644136118438168  0.22799069394552163  0.5566549588483198  1.0000
  H   H4        1.0  0.03558347469194698  0.7720084457582743  0.44335250161169165  1.0000
  H   H5        1.0  0.030563380645894284  0.8367493700404224  0.7711110627383986  1.0000
  H   H6        1.0  0.9694299588105152  0.16324587642844793  0.22889291766158942  1.0000
  H   H7        1.0  0.7847465442225783  0.7138877999442246  0.7406943141450667  1.0000
  H   H8        1.0  0.215242677889627  0.28611257322603484  0.2593068604608035  1.0000
  H   H9        1.0  0.9302297671572148  0.5743104459237076  0.09339808139806396  1.0000
  H   H10       1.0  0.0697726012003628  0.42568097906787733  0.9066024533884727  1.0000
  H   H11       1.0  0.8898283054085354  0.7697135504853422  0.1169787821759556  1.0000
  H   H12       1.0  0.11016793722257032  0.230280399713287  0.8830116653852114  1.0000
  C   C1        1.0  0.8441332538502592  0.4665414802095712  0.5712387245039847  1.0000
  C   C2        1.0  0.1558602519634604  0.5334550542287103  0.4287643186416189  1.0000
  C   C3        1.0  0.9042357327565752  0.3248045351824729  0.4776721783980945  1.0000
  C   C4        1.0  0.0957624176535958  0.6751907424038492  0.522334136975793  1.0000
  C   C5        1.0  0.8835800097992178  0.7680385287911092  0.679781025208875  1.0000
  C   C6        1.0  0.11641046133159703  0.2319592741918798  0.3202202525213664  1.0000
  C   C7        1.0  0.7581137803442458  0.8954477824554345  0.5765513523373824  1.0000
  C   C8        1.0  0.2418905212715856  0.1045578319840672  0.42345089270776265  1.0000
  C   C9        1.0  0.6098562606299466  0.9652315719246192  0.01668699748397271  1.0000
  C   C10       1.0  0.39014479964722426  0.034775267490893214  0.9832894420320882  1.0000
  C   C11       1.0  0.5855468154843136  0.47351245678318327  0.07406689295254408  1.0000
  C   C12       1.0  0.4144641954473727  0.5264829103843454  0.9259492914598934  1.0000
  N   N1        1.0  0.9380519567514937  0.6271061487532352  0.590486082850475  1.0000
  N   N2        1.0  0.061948126893398105  0.3728917144842755  0.4095187720951329  1.0000
  O   O1        1.0  0.7072198567463699  0.4278868442011189  0.6310706608072463  1.0000
  O   O2        1.0  0.29277608137398653  0.5721161397965989  0.3689281101469034  1.0000
  O   O3        1.0  0.7479422511873253  0.039660348272825316  0.6462585468006166  1.0000
  O   O4        1.0  0.2520630203684817  0.9603413842452543  0.353731625833987  1.0000
  O   O5        1.0  0.6753775269403449  0.8505169915769173  0.42883781803780596  1.0000
  O   O6        1.0  0.3246237117887175  0.1494782816693743  0.5711562127077627  1.0000
  O   O7        1.0  0.7217149395888285  0.015030951621795898  0.9408277314892003  1.0000
  O   O8        1.0  0.27828705577922347  0.9849707456284094  0.05915287112489406  1.0000
  O   O9        1.0  0.660075788474721  0.862029730313374  0.1193314724990486  1.0000
  O   O10       1.0  0.3399305187751764  0.1379681341460426  0.8806542768521124  1.0000
  O   O11       1.0  0.7233612827301457  0.382504265013381  0.04931509193355044  1.0000
  O   O12       1.0  0.2766369522210184  0.6174910303965007  0.9507010580323152  1.0000
  O   O13       1.0  0.5789788213272544  0.5273474838590815  0.20601759514342888  1.0000
  O   O14       1.0  0.4210293400892553  0.4726620475800872  0.7940012427510367  1.0000
  O   O15       1.0  0.9971865294851412  0.6931269168576931  0.10501167637765721  1.0000
  O   O16       1.0  0.002814191408646112  0.30687609231629415  0.8949861513530805  1.0000
