data_image0
_chemical_formula_structural       H12Pd2C8O8
_chemical_formula_sum              "H12 Pd2 C8 O8"
_cell_length_a       5.902665563202074
_cell_length_b       7.291458001826847
_cell_length_c       7.843496020782034
_cell_angle_alpha    98.2699050346809
_cell_angle_beta     90.00088810636987
_cell_angle_gamma    90.000621328304

_space_group_name_H-M_alt    "P 1"
_space_group_IT_number       1

loop_
  _space_group_symop_operation_xyz
  'x, y, z'

loop_
  _atom_site_type_symbol
  _atom_site_label
  _atom_site_symmetry_multiplicity
  _atom_site_fract_x
  _atom_site_fract_y
  _atom_site_fract_z
  _atom_site_occupancy
  H   H1        1.0  0.250039894068287  0.4512781096346216  0.13816054315635273  1.0000
  H   H2        1.0  0.7499811123259266  0.5487129831351112  0.8618416759084082  1.0000
  H   H3        1.0  0.09908768513611932  0.38897824888584137  0.31753425142437647  1.0000
  H   H4        1.0  0.4008682929617748  0.3889415492216203  0.3175795334043627  1.0000
  H   H5        1.0  0.9009112975512608  0.6110271047804615  0.682478245585976  1.0000
  H   H6        1.0  0.5991493253485132  0.6110530239764101  0.6824383272773245  1.0000
  H   H7        1.0  0.2500238904432308  0.6568699821746905  0.9245156776915804  1.0000
  H   H8        1.0  0.7499378208476912  0.34312965508674137  0.07549245154901027  1.0000
  H   H9        1.0  0.09848673763607249  0.8484582356786348  0.03785622158407157  1.0000
  H   H10       1.0  0.40147866298961793  0.84848307808263  0.03789072581132298  1.0000
  H   H11       1.0  0.9014665027544665  0.15155285548409134  0.9621312942545398  1.0000
  H   H12       1.0  0.5984762717273711  0.15152733969662788  0.9621120398226634  1.0000
  Pd  Pd1       1.0  0.5000138098273652  0.9999842792981041  0.5000079878389413  1.0000
  Pd  Pd2       1.0  1.78327647475e-05  7.848874993498343e-06  0.4999994539996421  1.0000
  C   C1        1.0  0.2500629052734098  0.6598492119543306  0.35937061508324303  1.0000
  C   C2        1.0  0.7499682662207049  0.3401680106617775  0.6406302406485265  1.0000
  C   C3        1.0  0.2500009918408281  0.4597927362091312  0.2793332212520311  1.0000
  C   C4        1.0  0.7500132380983046  0.5402055759291498  0.720676059358965  1.0000
  C   C5        1.0  0.2500124749823626  0.8931386953097586  0.7973575211342803  1.0000
  C   C6        1.0  0.749947541995816  0.1068549886219969  0.20264111372985374  1.0000
  C   C7        1.0  0.2500018697323867  0.808340072957293  0.9612653132029506  1.0000
  C   C8        1.0  0.7499581472898244  0.1916631254463468  0.038730390875556985  1.0000
  O   O1        1.0  0.44425581682227744  0.7354240318493268  0.3892296830161753  1.0000
  O   O2        1.0  0.0557652312748758  0.7354740967304351  0.3891826705858532  1.0000
  O   O3        1.0  0.5557702720695588  0.2645592274226161  0.6107820059794448  1.0000
  O   O4        1.0  0.9442693282268806  0.2645380237728929  0.6107972861117047  1.0000
  O   O5        1.0  0.44400737155904585  0.9226552444416073  0.7342280621094586  1.0000
  O   O6        1.0  0.0560487489906194  0.9226569472590357  0.7342083928961356  1.0000
  O   O7        1.0  0.5560187169149202  0.077314427232281  0.2657580990342439  1.0000
  O   O8        1.0  0.9439654808119118  0.07736890073259421  0.2657703064543425  1.0000
