data_image0
_chemical_formula_structural       Hg3H8C6S4Cl6
_chemical_formula_sum              "Hg3 H8 C6 S4 Cl6"
_cell_length_a       6.610433740180484
_cell_length_b       7.246936342280603
_cell_length_c       9.919608893476825
_cell_angle_alpha    101.2449339270639
_cell_angle_beta     91.88766096462386
_cell_angle_gamma    91.3780693300786

_space_group_name_H-M_alt    "P 1"
_space_group_IT_number       1

loop_
  _space_group_symop_operation_xyz
  'x, y, z'

loop_
  _atom_site_type_symbol
  _atom_site_label
  _atom_site_symmetry_multiplicity
  _atom_site_fract_x
  _atom_site_fract_y
  _atom_site_fract_z
  _atom_site_occupancy
  Hg  Hg1       1.0  1.8120970964e-06  1.12919534203e-05  5.648699925600001e-06  1.0000
  Hg  Hg2       1.0  0.506893678844321  0.3209866615560556  0.1424425564125258  1.0000
  Hg  Hg3       1.0  0.49310913781862814  0.6790346670978665  0.8575692482906521  1.0000
  H   H1        1.0  0.9884903313992838  0.8297913226747863  0.5223292899271712  1.0000
  H   H2        1.0  0.0115179174891651  0.17020884461410898  0.4776605044109132  1.0000
  H   H3        1.0  0.2323853994672334  0.9454255121810531  0.5646835202501562  1.0000
  H   H4        1.0  0.7676155435788559  0.0545844693638173  0.4353115375397323  1.0000
  H   H5        1.0  0.10601867876948752  0.6528845963141167  0.3008583846348146  1.0000
  H   H6        1.0  0.8939764515689389  0.34707189928679577  0.6991361286679024  1.0000
  H   H7        1.0  0.19952410149319624  0.8900736502414259  0.3100783676715935  1.0000
  H   H8        1.0  0.8004697404163396  0.10989404873821938  0.6899086157501061  1.0000
  C   C1        1.0  0.4346958843720827  0.5663342307383912  0.48863902252927016  1.0000
  C   C2        1.0  0.5653034814023387  0.43367292907489485  0.5113566175011429  1.0000
  C   C3        1.0  0.1520881718185692  0.8165363302685904  0.5099584727262682  1.0000
  C   C4        1.0  0.8479004344627088  0.1834623426391673  0.49004383364695775  1.0000
  C   C5        1.0  0.20423098451753668  0.7670277105917832  0.3593144352566711  1.0000
  C   C6        1.0  0.7957660156865457  0.23294288198461285  0.6406841043216573  1.0000
  S   S1        1.0  0.4644056756721896  0.6909400189641843  0.35595959937334243  1.0000
  S   S2        1.0  0.5355937469500277  0.3090685684308739  0.6440402740873524  1.0000
  S   S3        1.0  0.22467127200076223  0.6209612503509662  0.5894919988775911  1.0000
  S   S4        1.0  0.7753341429018478  0.3790445737893862  0.41050861310012005  1.0000
  Cl  Cl1       1.0  0.7321128114508896  0.9207546611073454  0.13308539754968512  1.0000
  Cl  Cl2       1.0  0.26789463918883166  0.0792709151799542  0.8669250762114161  1.0000
  Cl  Cl3       1.0  0.7709894567540444  0.38301169821654907  0.999433079127158  1.0000
  Cl  Cl4       1.0  0.2290027010162561  0.617009493414109  0.0005674085755700177  1.0000
  Cl  Cl5       1.0  0.21836480805322367  0.2171518653060573  0.2503360132665549  1.0000
  Cl  Cl6       1.0  0.7816464714864965  0.7828441980668686  0.7496724200743972  1.0000
