data_image0
_chemical_formula_structural       Zn2H23C28N7O8
_chemical_formula_sum              "Zn2 H23 C28 N7 O8"
_cell_length_a       9.84625006232815
_cell_length_b       11.195733817666149
_cell_length_c       14.79306013072715
_cell_angle_alpha    88.45803613915555
_cell_angle_beta     76.36925126542546
_cell_angle_gamma    85.60995306977263

_space_group_name_H-M_alt    "P 1"
_space_group_IT_number       1

loop_
  _space_group_symop_operation_xyz
  'x, y, z'

loop_
  _atom_site_type_symbol
  _atom_site_label
  _atom_site_symmetry_multiplicity
  _atom_site_fract_x
  _atom_site_fract_y
  _atom_site_fract_z
  _atom_site_occupancy
  Zn  Zn1       1.0  0.850305523032475  0.5069404359712236  0.4934006899225807  1.0000
  Zn  Zn2       1.0  0.1271147368632128  0.49045464799564087  0.5130737892688799  1.0000
  H   H1        1.0  0.995069775382902  0.4836851611336641  0.9877673782218108  1.0000
  H   H2        1.0  0.836702959657977  0.16759719602529793  0.42216716771203977  1.0000
  H   H3        1.0  0.6630414221684474  0.6894317409305585  0.5875271704903398  1.0000
  H   H4        1.0  0.48006877769449824  0.7198728796521789  0.6267468938992806  1.0000
  H   H5        1.0  0.35598772448018684  0.4651213759401855  0.36659073159631106  1.0000
  H   H6        1.0  0.5145896950390566  0.5018803891942338  0.38858573824283127  1.0000
  H   H7        1.0  0.6709638604388815  0.5410779319136266  0.7756129685310711  1.0000
  H   H8        1.0  0.08322784774535562  0.4573727011331598  0.8165449032742271  1.0000
  H   H9        1.0  0.8081419520785288  0.5498295171025731  0.11941646865507484  1.0000
  H   H10       1.0  0.03467258008532782  0.6929500539429583  0.033338110132198985  1.0000
  H   H11       1.0  0.9347148103020115  0.6499166567466047  0.20178955093977896  1.0000
  H   H12       1.0  0.16839428919616492  0.8720321465964315  0.5219317996272963  1.0000
  H   H13       1.0  0.34397332760771343  0.5357580412241134  0.23570238439876318  1.0000
  H   H14       1.0  0.4822280052045683  0.6157037893595784  0.8294755431409654  1.0000
  H   H15       1.0  0.4705689376130024  0.6758590808546713  0.2295336510905841  1.0000
  H   H16       1.0  0.6377217917505574  0.6425026301060368  0.23443268753419486  1.0000
  H   H17       1.0  0.6149612907986038  0.4213611937828857  0.4817190989977077  1.0000
  H   H18       1.0  0.3157579805785744  0.5591693103215645  0.6275196905392448  1.0000
  H   H19       1.0  0.23432671661312549  0.6753244316704112  0.8967360910593312  1.0000
  H   H20       1.0  0.8503296166409982  0.9080673241417967  0.5384886969124378  1.0000
  H   H21       1.0  0.2013072753187473  0.18025412849149086  0.5519802450373203  1.0000
  H   H22       1.0  0.2264568865852397  0.04292924877523769  0.6012954511121932  1.0000
  H   H23       1.0  0.8856847666358688  0.018478376990195493  0.4309827845038257  1.0000
  C   C1        1.0  0.999220778749823  0.2668996571718836  0.48874378694443277  1.0000
  C   C2        1.0  0.781043332592155  0.5331171252825299  0.9799563082694077  1.0000
  C   C3        1.0  0.6860406639908092  0.5511484214811587  0.9202470131751779  1.0000
  C   C4        1.0  0.0754043161510651  0.5448195810075092  0.3248437899812585  1.0000
  C   C5        1.0  0.9241845768904465  0.4979030456756702  0.9412072789908237  1.0000
  C   C6        1.0  0.9731941169535927  0.4828822896753448  0.8468301426934984  1.0000
  C   C7        1.0  0.73892465312624  0.5316769865043938  0.8241344770045556  1.0000
  C   C8        1.0  0.0700753545047732  0.9263110127571677  0.5243887884757825  1.0000
  C   C9        1.0  0.9553560735198445  0.8643296677380408  0.5287161276695613  1.0000
  C   C10       1.0  0.08129804792405788  0.054258543173517595  0.5229777707551476  1.0000
  C   C11       1.0  0.9882426971231052  0.1354762633898758  0.49108060990175767  1.0000
  C   C12       1.0  0.34100735077675637  0.6067507115942944  0.09869098791808283  1.0000
  C   C13       1.0  0.5401895631511876  0.5657454912743843  0.553045663324738  1.0000
  C   C14       1.0  0.39315834199864236  0.5395992450211791  0.562630214543141  1.0000
  C   C15       1.0  0.9644397990802814  0.7330301529405927  0.5232209938380804  1.0000
  C   C16       1.0  0.9333220316001983  0.486266303276679  0.6847613288362522  1.0000
  C   C17       1.0  0.1348128249745386  0.5870231338100138  0.22755098945801674  1.0000
  C   C18       1.0  0.8797243433202978  0.49921171577900464  0.7873268274181198  1.0000
  C   C19       1.0  0.1028234413389981  0.6612159140254332  0.07874673898979978  1.0000
  C   C20       1.0  0.04667256165742369  0.6360810930703806  0.171249367566638  1.0000
  C   C21       1.0  0.2787432852650653  0.5757834893888542  0.19161909049998366  1.0000
  C   C22       1.0  0.2485872834885754  0.6417308599396917  0.039494053076055  1.0000
  C   C23       1.0  0.49099964684432945  0.5928134023293976  0.05988124548819232  1.0000
  C   C24       1.0  0.5403502984462207  0.5857586196018332  0.9616147543775423  1.0000
  C   C25       1.0  0.4433689015536828  0.6159487353154843  0.9047832764607688  1.0000
  C   C26       1.0  0.305000791111567  0.6488607781923079  0.9417652042585087  1.0000
  C   C27       1.0  0.593171458418837  0.5879254659817048  0.11619145080709356  1.0000
  C   C28       1.0  0.7320550199470829  0.555700186068435  0.07608799674238743  1.0000
  N   N1        1.0  0.6447100948749025  0.49948497586773744  0.5023104274616441  1.0000
  N   N2        1.0  0.34379867765912303  0.4971958974081686  0.4969918930202581  1.0000
  N   N3        1.0  0.2014971669349777  0.08935632694123538  0.5468693396443384  1.0000
  N   N4        1.0  0.8740697277121254  0.10109872100786527  0.46000958567500316  1.0000
  N   N5        1.0  0.5623800125483172  0.6622541092320943  0.5985381890049196  1.0000
  N   N6        1.0  0.419704541049164  0.46656406093781294  0.4122643906790842  1.0000
  N   N7        1.0  0.5554641212997639  0.6163017621619672  0.21108516197666916  1.0000
  O   O1        1.0  0.902447650245449  0.33041672173007436  0.461208512239942  1.0000
  O   O2        1.0  0.1014134327211735  0.310152632694674  0.5139783839824686  1.0000
  O   O3        1.0  0.944108137363834  0.5616827547696628  0.35786774817530886  1.0000
  O   O4        1.0  0.16200155628835228  0.493680112782762  0.36865554083514945  1.0000
  O   O5        1.0  0.8472164573026358  0.6843183627218608  0.532300089550553  1.0000
  O   O6        1.0  0.08382723635536138  0.6747083100314695  0.5075172636424339  1.0000
  O   O7        1.0  0.8464040464636113  0.4705076510066846  0.6355681575597811  1.0000
  O   O8        1.0  0.065441467594809  0.4944390807014257  0.6531543773826697  1.0000
