data_image0
_chemical_formula_structural       Bi4H20C24Br8
_chemical_formula_sum              "Bi4 H20 C24 Br8"
_cell_length_a       7.818690458653463
_cell_length_b       8.795758769975619
_cell_length_c       13.071507973279683
_cell_angle_alpha    109.67113763618606
_cell_angle_beta     89.99772777639164
_cell_angle_gamma    90.00070616150965

_space_group_name_H-M_alt    "P 1"
_space_group_IT_number       1

loop_
  _space_group_symop_operation_xyz
  'x, y, z'

loop_
  _atom_site_type_symbol
  _atom_site_label
  _atom_site_symmetry_multiplicity
  _atom_site_fract_x
  _atom_site_fract_y
  _atom_site_fract_z
  _atom_site_occupancy
  Bi  Bi1       1.0  0.750028628349739  0.19372170251292434  0.15735813697369852  1.0000
  Bi  Bi2       1.0  0.24999649487366335  0.8062774049605395  0.8426348307666844  1.0000
  Bi  Bi3       1.0  0.25000675295611796  0.9637073165966045  0.15749305453790907  1.0000
  Bi  Bi4       1.0  0.7499863953830116  0.036289400641841496  0.8425062608138421  1.0000
  H   H1        1.0  0.7499994776066291  0.4420694801295966  0.40555070492295914  1.0000
  H   H2        1.0  0.24999750796067136  0.5579199629707007  0.5944385578208442  1.0000
  H   H3        1.0  0.250003934316574  0.9632372274528437  0.40558112109600597  1.0000
  H   H4        1.0  0.7499943296758506  0.036766766633476805  0.5944290123882398  1.0000
  H   H5        1.0  0.7500113413329006  0.736009030989578  0.501365594923989  1.0000
  H   H6        1.0  0.24999587585738686  0.2639744051579029  0.498630730897638  1.0000
  H   H7        1.0  0.24999559902455817  0.765118428130009  0.5012351785263363  1.0000
  H   H8        1.0  0.7499962702799081  0.2348891608831352  0.49876811394978665  1.0000
  H   H9        1.0  0.7500097048566803  0.9262050553732097  0.3957730876002189  1.0000
  H   H10       1.0  0.24999623327430953  0.0737868405270063  0.6042274374635427  1.0000
  H   H11       1.0  0.24999554373643218  0.4693793965263709  0.395703374949136  1.0000
  H   H12       1.0  0.7500014413436987  0.5306366631094052  0.6043071792356686  1.0000
  H   H13       1.0  0.7499961770281447  0.8180021218922846  0.19421571785290584  1.0000
  H   H14       1.0  0.24999952945584172  0.1820018205327045  0.8057798685669368  1.0000
  H   H15       1.0  0.24999491934628545  0.37588180473375843  0.19393758976902833  1.0000
  H   H16       1.0  0.7500033448908853  0.6241245769020909  0.8060654308675697  1.0000
  H   H17       1.0  0.7499894783088837  0.5247151387868739  0.09701460083307721  1.0000
  H   H18       1.0  0.250001112277424  0.47528396872294826  0.9029783673397134  1.0000
  H   H19       1.0  0.25000967872342983  0.5720196735217018  0.09692115756701015  1.0000
  H   H20       1.0  0.7499962593840908  0.42798550617381903  0.9030831224873597  1.0000
  C   C1        1.0  0.7500086100144331  0.4631085333808542  0.24469284990443904  1.0000
  C   C2        1.0  0.25000372346556793  0.5368893531397205  0.7552960180533719  1.0000
  C   C3        1.0  0.25001415192156173  0.7812994561183331  0.24463272050650897  1.0000
  C   C4        1.0  0.749981554269212  0.21870814104824632  0.7553728688315363  1.0000
  C   C5        1.0  0.7500079722811891  0.5235008336642295  0.3583888791218968  1.0000
  C   C6        1.0  0.25000052404276124  0.4764874156491886  0.641603939901593  1.0000
  C   C7        1.0  0.25000578931409484  0.8346475266217367  0.3583206891702845  1.0000
  C   C8        1.0  0.749986079966007  0.16536127248112112  0.6416836407019418  1.0000
  C   C9        1.0  0.7500100020357935  0.6899329788706794  0.41276014868424943  1.0000
  C   C10       1.0  0.24999721515476384  0.31005407938847906  0.5872369924157256  1.0000
  C   C11       1.0  0.2499968428607318  0.7225735815306963  0.41264575405183745  1.0000
  C   C12       1.0  0.7499924684706091  0.2774340074851338  0.5873575384563169  1.0000
  C   C13       1.0  0.7500088188512354  0.7960769757435245  0.3538880107935328  1.0000
  C   C14       1.0  0.24999584046466353  0.2039185232356076  0.6461079701080125  1.0000
  C   C15       1.0  0.2499949671193705  0.557540570322175  0.35377510685933095  1.0000
  C   C16       1.0  0.7500007390959454  0.44246823149580194  0.6462299886015119  1.0000
  C   C17       1.0  0.7500043269653532  0.7356668775464856  0.24061562437867695  1.0000
  C   C18       1.0  0.24999649531776677  0.2643322517058381  0.759383468759225  1.0000
  C   C19       1.0  0.2499969248951359  0.5046053171646891  0.2404906567298611  1.0000
  C   C20       1.0  0.7500000603064693  0.4953998625402678  0.7595136234366109  1.0000
  C   C21       1.0  0.7500048768923976  0.5694363660677553  0.18561116241905046  1.0000
  C   C22       1.0  0.2500036194569121  0.43056395423209187  0.8143836085622881  1.0000
  C   C23       1.0  0.2500084441310976  0.615866255988692  0.1855174623797922  1.0000
  C   C24       1.0  0.749992378005729  0.3841389264313833  0.8144875833752893  1.0000
  Br  Br1       1.0  0.5000583236416248  0.1541515481198701  0.31013108759275104  1.0000
  Br  Br2       1.0  5.827595351350002e-05  0.8458469001529992  0.6898739932281047  1.0000
  Br  Br3       1.0  0.4999284300839052  0.8458620369640715  0.6898620791948675  1.0000
  Br  Br4       1.0  0.9999208032632727  0.15413415119374457  0.310130211430149  1.0000
  Br  Br5       1.0  0.49867341098681106  0.22822315794108758  0.9999049705424596  1.0000
  Br  Br6       1.0  0.9986856352128375  0.7717851418936093  0.00010002213515748541  1.0000
  Br  Br7       1.0  0.5013286901858438  0.7717868485215577  9.963096110251948e-05  1.0000
  Br  Br8       1.0  0.0013292557255227  0.22819710590934514  0.9999013912875088  1.0000
