data_image0
_chemical_formula_structural       Cd10H20C8S4N40O20
_chemical_formula_sum              "Cd10 H20 C8 S4 N40 O20"
_cell_length_a       8.868751442905774
_cell_length_b       9.648533709
_cell_length_c       13.3436
_cell_angle_alpha    90.0
_cell_angle_beta     102.94517979318371
_cell_angle_gamma    90.0

_space_group_name_H-M_alt    "P 1"
_space_group_IT_number       1

loop_
  _space_group_symop_operation_xyz
  'x, y, z'

loop_
  _atom_site_type_symbol
  _atom_site_label
  _atom_site_symmetry_multiplicity
  _atom_site_fract_x
  _atom_site_fract_y
  _atom_site_fract_z
  _atom_site_occupancy
  Cd  Cd1       1.0  0.3902363885057696  0.6094584086403569  0.09448637463998472  1.0000
  Cd  Cd2       1.0  0.6097646761276323  0.1094580826322726  0.40551348410708943  1.0000
  Cd  Cd3       1.0  0.6097646761276323  0.3905422433758118  0.9055142335300346  1.0000
  Cd  Cd4       1.0  0.3902363885057696  0.8905415329569877  0.5944863746399847  1.0000
  Cd  Cd5       1.0  0.9999987507159815  0.5000013624350003  1.0130673117909007e-06  1.0000
  Cd  Cd6       1.0  0.9999987507159815  0.9999985791623444  0.5000002636443668  1.0000
  Cd  Cd7       1.0  0.7576517664324454  0.7403860747604085  0.8044798082517418  1.0000
  Cd  Cd8       1.0  0.24234814124224607  0.2403836758984994  0.695520627655455  1.0000
  Cd  Cd9       1.0  0.24234814124224607  0.2596166501095851  0.1955206276554549  1.0000
  Cd  Cd10      1.0  0.7576517664324454  0.7596149032638451  0.30447980825174165  1.0000
  H   H1        1.0  0.8398583107004853  0.4650447555377894  0.8015432069694199  1.0000
  H   H2        1.0  0.1601415969742064  0.9650430086920493  0.6984579783607148  1.0000
  H   H3        1.0  0.1601415969742064  0.5349579693322113  0.1984579783607145  1.0000
  H   H4        1.0  0.8398594676592025  0.0349555704702951  0.3015426298093047  1.0000
  H   H5        1.0  0.3813995378693633  0.014861325495111497  0.8816969659053484  1.0000
  H   H6        1.0  0.6185992128466182  0.5148606150762872  0.6183017988931354  1.0000
  H   H7        1.0  0.6185992128466182  0.9851382900941487  0.11830254831608042  1.0000
  H   H8        1.0  0.3813995378693633  0.485139000512973  0.3816969659053485  1.0000
  H   H9        1.0  0.5014548294167227  0.8754211007338027  0.9332281697308817  1.0000
  H   H10       1.0  0.4985439212992588  0.3754197382988096  0.5667713444905473  1.0000
  H   H11       1.0  0.4985439212992588  0.12458058770927488  0.0667720939134924  1.0000
  H   H12       1.0  0.50145714333415  0.6245798772904507  0.4332285142565269  1.0000
  H   H13       1.0  0.0287758770658186  0.5200406767838359  0.6173739421276565  1.0000
  H   H14       1.0  0.9712263445263006  0.020042423629576  0.8826253394593025  1.0000
  H   H15       1.0  0.9712263445263006  0.4799568659515998  0.3826253394593024  1.0000
  H   H16       1.0  0.0287747201071085  0.9799592648135087  0.1173737698648267  1.0000
  H   H17       1.0  0.0520261193267828  0.6904966289111414  0.5961310084977356  1.0000
  H   H18       1.0  0.9479761022653364  0.19049837575688133  0.9038690225121613  1.0000
  H   H19       1.0  0.9479761022653364  0.3095009138242942  0.40386827308921625  1.0000
  H   H20       1.0  0.0520249623680726  0.8095022762592874  0.09613008681196791  1.0000
  C   C1        1.0  0.2663249535738643  0.836736466233141  0.8955825536371124  1.0000
  C   C2        1.0  0.7336737971421172  0.3367351037981408  0.6044177100072617  1.0000
  C   C3        1.0  0.7336749541008274  0.16326418578302784  0.10441788227008432  1.0000
  C   C4        1.0  0.2663249535738643  0.6632655482180283  0.3955825536371123  1.0000
  C   C5        1.0  0.24516417874539087  0.5899435263091348  0.6728292106140259  1.0000
  C   C6        1.0  0.7548345719705906  0.0899463095817836  0.8271718024532932  1.0000
  C   C7        1.0  0.7548345719705906  0.4100540164263008  0.327171802453293  1.0000
  C   C8        1.0  0.2451664926628112  0.9100543424343854  0.17282880571672624  1.0000
  S   S1        1.0  0.7288631628208009  0.7199259710851889  0.0496635503570886  1.0000
  S   S2        1.0  0.2711367448538908  0.21992149936945538  0.450336885550108  1.0000
  S   S3        1.0  0.2711355878951807  0.2800788266386292  0.9503359638643332  1.0000
  S   S4        1.0  0.7288643197795182  0.7800750069390645  0.5496637226199113  1.0000
  N   N1        1.0  0.2572705946997473  0.7169006409282586  0.9472913209590531  1.0000
  N   N2        1.0  0.7427304699336617  0.21689927849325838  0.5527085377880212  1.0000
  N   N3        1.0  0.7427293129749444  0.2831000110879102  0.05270986437108152  1.0000
  N   N4        1.0  0.2572717516584575  0.7831003370959948  0.4472914932218829  1.0000
  N   N5        1.0  0.1088327920483891  0.6763359280087258  0.917955820837463  1.0000
  N   N6        1.0  0.8911671156263097  0.1763345655737325  0.5820446150697265  1.0000
  N   N7        1.0  0.8911671156263097  0.3236647240074432  0.08204611391561657  1.0000
  N   N8        1.0  0.1088327920483891  0.8236650500155277  0.4179550714145179  1.0000
  N   N9        1.0  0.0313963885467672  0.7657660969882016  0.8525043674336389  1.0000
  N   N10       1.0  0.9686023621692215  0.2657657709801171  0.6474966456336732  1.0000
  N   N11       1.0  0.9686023621692215  0.2342335186010587  0.14749739505661813  1.0000
  N   N12       1.0  0.0313975455054774  0.7342338446091431  0.3525045396964615  1.0000
  N   N13       1.0  0.1254744861507788  0.8682272615357006  0.8350346565358535  1.0000
  N   N14       1.0  0.8745242645652027  0.3682258991007075  0.6649648576855682  1.0000
  N   N15       1.0  0.8745254215239128  0.1317733904804683  0.16496502994839088  1.0000
  N   N16       1.0  0.1254744861507788  0.6317737164885529  0.33503465653585357  1.0000
  N   N17       1.0  0.3942475643576202  0.9127107046105464  0.9010542624515524  1.0000
  N   N18       1.0  0.6057523433170715  0.4127093421755461  0.5989424263409191  1.0000
  N   N19       1.0  0.6057523433170715  0.08729098383253839  0.09894467460975417  1.0000
  N   N20       1.0  0.39424640739891  0.5872913098406229  0.40105409018872973  1.0000
  N   N21       1.0  0.3521967430391015  0.6930586762382873  0.6904098230148392  1.0000
  N   N22       1.0  0.6478066355117278  0.1930604230840203  0.8095911296808254  1.0000
  N   N23       1.0  0.6478054785530176  0.3069399029240643  0.30958945857211273  1.0000
  N   N24       1.0  0.3521944291216741  0.8069402289321486  0.1904094784891868  1.0000
  N   N25       1.0  0.47395276389197244  0.6425121357266333  0.7603685090160539  1.0000
  N   N26       1.0  0.5260471437827192  0.1425128461454577  0.7396319268911427  1.0000
  N   N27       1.0  0.5260494577001467  0.35748644343571095  0.23963152199384302  1.0000
  N   N28       1.0  0.47395160693326227  0.8574878058707114  0.2603690861761692  1.0000
  N   N29       1.0  0.4437758098268532  0.5155716039381061  0.7823127709603455  1.0000
  N   N30       1.0  0.5562252548065558  0.0155723143569304  0.717687087786729  1.0000
  N   N31       1.0  0.5562252548065558  0.4844280116511541  0.21768708778672874  1.0000
  N   N32       1.0  0.4437746528681359  0.9844283376592387  0.2823125986975228  1.0000
  N   N33       1.0  0.3020286994025554  0.47743627570094554  0.7295370328095317  1.0000
  N   N34       1.0  0.6979723652308465  0.9774386745628547  0.7704620765146046  1.0000
  N   N35       1.0  0.6979723652308465  0.52256126703449  0.2704620765146047  1.0000
  N   N36       1.0  0.3020298563612656  0.022561977453314293  0.22953795449529932  1.0000
  N   N37       1.0  0.1046214623394945  0.595771354836856  0.6075443181934688  1.0000
  N   N38       1.0  0.8953807592526245  0.0957720652556802  0.8924549633934831  1.0000
  N   N39       1.0  0.8953807592526245  0.4042272243254884  0.3924549633934831  1.0000
  N   N40       1.0  0.1046214623394945  0.9042296231873974  0.1075443181934688  1.0000
  O   O1        1.0  0.6195386633201423  0.6016934982135922  0.020251532717551902  1.0000
  O   O2        1.0  0.3804635582719769  0.1016910993516831  0.47974924771529004  1.0000
  O   O3        1.0  0.3804624013132667  0.3983102630833101  0.9797490754524676  1.0000
  O   O4        1.0  0.6195386633201423  0.8983064433837454  0.5202507832946068  1.0000
  O   O5        1.0  0.7182110439664696  0.8159105038578858  0.9608656796499491  1.0000
  O   O6        1.0  0.2817877067495118  0.3159081049959767  0.5391345839944179  1.0000
  O   O7        1.0  0.2817877067495118  0.1840932574390166  0.0391345839944179  1.0000
  O   O8        1.0  0.7182110439664696  0.6840904741663678  0.46086567964994885  1.0000
  O   O9        1.0  0.8898053752231831  0.6696043352134993  0.087213725389752  1.0000
  O   O10       1.0  0.1101945324515086  0.16959986349776557  0.41278596109449944  1.0000
  O   O11       1.0  0.1101922185340882  0.33040046251031896  0.9127856165688472  1.0000
  O   O12       1.0  0.8898065321818933  0.8303966428107543  0.5872138976525747  1.0000
  O   O13       1.0  0.6805844327597086  0.8007299588737951  0.1329155558572097  1.0000
  O   O14       1.0  0.319414317956273  0.3007285964387947  0.3670854572101021  1.0000
  O   O15       1.0  0.3194154749149902  0.19927172956928974  0.8670841306270419  1.0000
  O   O16       1.0  0.6805832758009984  0.6992699827235498  0.6329146341714421  1.0000
  O   O17       1.0  0.804058537298765  0.5139288672821465  0.8568404451508516  1.0000
  O   O18       1.0  0.1959402134172166  0.0139254319933286  0.6431598184935154  1.0000
  O   O19       1.0  0.1959402134172166  0.4860759304416716  0.14315906907057044  1.0000
  O   O20       1.0  0.804058537298765  0.986071074315191  0.3568396957279063  1.0000
