data_image0
_chemical_formula_structural       Zn4H16C4S4N4O12
_chemical_formula_sum              "Zn4 H16 C4 S4 N4 O12"
_cell_length_a       4.837319684834883
_cell_length_b       6.231583764168398
_cell_length_c       15.216036791006138
_cell_angle_alpha    90.00005309468958
_cell_angle_beta     90.00008087699095
_cell_angle_gamma    91.21349573111026

_space_group_name_H-M_alt    "P 1"
_space_group_IT_number       1

loop_
  _space_group_symop_operation_xyz
  'x, y, z'

loop_
  _atom_site_type_symbol
  _atom_site_label
  _atom_site_symmetry_multiplicity
  _atom_site_fract_x
  _atom_site_fract_y
  _atom_site_fract_z
  _atom_site_occupancy
  Zn  Zn1       1.0  0.4887743589321262  0.82750094113176  0.8045086738485169  1.0000
  Zn  Zn2       1.0  0.011227295793950992  0.6724982117791568  0.3045077780888974  1.0000
  Zn  Zn3       1.0  0.5112199405698235  0.1725042865095858  0.1954925729933521  1.0000
  Zn  Zn4       1.0  0.9887708290311398  0.32749577965246596  0.6954908399467712  1.0000
  H   H1        1.0  0.39488372145628853  0.44586775710003934  0.8537763524774037  1.0000
  H   H2        1.0  0.10511594970358114  0.05413345084966179  0.35377480778067394  1.0000
  H   H3        1.0  0.6051189353944791  0.5541406795463287  0.14622620876958342  1.0000
  H   H4        1.0  0.8948843748765681  0.9458653555529538  0.6462231530548621  1.0000
  H   H5        1.0  0.7251405315642075  0.5003154715836048  0.8688946966975024  1.0000
  H   H6        1.0  0.7748654707343832  0.9996783531220784  0.3688913906525997  1.0000
  H   H7        1.0  0.274876242712743  0.49968012230302605  0.1311091789535439  1.0000
  H   H8        1.0  0.22513683276223156  0.00031724281020470007  0.631106570182915  1.0000
  H   H9        1.0  0.2551457253318006  0.6435327103829634  0.977644346538348  1.0000
  H   H10       1.0  0.24485259959226366  0.8564685385310398  0.47764295584215694  1.0000
  H   H11       1.0  0.7448526203419802  0.3564693064964857  0.022358214706685003  1.0000
  H   H12       1.0  0.7551517269859289  0.1435254520175064  0.5223536905908759  1.0000
  H   H13       1.0  0.5970264969091444  0.7368862741382572  0.9950813055817207  1.0000
  H   H14       1.0  0.9029760135239967  0.7631111186985892  0.4950786457871104  1.0000
  H   H15       1.0  0.40296982568305845  0.26311734812493637  0.0049225700658013  1.0000
  H   H16       1.0  0.09702633413629512  0.2368860823193514  0.5049173434445821  1.0000
  C   C1        1.0  0.47313282055969097  0.5985575032456366  0.9718307869755378  1.0000
  C   C2        1.0  0.026869569163814295  0.9014421235286534  0.4718293090292606  1.0000
  C   C3        1.0  0.5268552771862716  0.40144772527693834  0.028171117066257505  1.0000
  C   C4        1.0  0.9731307112468811  0.09855507778457448  0.5281679946046722  1.0000
  S   S1        1.0  0.48919253889961567  0.5931455630004193  0.6248186163065911  1.0000
  S   S2        1.0  0.010802257247064498  0.9068578971663613  0.12481844695525982  1.0000
  S   S3        1.0  0.510809941273351  0.4068564532884408  0.3751813161339824  1.0000
  S   S4        1.0  0.9891899308286299  0.09314572567625129  0.8751801710804585  1.0000
  N   N1        1.0  0.5312930713056403  0.5615259997661396  0.8777097028219671  1.0000
  N   N2        1.0  0.9687069446324088  0.938474271140109  0.37770778248533793  1.0000
  N   N3        1.0  0.46872194489198893  0.438480830031196  0.12229285842762751  1.0000
  N   N4        1.0  0.03129747028324199  0.061522929586260496  0.6222895211495472  1.0000
  O   O1        1.0  0.551349746127265  0.807355964339777  0.6764076543438904  1.0000
  O   O2        1.0  0.9486453393815991  0.6926469472349834  0.17640696635712774  1.0000
  O   O3        1.0  0.44865062262665834  0.19264444715499715  0.32359293529731303  1.0000
  O   O4        1.0  0.051352962116958195  0.3073534645513688  0.8235923088808903  1.0000
  O   O5        1.0  0.17327232400570838  0.564619726618929  0.6296923444573537  1.0000
  O   O6        1.0  0.3267204263049522  0.9353837476487855  0.1296956153113129  1.0000
  O   O7        1.0  0.8267300678298  0.43537907949210813  0.3703069307813678  1.0000
  O   O8        1.0  0.6732717617750696  0.0646198751966125  0.8703049743284765  1.0000
  O   O9        1.0  0.5917447288499745  0.41094481530171123  0.6845963338524541  1.0000
  O   O10       1.0  0.9082502157343768  0.08905842959591583  0.1845975681570593  1.0000
  O   O11       1.0  0.4082535726485829  0.5890555964846412  0.31540294138555686  1.0000
  O   O12       1.0  0.0917460185145913  0.9109419824857311  0.815403021483192  1.0000
