data_image0
_chemical_formula_structural       Zn2H36C38N6O21
_chemical_formula_sum              "Zn2 H36 C38 N6 O21"
_cell_length_a       11.086233885653991
_cell_length_b       15.953052513270004
_cell_length_c       17.034276258330696
_cell_angle_alpha    86.56141006102533
_cell_angle_beta     88.34034804649387
_cell_angle_gamma    88.29047126813408

_space_group_name_H-M_alt    "P 1"
_space_group_IT_number       1

loop_
  _space_group_symop_operation_xyz
  'x, y, z'

loop_
  _atom_site_type_symbol
  _atom_site_label
  _atom_site_symmetry_multiplicity
  _atom_site_fract_x
  _atom_site_fract_y
  _atom_site_fract_z
  _atom_site_occupancy
  Zn  Zn1       1.0  0.48761636626553445  0.4153926784095249  0.5000659093683384  1.0000
  Zn  Zn2       1.0  0.5009945826444735  0.5940386414391483  0.503532874985382  1.0000
  H   H1        1.0  0.09686415676451791  0.6151709765737151  0.4182956348805576  1.0000
  H   H2        1.0  0.6579093814951023  0.5823774851949964  0.8842044689449227  1.0000
  H   H3        1.0  0.6298671917349096  0.5903179604516426  0.7373660877191599  1.0000
  H   H4        1.0  0.5923059496913367  0.2704089526318469  0.5891165050144809  1.0000
  H   H5        1.0  0.3548733225397456  0.1359158477311198  0.39406163940503813  1.0000
  H   H6        1.0  0.3634428907739888  0.7399245516831242  0.44688551900734574  1.0000
  H   H7        1.0  0.5098642948428704  0.6573979121222635  0.25606551252360543  1.0000
  H   H8        1.0  0.5063668314777416  0.7245357200602316  0.13446595128369415  1.0000
  H   H9        1.0  0.6140375659317102  0.04564992910144379  0.5825879756390651  1.0000
  H   H10       1.0  0.7525118426274774  0.821916331527561  0.6189181358580245  1.0000
  H   H11       1.0  0.7037421039857605  0.6464753521099098  0.5629666431631011  1.0000
  H   H12       1.0  0.24182032896320038  0.2319138448230973  0.3287283383285812  1.0000
  H   H13       1.0  0.39025535776766423  0.2557545817459186  0.28986204160101897  1.0000
  H   H14       1.0  0.3244966948902571  0.40740073977646324  0.26892191750305033  1.0000
  H   H15       1.0  0.23470211320760367  0.34061655817467346  0.2155552028498776  1.0000
  H   H16       1.0  0.17565036495527414  0.38231003895605653  0.30408116981870154  1.0000
  H   H17       1.0  0.3760404390433932  0.9648288696199999  0.4425624404594403  1.0000
  H   H18       1.0  0.15980479949908497  0.44431958163117  0.5911310613432976  1.0000
  H   H19       1.0  0.9201877223261403  0.6880286500760422  0.4508574612454483  1.0000
  H   H20       1.0  0.8205692929506724  0.3251944818850276  0.5249518250655641  1.0000
  H   H21       1.0  0.9085362952676661  0.3813345868326224  0.5896057112184183  1.0000
  H   H22       1.0  0.09917904684020577  0.3206861418078476  0.5271418063858564  1.0000
  H   H23       1.0  0.00401021105063389  0.23985978248809658  0.5678610367826737  1.0000
  H   H24       1.0  0.010239176444329687  0.2639620091079848  0.46444169039173044  1.0000
  H   H25       1.0  0.7512823864594297  0.4197407698243723  0.32654472535592316  1.0000
  H   H26       1.0  0.7877021590273614  0.37081289277640644  0.2365343546835207  1.0000
  H   H27       1.0  0.8445013983611602  0.2768224828473222  0.3522731534615745  1.0000
  H   H28       1.0  0.6945198274127976  0.28257096656385994  0.3915164702594681  1.0000
  H   H29       1.0  0.7257584928053904  0.23146718401251584  0.3019463625768212  1.0000
  H   H30       1.0  0.5798682152960879  0.3983569396912615  0.05039478753422342  1.0000
  H   H31       1.0  0.23575429525094896  0.420593191107166  0.8836019050890802  1.0000
  H   H32       1.0  0.3019428919577222  0.4639350375993985  0.9659900481281628  1.0000
  H   H33       1.0  0.26316024437370805  0.3305073127374882  0.04779618467006232  1.0000
  H   H34       1.0  0.1269317489697812  0.3764398247036668  0.009267894370921704  1.0000
  H   H35       1.0  0.19562377771640632  0.28743274128749613  0.9657518406774064  1.0000
  H   H36       1.0  0.41743350833164067  0.3619729752542043  0.6997806985575681  1.0000
  C   C1        1.0  0.49879699557375556  0.4875207427047457  0.6550345842987826  1.0000
  C   C2        1.0  0.586979540318069  0.5419782099544435  0.7756183281234856  1.0000
  C   C3        1.0  0.601580647115938  0.5386262354392245  0.8563034530037543  1.0000
  C   C4        1.0  0.5410087816926605  0.4772084841659351  0.903761028276428  1.0000
  C   C5        1.0  0.46906838462436445  0.41807923597087904  0.8704108638791157  1.0000
  C   C6        1.0  0.46255382426757297  0.4176903597410942  0.7881112441818134  1.0000
  C   C7        1.0  0.578399336255174  0.4534711936252052  0.14524699372393005  1.0000
  C   C8        1.0  0.578081357868129  0.4507370020542041  0.2283044959653467  1.0000
  C   C9        1.0  0.5565874233728535  0.5315817525693802  0.10105777192676872  1.0000
  C   C10       1.0  0.5475421500428156  0.5243056553799692  0.26650862101490713  1.0000
  C   C11       1.0  0.5302153685866172  0.6015678685755503  0.22357023801544082  1.0000
  C   C12       1.0  0.7306743487191626  0.495073177881835  0.4989727901366196  1.0000
  C   C13       1.0  0.5367000008606694  0.6061566176042774  0.14208241863322266  1.0000
  C   C14       1.0  0.4340023095480277  0.7706772462195702  0.4766808929959227  1.0000
  C   C15       1.0  0.4364019663455208  0.8575552026037698  0.47669125762977443  1.0000
  C   C16       1.0  0.5289725725327443  0.8944879161789459  0.5197144135600311  1.0000
  C   C17       1.0  0.6143782610123125  0.8402547524101892  0.5582044989381247  1.0000
  C   C18       1.0  0.6082268051772032  0.752625579019295  0.5512087943375763  1.0000
  C   C19       1.0  0.5493706770021732  0.15082248485135355  0.5446443406978079  1.0000
  C   C20       1.0  0.5417258029112375  0.2385274166152271  0.5463096843057687  1.0000
  C   C21       1.0  0.47835737615456964  0.1134105027402725  0.48858150315965093  1.0000
  C   C22       1.0  0.40880986015515214  0.2518234795804304  0.441669648324016  1.0000
  C   C23       1.0  0.5244839664874092  0.5232127634700279  0.3535883023962045  1.0000
  C   C24       1.0  0.40880628553190945  0.1650215798439874  0.436719129060208  1.0000
  C   C25       1.0  0.2636774636071165  0.5259237290259904  0.5033611284750565  1.0000
  C   C26       1.0  0.0544413774539123  0.5718611380304992  0.4621218990883593  1.0000
  C   C27       1.0  0.1288006737760838  0.5274829613588782  0.5120301568084715  1.0000
  C   C28       1.0  0.9242641503791588  0.5683622189029549  0.4665393603501615  1.0000
  C   C29       1.0  0.8611307382166943  0.4958367014350102  0.48119662748644043  1.0000
  C   C30       1.0  0.5183114983584288  0.4822642559565224  0.7410832292635592  1.0000
  C   C31       1.0  0.30922953955614924  0.2813829664768689  0.3200207380508077  1.0000
  C   C32       1.0  0.2577143619755944  0.35792175565151746  0.2746947591345333  1.0000
  C   C33       1.0  0.9081514078229561  0.3542483924242603  0.5317068769991878  1.0000
  C   C34       1.0  0.011728669804746487  0.29121081377761737  0.5221481968905837  1.0000
  C   C35       1.0  0.7300251095218684  0.36722429165947545  0.2905149034913351  1.0000
  C   C36       1.0  0.7490854819242116  0.2842155392944292  0.33668848068243323  1.0000
  C   C37       1.0  0.284636089120454  0.4047863582945226  0.9383063541569214  1.0000
  C   C38       1.0  0.21379438393468314  0.3458834412465635  0.9935852176191919  1.0000
  N   N1        1.0  0.549164260336198  0.4701698543264499  0.9860107830844245  1.0000
  N   N2        1.0  0.5493126594550829  0.5396695909250725  0.020104940118237404  1.0000
  N   N3        1.0  0.5184238991977068  0.720582677355381  0.5129868189210286  1.0000
  N   N4        1.0  0.5407979831866  0.9797819769767813  0.5254672353272556  1.0000
  N   N5        1.0  0.4697458233987817  0.0274688260548004  0.4824054510238371  1.0000
  N   N6        1.0  0.47466111249247683  0.2869901823689816  0.49632045145774856  1.0000
  O   O1        1.0  0.501580578103237  0.4169413834447937  0.6215553992972149  1.0000
  O   O2        1.0  0.47773136109010045  0.5591448226839617  0.6212404181028861  1.0000
  O   O3        1.0  0.673454593233565  0.42924539261667866  0.48647726488655973  1.0000
  O   O4        1.0  0.6795675967824834  0.5604336063312019  0.5284655165970022  1.0000
  O   O5        1.0  0.47725135220902365  0.4579935464416991  0.3862455418798236  1.0000
  O   O6        1.0  0.5490462762135807  0.5893016966629149  0.38775685423979683  1.0000
  O   O7        1.0  0.3109527494109869  0.4550493398210094  0.5262753553795323  1.0000
  O   O8        1.0  0.3188763716173995  0.5909560651008691  0.477949103041084  1.0000
  O   O9        1.0  0.5204800157386344  0.6799449166725682  0.09834645069421555  1.0000
  O   O10       1.0  0.6207100942343757  0.10633539265849379  0.5951801025093888  1.0000
  O   O11       1.0  0.7039480196385242  0.8708642779726719  0.5991965413223995  1.0000
  O   O12       1.0  0.69647659868118  0.7051761422491297  0.5849542948944377  1.0000
  O   O13       1.0  0.3447732283823299  0.3071611087332827  0.39618668912214633  1.0000
  O   O14       1.0  0.3521710189916263  0.9046122604714525  0.4375457287887274  1.0000
  O   O15       1.0  0.08780861161784509  0.4763534197678041  0.5724783877616347  1.0000
  O   O16       1.0  0.8624207636554289  0.6432944158021597  0.45007757365969087  1.0000
  O   O17       1.0  0.9229732640374805  0.4210738535358942  0.4709305697042938  1.0000
  O   O18       1.0  0.6045064960536805  0.3752243806901205  0.2682617291885664  1.0000
  O   O19       1.0  0.5978849647219135  0.3821757992865075  0.10867710801019834  1.0000
  O   O20       1.0  0.3998750214511518  0.364568363345505  0.9179429825729815  1.0000
  O   O21       1.0  0.39661315482293696  0.3581077770825233  0.7569207575937258  1.0000
