data_image0
_chemical_formula_structural       Ga4H20C32O20
_chemical_formula_sum              "Ga4 H20 C32 O20"
_cell_length_a       6.823187216129572
_cell_length_b       11.726343956237033
_cell_length_c       17.95390855302849
_cell_angle_alpha    90.00017848490393
_cell_angle_beta     89.99989532730105
_cell_angle_gamma    89.9992980561346

_space_group_name_H-M_alt    "P 1"
_space_group_IT_number       1

loop_
  _space_group_symop_operation_xyz
  'x, y, z'

loop_
  _atom_site_type_symbol
  _atom_site_label
  _atom_site_symmetry_multiplicity
  _atom_site_fract_x
  _atom_site_fract_y
  _atom_site_fract_z
  _atom_site_occupancy
  Ga  Ga1       1.0  4.0793636199999997e-07  7.5462595674e-06  1.8538656334e-06  1.0000
  Ga  Ga2       1.0  9.197138978999993e-07  0.4999882411692908  0.49999803860428227  1.0000
  Ga  Ga3       1.0  0.5000016508078174  3.1915257351999994e-06  0.999999893563384  1.0000
  Ga  Ga4       1.0  0.49999452859687915  0.4999847656903427  0.5000006364776013  1.0000
  H   H1        1.0  0.5643595608715798  0.7832543312826202  0.8204475566965783  1.0000
  H   H2        1.0  0.43559983667712027  0.28321453645836664  0.6795457474608285  1.0000
  H   H3        1.0  0.06439682685785189  0.21677961996179115  0.1795399306456957  1.0000
  H   H4        1.0  0.9356336139550476  0.7167647669019457  0.3204537156878828  1.0000
  H   H5        1.0  0.43563389212893355  0.21681071147188638  0.1795325510456323  1.0000
  H   H6        1.0  0.5644126696800099  0.7167805782795467  0.32046332325639076  1.0000
  H   H7        1.0  0.935574642902253  0.7832197588370136  0.8204741529272326  1.0000
  H   H8        1.0  0.064373030409385  0.283198794931394  0.6795392025279697  1.0000
  H   H9        1.0  0.5642510019228552  0.6807063014110852  0.6971405981412248  1.0000
  H   H10       1.0  0.43575453713214063  0.1806807427926813  0.8028524989741967  1.0000
  H   H11       1.0  0.0642547701174934  0.31929524507066276  0.302854130025267  1.0000
  H   H12       1.0  0.9357427197645974  0.8193053818755016  0.19714529313736762  1.0000
  H   H13       1.0  0.43575271036443997  0.3193433912662583  0.3028445224177077  1.0000
  H   H14       1.0  0.5642447790044968  0.8193066969494112  0.19714988795880833  1.0000
  H   H15       1.0  0.9357592018997706  0.6806913418776545  0.6971644093731086  1.0000
  H   H16       1.0  0.06425659656888169  0.1806650022348677  0.8028498530152463  1.0000
  H   H17       1.0  0.749992010636639  0.6481877343321611  0.4773955868999876  1.0000
  H   H18       1.0  0.2499959162599339  0.14819710784335877  0.0226112885533212  1.0000
  H   H19       1.0  0.25000144303677263  0.3518082332485618  0.5226112558980845  1.0000
  H   H20       1.0  0.7500048651904975  0.8518150625503935  0.9773977821855057  1.0000
  C   C1        1.0  0.4277404361782685  0.7594152647116486  0.7932913799183652  1.0000
  C   C2        1.0  0.5722722277740073  0.25939595251857384  0.7067085598913678  1.0000
  C   C3        1.0  0.9277349824166592  0.24060246955730943  0.2067058612365997  1.0000
  C   C4        1.0  0.07227296943471369  0.7405927455013314  0.2932973018979652  1.0000
  C   C5        1.0  0.5722837945593254  0.24061651950871982  0.2066981964690768  1.0000
  C   C6        1.0  0.42772269146387026  0.7406034261691161  0.29329382705533663  1.0000
  C   C7        1.0  0.07226433374754748  0.7593841173839949  0.7932881709688004  1.0000
  C   C8        1.0  0.9277292778789173  0.2593963997770956  0.7066989582360537  1.0000
  C   C9        1.0  0.42786429307503226  0.7031759177445946  0.7251134109540942  1.0000
  C   C10       1.0  0.5720924053559742  0.20313049809251987  0.7748808454880917  1.0000
  C   C11       1.0  0.9279101060004107  0.2968435210408202  0.2748893999085809  1.0000
  C   C12       1.0  0.07212156851895198  0.7968437038062888  0.22511610470197496  1.0000
  C   C13       1.0  0.5721159697698539  0.2968720694636886  0.2748756084843649  1.0000
  C   C14       1.0  0.427906910822216  0.7968552360627115  0.22511095878931542  1.0000
  C   C15       1.0  0.0720848133866383  0.7031430659214025  0.7251068602255941  1.0000
  C   C16       1.0  0.9278968005270442  0.20312497465913984  0.7748723576603851  1.0000
  C   C17       1.0  0.2500137297551461  0.7880199476259974  0.8278254597937007  1.0000
  C   C18       1.0  0.7500071214563844  0.2879923888857688  0.6721639551021213  1.0000
  C   C19       1.0  0.7499973108091779  0.21199819215094357  0.1721646735666837  1.0000
  C   C20       1.0  0.2499877980021381  0.7119865230607089  0.32783676087857583  1.0000
  C   C21       1.0  0.24999968258143204  0.8539647988088886  0.8990289635603048  1.0000
  C   C22       1.0  0.7500021835127909  0.3539377506435599  0.6009811928083053  1.0000
  C   C23       1.0  0.7500010988262673  0.14605163548576167  0.10097899321925041  1.0000
  C   C24       1.0  0.25000152950291005  0.6460403084870592  0.3990178522228902  1.0000
  C   C25       1.0  0.24996393472837036  0.6751583539908167  0.6905488307024115  1.0000
  C   C26       1.0  0.7499860293395315  0.17514680500221402  0.8094453692104935  1.0000
  C   C27       1.0  0.7500236565266647  0.32484528860899786  0.3094463154881524  1.0000
  C   C28       1.0  0.25001621795068724  0.8248448986143514  0.1905492199807597  1.0000
  C   C29       1.0  0.24998378381580716  0.6154515875804022  0.6167871159009053  1.0000
  C   C30       1.0  0.749992361083727  0.11543015984451438  0.8832297997005156  1.0000
  C   C31       1.0  0.7500126008537575  0.3845605828382831  0.38322585371204104  1.0000
  C   C32       1.0  0.2500025582350531  0.8845598382753722  0.1167809419634693  1.0000
  O   O1        1.0  0.08336754026652929  0.8800852750148705  0.9264024789738559  1.0000
  O   O2        1.0  0.9165898041354835  0.3800816463516127  0.5736027173348717  1.0000
  O   O3        1.0  0.5833989434488486  0.11993063332964479  0.0736044884942189  1.0000
  O   O4        1.0  0.41661889463573937  0.6199097305289243  0.42639119023207434  1.0000
  O   O5        1.0  0.9166259133103196  0.1199192203797068  0.0736071487417433  1.0000
  O   O6        1.0  0.08338752807885899  0.6199126157019847  0.4263946567771981  1.0000
  O   O7        1.0  0.4166282185453483  0.8800909175478895  0.9264001263899431  1.0000
  O   O8        1.0  0.5833950773405332  0.3800853841730215  0.5736050699035857  1.0000
  O   O9        1.0  0.0827572487490329  0.5930444462117137  0.5888121887962614  1.0000
  O   O10       1.0  0.9172662699569542  0.09303646607251177  0.9111902000358043  1.0000
  O   O11       1.0  0.5827444303521785  0.4069544109810294  0.4111886523281072  1.0000
  O   O12       1.0  0.4172614604398746  0.9069566117243255  0.088813732711543  1.0000
  O   O13       1.0  0.9172699134732198  0.406956637916579  0.4111874132311896  1.0000
  O   O14       1.0  0.08274770210432078  0.9069484152862657  0.088816642743403  1.0000
  O   O15       1.0  0.41721238346935496  0.5930509372998785  0.588810949729961  1.0000
  O   O16       1.0  0.5827246652560374  0.09304276699182165  0.9111875402748808  1.0000
  O   O17       1.0  0.2499989023414954  0.07817505836033688  0.993632650249367  1.0000
  O   O18       1.0  0.7500044133263655  0.5781651265175752  0.5063730504584784  1.0000
  O   O19       1.0  0.7499828264539659  0.9218345537613858  0.006377534457570301  1.0000
  O   O20       1.0  0.24999783391983496  0.42182828268852995  0.49363323535194326  1.0000
