data_image0
_chemical_formula_structural       Zn2H44C56N4O16
_chemical_formula_sum              "Zn2 H44 C56 N4 O16"
_cell_length_a       8.729769088603527
_cell_length_b       11.479544275848777
_cell_length_c       14.369848867760659
_cell_angle_alpha    69.90374668486403
_cell_angle_beta     72.30191502290009
_cell_angle_gamma    67.68074273062325

_space_group_name_H-M_alt    "P 1"
_space_group_IT_number       1

loop_
  _space_group_symop_operation_xyz
  'x, y, z'

loop_
  _atom_site_type_symbol
  _atom_site_label
  _atom_site_symmetry_multiplicity
  _atom_site_fract_x
  _atom_site_fract_y
  _atom_site_fract_z
  _atom_site_occupancy
  Zn  Zn1       1.0  0.4247926565337821  0.25001343565328693  0.7499823159052068  1.0000
  Zn  Zn2       1.0  0.575208006839972  0.7499875424931801  0.25001746549389725  1.0000
  H   H1        1.0  0.24229108691363868  0.8764186968307542  0.7463080549573106  1.0000
  H   H2        1.0  0.8652413295759017  0.6238139286258004  0.7538309172754792  1.0000
  H   H3        1.0  0.7577078143879986  0.12358423306024949  0.2536911206765423  1.0000
  H   H4        1.0  0.1347590281261475  0.37618606749449407  0.24616975071744207  1.0000
  H   H5        1.0  0.05781773709743725  0.6497818185112223  0.038297347825867634  1.0000
  H   H6        1.0  0.7458769824072887  0.8500203045190988  0.4619074508889438  1.0000
  H   H7        1.0  0.9421852996918362  0.3502191719430527  0.9617012661508394  1.0000
  H   H8        1.0  0.2541171759437121  0.14997773043572948  0.5380945599033992  1.0000
  H   H9        1.0  0.09861493898878854  0.790383055137404  0.12061966965467258  1.0000
  H   H10       1.0  0.009495997145492598  0.7093634215344693  0.37954861884664837  1.0000
  H   H11       1.0  0.9013884645237198  0.20961596925546644  0.8793809428651042  1.0000
  H   H12       1.0  0.9904993586128225  0.29063755033137534  0.6204516539085743  1.0000
  H   H13       1.0  0.2127366312666864  0.9758810365877152  0.013985438270836321  1.0000
  H   H14       1.0  0.20267309666451883  0.524310705553944  0.4860917202817347  1.0000
  H   H15       1.0  0.7872681675947035  0.0241180021220302  0.9860137814711148  1.0000
  H   H16       1.0  0.7973284584448376  0.47569222747736717  0.513907209674059  1.0000
  H   H17       1.0  0.5933132682222746  0.5873219896370757  0.8258460571943826  1.0000
  H   H18       1.0  0.006463916379082465  0.912708499745442  0.6741440569139029  1.0000
  H   H19       1.0  0.4066854137386926  0.4126780013338447  0.17415508183201908  1.0000
  H   H20       1.0  0.9935359415901034  0.08728856662227  0.3258576527272367  1.0000
  H   H21       1.0  0.38393146294667696  0.32280201087310445  0.08631763607336741  1.0000
  H   H22       1.0  0.7930620966233729  0.17692585787277446  0.41376490509658465  1.0000
  H   H23       1.0  0.6160716348941263  0.6771960314935939  0.9136838630402265  1.0000
  H   H24       1.0  0.20693878997145276  0.8230731888732236  0.5862334132236668  1.0000
  H   H25       1.0  0.3629155783544175  0.22064229863062218  0.9671476475860457  1.0000
  H   H26       1.0  0.5508585701361923  0.2790724461766203  0.5329737223054563  1.0000
  H   H27       1.0  0.6370878251580973  0.7793567257622485  0.03285296493372396  1.0000
  H   H28       1.0  0.4491442725919153  0.7209265965512515  0.46702504672564504  1.0000
  H   H29       1.0  0.6310775680528948  0.4026756026519963  0.6525748788975817  1.0000
  H   H30       1.0  0.6863401034974788  0.0972187288216162  0.8474864865584448  1.0000
  H   H31       1.0  0.3689197438387024  0.5973253651957223  0.3474258445684838  1.0000
  H   H32       1.0  0.313659779751205  0.9027793287397757  0.15251341474453983  1.0000
  H   H33       1.0  0.6717944331600731  0.5374541525765864  0.6646966096741378  1.0000
  H   H34       1.0  0.8738354616037323  0.9625113497360474  0.8352968825878403  1.0000
  H   H35       1.0  0.32820455447259866  0.4625468204205064  0.3353036427584469  1.0000
  H   H36       1.0  0.12616305157556693  0.03748768470214261  0.16470260315480797  1.0000
  H   H37       1.0  0.46625204288429956  0.5518038830954667  0.6554798701950303  1.0000
  H   H38       1.0  0.6734673770147238  0.948026954302925  0.8445968892149408  1.0000
  H   H39       1.0  0.533746527466135  0.44819707357568456  0.34452200037079433  1.0000
  H   H40       1.0  0.3265321142312274  0.05197207812619809  0.15540282188313626  1.0000
  H   H41       1.0  0.07756539574399558  0.51808280002993  0.8475600181255557  1.0000
  H   H42       1.0  0.4436278485922784  0.9818613376340223  0.6525385485295911  1.0000
  H   H43       1.0  0.9224365513681007  0.4819191581336425  0.15243910203515293  1.0000
  H   H44       1.0  0.5563730951736761  0.018139631344943997  0.34746215461384355  1.0000
  C   C1        1.0  0.23277580269350293  0.9385174256060722  0.8740242048361394  1.0000
  C   C2        1.0  0.04545438750477618  0.5616456615305837  0.626095808574007  1.0000
  C   C3        1.0  0.7672270400346048  0.06148161712180668  0.12597456419496197  1.0000
  C   C4        1.0  0.9545470851539477  0.43835435807409345  0.373902544896765  1.0000
  C   C5        1.0  0.2106278790244287  0.8585378419182205  0.8281997236061116  1.0000
  C   C6        1.0  0.8975684827435015  0.6416005852292557  0.6719373456109847  1.0000
  C   C7        1.0  0.7893732016315622  0.14146315255418782  0.1717984396597456  1.0000
  C   C8        1.0  0.10242726501754608  0.35839941176885043  0.3280631173491457  1.0000
  C   C9        1.0  0.14931270857258738  0.7540795968914581  0.8865456730769593  1.0000
  C   C10       1.0  0.7902065363851417  0.7459815254158785  0.6136082847419572  1.0000
  C   C11       1.0  0.8506893501500415  0.2459213955718837  0.11345271554432647  1.0000
  C   C12       1.0  0.2097912791197203  0.25401750186387057  0.3863918973896005  1.0000
  C   C13       1.0  0.10770750433573541  0.729957198635752  0.992389154604325  1.0000
  C   C14       1.0  0.8300954828049638  0.7699866008630278  0.5077764891954998  1.0000
  C   C15       1.0  0.8922934647097167  0.2700447615368873  0.007609740200955122  1.0000
  C   C16       1.0  0.1698973054766597  0.2300124109685981  0.49222510603651404  1.0000
  C   C17       1.0  0.1312004665789669  0.8092694410116085  0.03842449018248556  1.0000
  C   C18       1.0  0.9788355795553012  0.6906503696532128  0.46172755859389236  1.0000
  C   C19       1.0  0.8688022645386013  0.19073056741649455  0.9615750103880385  1.0000
  C   C20       1.0  0.02116086588018353  0.3093496345033344  0.5382722079773287  1.0000
  C   C21       1.0  0.19444276482302322  0.9124398759516197  0.9796868798869198  1.0000
  C   C22       1.0  0.08660846844846723  0.587680078825457  0.5204396248014902  1.0000
  C   C23       1.0  0.8055599662945523  0.0875601324764901  0.020312620683604492  1.0000
  C   C24       1.0  0.9133891491148276  0.4123218710484339  0.4795602120707584  1.0000
  C   C25       1.0  0.29758271368692846  0.049751176753169105  0.8095903752657847  1.0000
  C   C26       1.0  0.15684254806232187  0.45034559115042333  0.6905154668013791  1.0000
  C   C27       1.0  0.7024213011689817  0.9502498116920465  0.19040846406634399  1.0000
  C   C28       1.0  0.8431580289803972  0.5496573438899547  0.30948323779898584  1.0000
  C   C29       1.0  0.13537107106034083  0.67089260177368  0.8315338035869998  1.0000
  C   C30       1.0  0.6382003504210301  0.8292207667792653  0.6685961432908696  1.0000
  C   C31       1.0  0.8646295923134132  0.32910837637278684  0.1684659778121044  1.0000
  C   C32       1.0  0.3617977454760391  0.17077825133298322  0.33140496058501867  1.0000
  C   C33       1.0  0.5299505713839846  0.44105434758841255  0.7989896196807819  1.0000
  C   C34       1.0  0.7700789364685859  0.058884247463900884  0.7010666306495209  1.0000
  C   C35       1.0  0.4700495059258644  0.5589456576993824  0.20101012656780162  1.0000
  C   C36       1.0  0.22992181323620278  0.9411147737886554  0.298934227548308  1.0000
  C   C37       1.0  0.5436151245598069  0.5051402654378306  0.8614577974019682  1.0000
  C   C38       1.0  0.9102674190241369  0.9948542395920797  0.6385467946860287  1.0000
  C   C39       1.0  0.4563823599938529  0.4948567886220658  0.13854507966156138  1.0000
  C   C40       1.0  0.08973344229118398  0.0051438159602455  0.36145333197238466  1.0000
  C   C41       1.0  0.4921122300584952  0.46634355767234587  0.9667151239933955  1.0000
  C   C42       1.0  0.9251976333326225  0.033605797639296504  0.5333142612445411  1.0000
  C   C43       1.0  0.5078888000384936  0.5336554544127169  0.03328665594876401  1.0000
  C   C44       1.0  0.07480224991606103  0.9663922599220954  0.4666856400584435  1.0000
  C   C45       1.0  0.4253227028414342  0.3614127624265251  0.005664749445983724  1.0000
  C   C46       1.0  0.7924372493599279  0.1384220144234121  0.4944014588362789  1.0000
  C   C47       1.0  0.5746789133194597  0.6385872225172022  0.9943370656466965  1.0000
  C   C48       1.0  0.20756254755772122  0.8615780000318904  0.5055973656679739  1.0000
  C   C49       1.0  0.41492365154463334  0.3017223479653239  0.9397662126330174  1.0000
  C   C50       1.0  0.6565121162256912  0.1980531922294091  0.5603455863191156  1.0000
  C   C51       1.0  0.5850801439706145  0.6982757015598082  0.06023459009166727  1.0000
  C   C52       1.0  0.34348905076133457  0.8019458453490883  0.4396536537454735  1.0000
  C   C53       1.0  0.5788239063144613  0.48534385053513074  0.6865921751163099  1.0000
  C   C54       1.0  0.7506896304726924  0.014568322714737302  0.8134535574827593  1.0000
  C   C55       1.0  0.4211774547337297  0.5146571347697702  0.31340690989387804  1.0000
  C   C56       1.0  0.24930857703490958  0.9854297296972805  0.18654681485370608  1.0000
  N   N1        1.0  0.46681574920584984  0.3391977452299599  0.8385854223701441  1.0000
  N   N2        1.0  0.6447097341329734  0.16066904748022637  0.6615014430075518  1.0000
  N   N3        1.0  0.5331842164934599  0.660803225758066  0.16141505541786214  1.0000
  N   N4        1.0  0.3552914328540524  0.8393299900982713  0.3384977970570373  1.0000
  O   O1        1.0  0.33441492681696855  0.1121737450145233  0.854825191866773  1.0000
  O   O2        1.0  0.3014657532831178  0.38809761167193807  0.6453003210180199  1.0000
  O   O3        1.0  0.66558554249562  0.8878252854055403  0.14517474458672536  1.0000
  O   O4        1.0  0.6985356077650805  0.6119033736329699  0.35469876399216804  1.0000
  O   O5        1.0  0.3135681235963828  0.0803401615149397  0.7142959055935733  1.0000
  O   O6        1.0  0.1077335837310757  0.41954708305159727  0.7857740433618046  1.0000
  O   O7        1.0  0.6864315617107334  0.9196608186405868  0.2857036504501024  1.0000
  O   O8        1.0  0.8922686690527253  0.5804558571381548  0.21422419020507966  1.0000
  O   O9        1.0  0.18131883064543072  0.6895065472174836  0.7386105275066867  1.0000
  O   O10       1.0  0.609769553265167  0.8107826031483396  0.7615144943370424  1.0000
  O   O11       1.0  0.8186822500105605  0.31049444725492487  0.2613876357591705  1.0000
  O   O12       1.0  0.3902294090880073  0.18921737865507282  0.2384875664336973  1.0000
  O   O13       1.0  0.0715005208660598  0.5753209154880281  0.8906322081218859  1.0000
  O   O14       1.0  0.5378921192226827  0.9246163706558973  0.6094848055579191  1.0000
  O   O15       1.0  0.9285004481793917  0.4246810446846111  0.10936668668339417  1.0000
  O   O16       1.0  0.4621065627382917  0.07538362031501582  0.39051633346848996  1.0000
