data_image0
_chemical_formula_structural       Nd8H48C32S4O56
_chemical_formula_sum              "Nd8 H48 C32 S4 O56"
_cell_length_a       9.481496399000058
_cell_length_b       12.735788907448237
_cell_length_c       12.952231044780733
_cell_angle_alpha    110.2161426971696
_cell_angle_beta     90.00000830007758
_cell_angle_gamma    89.99998774087331

_space_group_name_H-M_alt    "P 1"
_space_group_IT_number       1

loop_
  _space_group_symop_operation_xyz
  'x, y, z'

loop_
  _atom_site_type_symbol
  _atom_site_label
  _atom_site_symmetry_multiplicity
  _atom_site_fract_x
  _atom_site_fract_y
  _atom_site_fract_z
  _atom_site_occupancy
  Nd  Nd1       1.0  0.16148827986457803  0.04183715859106479  0.6155877710357558  1.0000
  Nd  Nd2       1.0  0.6614884365873763  0.45816335288104426  0.884412989686318  1.0000
  Nd  Nd3       1.0  0.8385131114770346  0.9581626432847585  0.3844124451339042  1.0000
  Nd  Nd4       1.0  0.3385119000683047  0.5418372857301391  0.1155875111790365  1.0000
  Nd  Nd5       1.0  0.36496976735362807  0.9475066164452098  0.868199365015954  1.0000
  Nd  Nd6       1.0  0.864969990650252  0.5524926867228643  0.6318004235071085  1.0000
  Nd  Nd7       1.0  0.6350305693021454  0.05249318543068429  0.1318008511536775  1.0000
  Nd  Nd8       1.0  0.1350303460055144  0.44750711515302993  0.36819979266252995  1.0000
  H   H1        1.0  0.23758370226413925  0.8603476279685008  0.21552217426834364  1.0000
  H   H2        1.0  0.7375839315572962  0.6396523153001465  0.2844770045717481  1.0000
  H   H3        1.0  0.7624155797056177  0.13965301105798025  0.7844775546704028  1.0000
  H   H4        1.0  0.26241535041256003  0.36034748699104563  0.7155224396712753  1.0000
  H   H5        1.0  0.3830364723778175  0.9512456771831593  0.25860298679808846  1.0000
  H   H6        1.0  0.883036719377664  0.5487542457269612  0.2413969719615565  1.0000
  H   H7        1.0  0.6169628095920174  0.04875496142810218  0.7413975140672375  1.0000
  H   H8        1.0  0.1169625625922635  0.45124555614901124  0.7586032442080465  1.0000
  H   H9        1.0  0.086102460948311  0.017981908256750494  0.20282958249738667  1.0000
  H   H10       1.0  0.5861025926940329  0.48201839945078706  0.2971702867035404  1.0000
  H   H11       1.0  0.9138968210215312  0.9820187303545109  0.7971709183679393  1.0000
  H   H12       1.0  0.41389668927599393  0.5179805656898961  0.7028296447703466  1.0000
  H   H13       1.0  0.22670156700925762  0.11342902829768779  0.2541636066166504  1.0000
  H   H14       1.0  0.7267017160898064  0.38657209686732574  0.24583655500624954  1.0000
  H   H15       1.0  0.7732977149604849  0.8865724470488557  0.7458371789443916  1.0000
  H   H16       1.0  0.2732975658800285  0.6134285417439287  0.7541639458590764  1.0000
  H   H17       1.0  0.1984422763662508  0.20167788865725803  0.008694486365065795  1.0000
  H   H18       1.0  0.6984425019052836  0.2983224036471482  0.4913053890091987  1.0000
  H   H19       1.0  0.801557005603584  0.7983227499540034  0.9913060145002603  1.0000
  H   H20       1.0  0.3015578347504899  0.701677398228746  0.5086948271604327  1.0000
  H   H21       1.0  0.0386299601553262  0.13023427741816815  0.008937842972756007  1.0000
  H   H22       1.0  0.5386291100560641  0.36976603679847375  0.49106202361940626  1.0000
  H   H23       1.0  0.9613703765004403  0.8697655244577263  0.9910623731968754  1.0000
  H   H24       1.0  0.46137017191394153  0.6302337646622717  0.5089389644767691  1.0000
  H   H25       1.0  0.8967402662595279  0.28882442193031466  0.006111936195580405  1.0000
  H   H26       1.0  0.3967411927214357  0.21117416971445377  0.4938873806842138  1.0000
  H   H27       1.0  0.1032590157104991  0.7111745432103616  0.9938879952783067  1.0000
  H   H28       1.0  0.6032580892484916  0.7888256321615186  0.5061128354853891  1.0000
  H   H29       1.0  0.0444782592192325  0.3560505532037935  0.969798626588357  1.0000
  H   H30       1.0  0.5444784347989255  0.1439491379917115  0.5302010710814429  1.0000
  H   H31       1.0  0.9555210227507018  0.6439492486721716  0.030201589581253057  1.0000
  H   H32       1.0  0.4555219018569333  0.8560498271488937  0.46979886039247265  1.0000
  H   H33       1.0  0.4199189880773205  0.22227422116340276  0.6969541433213635  1.0000
  H   H34       1.0  0.9199181261192138  0.2777254181395675  0.803046346906342  1.0000
  H   H35       1.0  0.5800813485785312  0.7777255802972716  0.3030468447748475  1.0000
  H   H36       1.0  0.0800811558507135  0.7222743837363977  0.1969538692632611  1.0000
  H   H37       1.0  0.3741445843769924  0.17350273987741355  0.7874479739352366  1.0000
  H   H38       1.0  0.8741447441670189  0.3264969061169225  0.7125517418505111  1.0000
  H   H39       1.0  0.6258557522787811  0.8264970619984805  0.21255224223440186  1.0000
  H   H40       1.0  0.1258555924887474  0.673502895758972  0.2874484743191204  1.0000
  H   H41       1.0  0.12949851563942616  0.7608238452445234  0.7821817113657373  1.0000
  H   H42       1.0  0.6294976473775834  0.7391763265296017  0.7178191208398841  1.0000
  H   H43       1.0  0.8705018210163473  0.2391759566313708  0.2178185048038941  1.0000
  H   H44       1.0  0.3705026892781902  0.2608234753462923  0.2821810953297471  1.0000
  H   H45       1.0  0.1612677454586944  0.8116782264136618  0.6887925653612043  1.0000
  H   H46       1.0  0.6612669113410803  0.6883227777398132  0.8112085532859368  1.0000
  H   H47       1.0  0.8387325911969866  0.18832241219752166  0.31120793550415016  1.0000
  H   H48       1.0  0.3387323706287617  0.3116778608714482  0.18879194757938927  1.0000
  C   C1        1.0  0.2677382170078815  0.9474971638507054  0.2603409456286697  1.0000
  C   C2        1.0  0.7677384625524795  0.5525027748681736  0.23965900679506547  1.0000
  C   C3        1.0  0.7322610649618824  0.052503475175775784  0.7396587833100767  1.0000
  C   C4        1.0  0.2322608194174478  0.4474970270077988  0.7603412093745375  1.0000
  C   C5        1.0  0.09919538065481251  0.13884805479909085  0.8558878220110059  1.0000
  C   C6        1.0  0.5991944615011561  0.3611524652141893  0.644112935287893  1.0000
  C   C7        1.0  0.9008049560008687  0.8611525838120924  0.14411267885434137  1.0000
  C   C8        1.0  0.4008058751547027  0.6388464999264227  0.35588699618602243  1.0000
  C   C9        1.0  0.25672741791753856  0.0006169941671955999  0.0913757149911163  1.0000
  C   C10       1.0  0.7567275675753606  0.49938329014563  0.4086241635860546  1.0000
  C   C11       1.0  0.7432729187382351  0.9993828077086988  0.9086245011785223  1.0000
  C   C12       1.0  0.24327276908033474  0.5006165121454911  0.5913752806570044  1.0000
  C   C13       1.0  0.043817938950717  0.3617426573928384  0.13508169491998961  1.0000
  C   C14       1.0  0.5438181852467211  0.13825681937711207  0.36491788726157637  1.0000
  C   C15       1.0  0.9561834523907322  0.6382571453134316  0.8649169773965181  1.0000
  C   C16       1.0  0.4561810967232134  0.8617429824988603  0.6350823289080267  1.0000
  C   C17       1.0  0.2010568886570994  0.026065945939677693  0.20649273290533188  1.0000
  C   C18       1.0  0.7010570220122645  0.4739351823263077  0.2935081992349068  1.0000
  C   C19       1.0  0.7989423933126432  0.9739355294068728  0.7935080526557172  1.0000
  C   C20       1.0  0.2989422599576699  0.5260646195496576  0.7064920169346961  1.0000
  C   C21       1.0  0.0892760652762092  0.1911974528054755  0.9781432827158552  1.0000
  C   C22       1.0  0.5892761909033837  0.30880223224772146  0.5218564174156909  1.0000
  C   C23       1.0  0.91072321669364  0.8088023494857165  0.021856161527175268  1.0000
  C   C24       1.0  0.410724145752468  0.6911975692129528  0.47814457068051996  1.0000
  C   C25       1.0  0.010937049505230301  0.3029926499246328  0.0161046546880286  1.0000
  C   C26       1.0  0.5109373031573058  0.19700683135367564  0.48389492568666265  1.0000
  C   C27       1.0  0.9890611777788578  0.6970071519514034  0.983895561481546  1.0000
  C   C28       1.0  0.48906197881272107  0.8029921337870074  0.5161050057872244  1.0000
  C   C29       1.0  0.2233950136633496  0.9751630797562141  0.37848138441307094  1.0000
  C   C30       1.0  0.723395242930188  0.5248377013627132  0.12151962219619607  1.0000
  C   C31       1.0  0.7766042683064781  0.024838395175109395  0.6215201730745505  1.0000
  C   C32       1.0  0.2766040390397464  0.4751621005132519  0.8784805939734142  1.0000
  S   S1        1.0  0.5026401347686759  0.25068395124138476  0.9974445041009403  1.0000
  S   S2        1.0  0.0026398940256627  0.24931574569065154  0.5025551912697422  1.0000
  S   S3        1.0  0.49735914720117347  0.7493158510498074  0.0025549401420831537  1.0000
  S   S4        1.0  0.9973593879442717  0.7506840561853136  0.49744502489986075  1.0000
  O   O1        1.0  0.6023617225581788  0.29785917828911573  0.9370771807741816  1.0000
  O   O2        1.0  0.10236256275653229  0.20214134170512915  0.5629228047721924  1.0000
  O   O3        1.0  0.39763650472573897  0.7021414607374368  0.06292254816453646  1.0000
  O   O4        1.0  0.8976377738992413  0.7978584601707724  0.43707741139744644  1.0000
  O   O5        1.0  0.39660929390007743  0.33673227855237536  0.060297730338433615  1.0000
  O   O6        1.0  0.8966095483063866  0.16326798658097624  0.4397021559255805  1.0000
  O   O7        1.0  0.6033899880696793  0.663268360474106  0.939701998600313  1.0000
  O   O8        1.0  0.1033907883493086  0.836731815710145  0.5602972883174715  1.0000
  O   O9        1.0  0.1339598198207383  0.4418582243665056  0.16574473675771628  1.0000
  O   O10       1.0  0.6339621926021267  0.0581420763638363  0.33425590699971514  1.0000
  O   O11       1.0  0.8660405168347867  0.5581424150751245  0.8342542202544789  1.0000
  O   O12       1.0  0.36603814405356166  0.9418577259272777  0.6657435372433439  1.0000
  O   O13       1.0  0.16711188470659982  0.04568621016135668  0.8143583813352393  1.0000
  O   O14       1.0  0.6671109468639146  0.45431346463492156  0.6856405511469602  1.0000
  O   O15       1.0  0.8328884519490957  0.9543135921297644  0.18564106290781976  1.0000
  O   O16       1.0  0.3328883351060199  0.5456863372410438  0.31435966502264273  1.0000
  O   O17       1.0  0.9878978331031119  0.32936820518137466  0.20856929615861466  1.0000
  O   O18       1.0  0.4878997843466592  0.1706303731340951  0.2914315695836791  1.0000
  O   O19       1.0  0.012102503552831899  0.6706307595440105  0.7914314072418732  1.0000
  O   O20       1.0  0.512100552309107  0.829369428741806  0.7085686465859522  1.0000
  O   O21       1.0  0.0453262335405498  0.18283211092214194  0.7910870219653956  1.0000
  O   O22       1.0  0.5453263953093384  0.3171675801570969  0.7089126757510015  1.0000
  O   O23       1.0  0.9546741031152235  0.8171676909537524  0.2089131942042357  1.0000
  O   O24       1.0  0.45467605071829803  0.6828305482480771  0.291086971027255  1.0000
  O   O25       1.0  0.4249561999976663  0.15525664406068526  0.9154923809125106  1.0000
  O   O26       1.0  0.9249563280342272  0.3447438317020683  0.5845076223611797  1.0000
  O   O27       1.0  0.5750441366579367  0.8447439949657248  0.08450734802627118  1.0000
  O   O28       1.0  0.07504400862154631  0.6552559701738258  0.4154925938084587  1.0000
  O   O29       1.0  0.17959914886097292  0.9551330254921948  0.00813731785316204  1.0000
  O   O30       1.0  0.6795983939824025  0.5448677620469552  0.4918629144228105  1.0000
  O   O31       1.0  0.820401187794701  0.04486761311899558  0.9918631830121923  1.0000
  O   O32       1.0  0.32040088798752453  0.4551320398290102  0.5081373017467925  1.0000
  O   O33       1.0  0.5803303138357022  0.21202543188782383  0.07662883560974619  1.0000
  O   O34       1.0  0.080328039223275  0.2879748774417478  0.4233694894207644  1.0000
  O   O35       1.0  0.4196721321914226  0.7879752079688839  0.9233693494759334  1.0000
  O   O36       1.0  0.9196722974324987  0.7120249244341464  0.5766307267488742  1.0000
  O   O37       1.0  0.09206342607144082  0.9750748281050788  0.4040948121951758  1.0000
  O   O38       1.0  0.5920625953426608  0.5249251347009789  0.09590513057477781  1.0000
  O   O39       1.0  0.9079369105843328  0.024924973770822593  0.5959054039744557  1.0000
  O   O40       1.0  0.40793668662726656  0.4750746671749936  0.9040950855948252  1.0000
  O   O41       1.0  0.31635502795293047  0.9987313108540188  0.45355987984673607  1.0000
  O   O42       1.0  0.8163541939407821  0.5012686216142086  0.046439303322003446  1.0000
  O   O43       1.0  0.6836463633886042  0.0012684914370239995  0.5464395643963512  1.0000
  O   O44       1.0  0.1836461427149132  0.4987311806769127  0.9535601409210553  1.0000
  O   O45       1.0  0.3441872797691943  0.17763531734812688  0.7158419240156703  1.0000
  O   O46       1.0  0.844187455540279  0.32236516948900357  0.7841580748195723  1.0000
  O   O47       1.0  0.6558120022005625  0.8223653216783546  0.28415780492307613  1.0000
  O   O48       1.0  0.1558128811155726  0.6776346319716706  0.21584291327663857  1.0000
  O   O49       1.0  0.38596861567979357  0.025840040389574888  0.0772342575553679  1.0000
  O   O50       1.0  0.8859687756344601  0.4741602262027413  0.4227656281239192  1.0000
  O   O51       1.0  0.6140317209758095  0.974160598636828  0.9227654713834139  1.0000
  O   O52       1.0  0.11403156102132783  0.5258387393530837  0.577233531423424  1.0000
  O   O53       1.0  0.20022152030946216  0.8047499461942349  0.7566509596798099  1.0000
  O   O54       1.0  0.7002217248516516  0.6952510530333668  0.7433493891813825  1.0000
  O   O55       1.0  0.7997788163461407  0.19525069283216817  0.24334876925896506  1.0000
  O   O56       1.0  0.29977861180412185  0.30474874884253467  0.25665082698825603  1.0000
