data_image0
_chemical_formula_structural       Cs2Cu6H48C24S4I8O8
_chemical_formula_sum              "Cs2 Cu6 H48 C24 S4 I8 O8"
_cell_length_a       10.370016687230189
_cell_length_b       10.370038329470868
_cell_length_c       13.978869387227533
_cell_angle_alpha    72.47440377779607
_cell_angle_beta     72.47472098679111
_cell_angle_gamma    70.00164606861881

_space_group_name_H-M_alt    "P 1"
_space_group_IT_number       1

loop_
  _space_group_symop_operation_xyz
  'x, y, z'

loop_
  _atom_site_type_symbol
  _atom_site_label
  _atom_site_symmetry_multiplicity
  _atom_site_fract_x
  _atom_site_fract_y
  _atom_site_fract_z
  _atom_site_occupancy
  Cs  Cs1       1.0  0.7659726094542945  0.7659687573103752  0.2166017683289852  1.0000
  Cs  Cs2       1.0  0.23402900483232966  0.2340280728308884  0.7833976034951604  1.0000
  Cu  Cu1       1.0  0.3752709816169428  0.6247259640345533  0.49999956944807167  1.0000
  Cu  Cu2       1.0  0.6247265926131931  0.37527082343422075  0.4999992936605581  1.0000
  Cu  Cu3       1.0  0.3557390223520756  0.6383535061213551  0.3035175484500598  1.0000
  Cu  Cu4       1.0  0.36164529378118704  0.6442635096644764  0.6964841297508214  1.0000
  Cu  Cu5       1.0  0.6442620006763846  0.36164543663619486  0.6964836259079306  1.0000
  Cu  Cu6       1.0  0.6383541211124139  0.35573752818950766  0.30351693462894513  1.0000
  H   H1        1.0  0.7243648701989471  0.9092675669276957  0.5210224017948804  1.0000
  H   H2        1.0  0.09072619562257239  0.2756345372799629  0.4789777566006991  1.0000
  H   H3        1.0  0.2756341273112142  0.0907313490122306  0.4789770899388017  1.0000
  H   H4        1.0  0.9092687728112094  0.7243643469502246  0.5210240829505608  1.0000
  H   H5        1.0  0.8183060705049597  0.028323536520460404  0.4337843467246572  1.0000
  H   H6        1.0  0.9716709491733723  0.18169557400972275  0.5662165608629266  1.0000
  H   H7        1.0  0.18169756106487964  0.9716733122163603  0.5662145653239675  1.0000
  H   H8        1.0  0.028324425663740264  0.8183054211717717  0.433783994801317  1.0000
  H   H9        1.0  0.5794999998702152  0.9571823924079367  0.38961646756622065  1.0000
  H   H10       1.0  0.042817098364864074  0.4204974079846977  0.610383142343565  1.0000
  H   H11       1.0  0.4204988045500428  0.0428207388775164  0.610381400414468  1.0000
  H   H12       1.0  0.9571835100251677  0.5794994155994715  0.38961717350161246  1.0000
  H   H13       1.0  0.5532821144302031  0.0995399061683813  0.4464142737892089  1.0000
  H   H14       1.0  0.9004581381916665  0.4467203473971323  0.5535856252071909  1.0000
  H   H15       1.0  0.4467197241499575  0.900463261232467  0.5535850469280277  1.0000
  H   H16       1.0  0.09954228534354563  0.5532806997546303  0.44641520928481526  1.0000
  H   H17       1.0  0.430915318573355  0.2614153014537449  0.24750004279690066  1.0000
  H   H18       1.0  0.738585696578447  0.5690832540691986  0.7525001609204338  1.0000
  H   H19       1.0  0.5690827906770437  0.7385867820402581  0.7525017956709021  1.0000
  H   H20       1.0  0.2614147297017908  0.4309177958232553  0.24750138770484403  1.0000
  H   H21       1.0  0.4725342331157662  0.0764475116747363  0.2592532349564109  1.0000
  H   H22       1.0  0.9235517784584385  0.5274655013760565  0.7407475878564327  1.0000
  H   H23       1.0  0.5274661931644717  0.9235535382177175  0.7407483136688667  1.0000
  H   H24       1.0  0.07644834258512387  0.4725365952321283  0.2592523625693133  1.0000
  H   H25       1.0  0.6053426705305113  0.269936759222233  0.06982787339504881  1.0000
  H   H26       1.0  0.7300641433828544  0.39465417831880967  0.9301723888083019  1.0000
  H   H27       1.0  0.3946580554963504  0.7300632384731146  0.9301738451632175  1.0000
  H   H28       1.0  0.2699384123273774  0.6053500587989971  0.06982867448800793  1.0000
  H   H29       1.0  0.44549324591903167  0.23510326522141162  0.07987863964398666  1.0000
  H   H30       1.0  0.7648961123981478  0.5545042704462945  0.9201222580383543  1.0000
  H   H31       1.0  0.5545081835127662  0.7648977884874453  0.9201212508269878  1.0000
  H   H32       1.0  0.23510905734351434  0.4454978781321657  0.0798779712151543  1.0000
  H   H33       1.0  0.591926077424297  0.141250424303081  0.9279482291604496  1.0000
  H   H34       1.0  0.8587474623077966  0.40807153567579496  0.07205207840913629  1.0000
  H   H35       1.0  0.40807393696255184  0.8587485091566832  0.07205317508529421  1.0000
  H   H36       1.0  0.14125183769400707  0.5919263308077093  0.9279482973908131  1.0000
  H   H37       1.0  0.7569825992494542  0.13627266483874223  0.9460826491687513  1.0000
  H   H38       1.0  0.8637297012256083  0.2430137319962213  0.05391516219435743  1.0000
  H   H39       1.0  0.24301650766244628  0.8637294169902886  0.05391610287820474  1.0000
  H   H40       1.0  0.13627161056936637  0.7569841476014645  0.9460833255635278  1.0000
  H   H41       1.0  0.6621142195374149  0.8758635494790424  0.9709631549024351  1.0000
  H   H42       1.0  0.12413612092250047  0.3378843353279564  0.0290386602095651  1.0000
  H   H43       1.0  0.3378834833096462  0.12413642306365347  0.02903996745238401  1.0000
  H   H44       1.0  0.8758635937177243  0.6621156503289214  0.9709625741031899  1.0000
  H   H45       1.0  0.7645611036217163  0.9572686508066537  0.8555059380129678  1.0000
  H   H46       1.0  0.042729700689676464  0.23543683305553026  0.1444949298624181  1.0000
  H   H47       1.0  0.23543789937849618  0.04273027061464771  0.1444949819872576  1.0000
  H   H48       1.0  0.9572700139505556  0.7645631526013476  0.8555063044503369  1.0000
  C   C1        1.0  0.7587596177615765  0.9555255221217607  0.43847242297233896  1.0000
  C   C2        1.0  0.04447085812235936  0.24124105084763411  0.5615275488559277  1.0000
  C   C3        1.0  0.2412403883901959  0.04447340311594421  0.5615268388735899  1.0000
  C   C4        1.0  0.9555268337445922  0.758758910732311  0.4384727169657979  1.0000
  C   C5        1.0  0.6290822847811981  0.0323584774503871  0.3950479409534252  1.0000
  C   C6        1.0  0.96763952833448  0.37091705677634224  0.6049508381644984  1.0000
  C   C7        1.0  0.3709178335173392  0.9676436164171064  0.6049512953390491  1.0000
  C   C8        1.0  0.03235876302571232  0.6290808004093833  0.3950497675232042  1.0000
  C   C9        1.0  0.5118470952103706  0.1697589903420607  0.2228325205726449  1.0000
  C   C10       1.0  0.8302422396026046  0.4881512967740845  0.777167333827002  1.0000
  C   C11       1.0  0.4881533283248416  0.8302420568097092  0.7771683139193613  1.0000
  C   C12       1.0  0.16976049547239563  0.5118487112947534  0.22283178255592873  1.0000
  C   C13       1.0  0.5447754729098051  0.19168510534498748  0.10708378739515467  1.0000
  C   C14       1.0  0.8083146156750515  0.45522418407022514  0.8929154307909855  1.0000
  C   C15       1.0  0.4552239502188796  0.8083159407310702  0.8929194193844339  1.0000
  C   C16       1.0  0.19168590628179774  0.5447800180078913  0.10708180748120097  1.0000
  C   C17       1.0  0.6762466346749534  0.0787387698664119  0.9697791310679447  1.0000
  C   C18       1.0  0.921260392227879  0.3237506806231849  0.030221992352757406  1.0000
  C   C19       1.0  0.32375207681371887  0.9212612119740623  0.03022376139911396  1.0000
  C   C20       1.0  0.0787403228188737  0.6762493061094048  0.9697768696724154  1.0000
  C   C21       1.0  0.7393331270055794  0.9383491100971354  0.940392012570463  1.0000
  C   C22       1.0  0.06165117351291371  0.26066492452586226  0.05960837922177118  1.0000
  C   C23       1.0  0.26066688738126936  0.061649823362628794  0.0596093916752807  1.0000
  C   C24       1.0  0.9383501465171376  0.739332963293883  0.9403922509359364  1.0000
  S   S1        1.0  0.6686880044269898  0.1436806223534219  0.26772538187116607  1.0000
  S   S2        1.0  0.8563195761090581  0.33131255973069074  0.7322746151483982  1.0000
  S   S3        1.0  0.3313127215998719  0.8563193753419183  0.7322763366871073  1.0000
  S   S4        1.0  0.14368113619266862  0.6686874242612149  0.2677235327435028  1.0000
  I   I1        1.0  0.5604852868321828  0.5604847519227577  0.15032931632747182  1.0000
  I   I2        1.0  0.43951513121297836  0.43951628974762963  0.849670089897991  1.0000
  I   I3        1.0  0.38949364514430584  0.38949336052306904  0.4493072348547712  1.0000
  I   I4        1.0  0.610502197824097  0.6105023424495925  0.5506886872959883  1.0000
  I   I5        1.0  0.3487300585498545  0.8582229568429443  0.3538792050779024  1.0000
  I   I6        1.0  0.14177945432706446  0.6512691484883673  0.6461204813130195  1.0000
  I   I7        1.0  0.6512709562435219  0.1417759776925394  0.6461198268802661  1.0000
  I   I8        1.0  0.8582225718529483  0.3487297980855785  0.35387903489066025  1.0000
  O   O1        1.0  0.8457212854124875  0.8457198080998649  0.3863690003438406  1.0000
  O   O2        1.0  0.1542794213991883  0.154280170410658  0.6136277192815099  1.0000
  O   O3        1.0  0.6210679468600092  0.06021456800684888  0.07870111553501151  1.0000
  O   O4        1.0  0.9397848861619168  0.37893129213738064  0.9213001426499616  1.0000
  O   O5        1.0  0.3789321851636629  0.9397875395640934  0.9213016914238283  1.0000
  O   O6        1.0  0.06021754642143415  0.6210697653878724  0.0786980896667089  1.0000
  O   O7        1.0  0.8639611915502602  0.8639606007840683  0.9790514854192197  1.0000
  O   O8        1.0  0.1360408373747788  0.136038348530569  0.020948744917731712  1.0000
