data_image0
_chemical_formula_structural       Cd2H28C20N8Cl4O2
_chemical_formula_sum              "Cd2 H28 C20 N8 Cl4 O2"
_cell_length_a       7.304190561719323
_cell_length_b       9.746364641113257
_cell_length_c       10.452185772604421
_cell_angle_alpha    90.2236255560885
_cell_angle_beta     98.35090626111602
_cell_angle_gamma    112.19227511902886

_space_group_name_H-M_alt    "P 1"
_space_group_IT_number       1

loop_
  _space_group_symop_operation_xyz
  'x, y, z'

loop_
  _atom_site_type_symbol
  _atom_site_label
  _atom_site_symmetry_multiplicity
  _atom_site_fract_x
  _atom_site_fract_y
  _atom_site_fract_z
  _atom_site_occupancy
  Cd  Cd1       1.0  0.7487996601357098  0.04082068014390221  0.4196490774147321  1.0000
  Cd  Cd2       1.0  0.2511972886076352  0.9591759680698293  0.5803526243692049  1.0000
  H   H1        1.0  0.03633189068660408  0.9087912678275744  0.25713320154267194  1.0000
  H   H2        1.0  0.9636762071867508  0.0912110880102546  0.7428649256551623  1.0000
  H   H3        1.0  0.48308727620510444  0.934096061912939  0.10481507330700882  1.0000
  H   H4        1.0  0.5169199439054778  0.0659072690677291  0.8951906361947124  1.0000
  H   H5        1.0  0.6155321868367452  0.8130124588841667  0.9110789301030949  1.0000
  H   H6        1.0  0.3844694871195529  0.18699086402423865  0.08892335272885533  1.0000
  H   H7        1.0  0.11607001700776463  0.7983890670780555  0.07792420858886831  1.0000
  H   H8        1.0  0.8839328029871611  0.2016110432741982  0.9220723965257421  1.0000
  H   H9        1.0  0.03654052192115404  0.8503052148721938  0.9226835233737773  1.0000
  H   H10       1.0  0.963458961165415  0.1496937584231262  0.07731272890571726  1.0000
  H   H11       1.0  0.9850870061749292  0.5813658819770141  0.929092240984602  1.0000
  H   H12       1.0  0.014904385671613302  0.4186307277527632  0.07090794622148881  1.0000
  H   H13       1.0  0.8061056347589499  0.5569478114532417  0.036878518801252404  1.0000
  H   H14       1.0  0.19389048230054584  0.44305547297121717  0.9631222494528515  1.0000
  H   H15       1.0  0.5008624350276848  0.4108380297638449  0.8689942964017021  1.0000
  H   H16       1.0  0.49913258659695  0.5891630798540675  0.1310034565761669  1.0000
  H   H17       1.0  0.6985523756247858  0.3996399254326236  0.7924033645763373  1.0000
  H   H18       1.0  0.30144596142315555  0.6003622604188408  0.2075985654204971  1.0000
  H   H19       1.0  0.6104463727306992  0.5308860023915614  0.6071020560427699  1.0000
  H   H20       1.0  0.3895572529381965  0.4691184593571762  0.3928994839453638  1.0000
  H   H21       1.0  0.41134506501984447  0.35959334780387303  0.6247734179605331  1.0000
  H   H22       1.0  0.5886597066876789  0.6404079013887056  0.37522244431026053  1.0000
  H   H23       1.0  0.5700532800074001  0.774419746858584  0.6504379519765993  1.0000
  H   H24       1.0  0.42994034030769507  0.22558131892518674  0.34956157346022115  1.0000
  H   H25       1.0  0.9530395002535814  0.6093064951670331  0.6730212901513684  1.0000
  H   H26       1.0  0.046954119215087124  0.39068350698031656  0.32697901417156333  1.0000
  H   H27       1.0  0.08030054047655716  0.3723582415329006  0.6762887852665571  1.0000
  H   H28       1.0  0.9197022602957431  0.6276362837806816  0.32371155545197183  1.0000
  C   C1        1.0  0.9014260672831896  0.8996974671738229  0.19155332167353123  1.0000
  C   C2        1.0  0.09858258636448619  0.1003059988760455  0.8084448790934786  1.0000
  C   C3        1.0  0.6176520067345236  0.9113853417032586  0.10734828272048699  1.0000
  C   C4        1.0  0.38235303098643664  0.08861919429129732  0.8926495727167776  1.0000
  C   C5        1.0  0.6804537058240712  0.8519524519595196  0.010805195067760611  1.0000
  C   C6        1.0  0.3195518608149044  0.14805311821785952  0.9891975141684811  1.0000
  C   C7        1.0  0.9850422435626103  0.7852508298799848  0.005239301306801345  1.0000
  C   C8        1.0  0.014958356443869987  0.21475037904525612  0.9947561420650717  1.0000
  C   C9        1.0  0.8756082403125589  0.6234396223882542  0.9584510017161351  1.0000
  C   C10       1.0  0.12439094764185654  0.37656151229116125  0.04154812620661372  1.0000
  C   C11       1.0  0.6067731123419124  0.46587137998717076  0.8021198466748275  1.0000
  C   C12       1.0  0.39322469041675134  0.5341297564756361  0.19787818556898884  1.0000
  C   C13       1.0  0.4989868382177319  0.4722711222831392  0.6685612376720443  1.0000
  C   C14       1.0  0.5010131952719022  0.527728946018378  0.3314360442225848  1.0000
  C   C15       1.0  0.419411724989935  0.7007676514538731  0.6615389911697777  1.0000
  C   C16       1.0  0.5805818953251602  0.29923341432990463  0.33846053426704265  1.0000
  C   C17       1.0  0.10097797331441422  0.608519095882876  0.6730828657183707  1.0000
  C   C18       1.0  0.8990153671358883  0.3914731132660947  0.3269174461099382  1.0000
  C   C19       1.0  0.1622849348877224  0.4911500104069547  0.6765503867441397  1.0000
  C   C20       1.0  0.8377173239616198  0.5088489745274175  0.3234471008472539  1.0000
  N   N1        1.0  0.7562210701967941  0.9405240631077944  0.21882193829303284  1.0000
  N   N2        1.0  0.24378617139882408  0.05947932869624851  0.781179947024846  1.0000
  N   N3        1.0  0.8605275614099598  0.8446571322069263  0.06628890829934163  1.0000
  N   N4        1.0  0.139475234837505  0.15534844153724245  0.9337116095790351  1.0000
  N   N5        1.0  0.36482929722555474  0.5517265689675955  0.6687789570702733  1.0000
  N   N6        1.0  0.6351690635698475  0.4482701534919543  0.3312190601627877  1.0000
  N   N7        1.0  0.2625211759159285  0.7384799102910407  0.6635676377048798  1.0000
  N   N8        1.0  0.7374718855160014  0.2615145058595588  0.3364326816287999  1.0000
  Cl  Cl1       1.0  0.656225010174893  0.1194596119182521  0.6380003062968386  1.0000
  Cl  Cl2       1.0  0.3437719385684516  0.8805370362954791  0.3620013954870985  1.0000
  Cl  Cl3       1.0  0.8517216222165092  0.8247644315676157  0.5311556950292982  1.0000
  Cl  Cl4       1.0  0.148275876929894  0.17523331165230624  0.46884703636977326  1.0000
  O   O1        1.0  0.7291832897449595  0.6145921537626579  0.8499834691131554  1.0000
  O   O2        1.0  0.27081366210722996  0.38541003387220485  0.15001736520474657  1.0000
