data_image0
_chemical_formula_structural       Li2H28C28S4N2O20
_chemical_formula_sum              "Li2 H28 C28 S4 N2 O20"
_cell_length_a       6.654445808813818
_cell_length_b       7.430070154749871
_cell_length_c       17.782570969762933
_cell_angle_alpha    83.80433202978938
_cell_angle_beta     81.92882354871163
_cell_angle_gamma    76.42188667372116

_space_group_name_H-M_alt    "P 1"
_space_group_IT_number       1

loop_
  _space_group_symop_operation_xyz
  'x, y, z'

loop_
  _atom_site_type_symbol
  _atom_site_label
  _atom_site_symmetry_multiplicity
  _atom_site_fract_x
  _atom_site_fract_y
  _atom_site_fract_z
  _atom_site_occupancy
  Li  Li1       1.0  0.658513400170456  0.20050588600793878  0.03636807527235671  1.0000
  Li  Li2       1.0  0.34148262273672714  0.7995007651287196  0.9636299152005634  1.0000
  H   H1        1.0  0.7125112674169147  0.9821432004657353  0.9397069864530536  1.0000
  H   H2        1.0  0.2874926959307587  0.017862095858959  0.0602912004294325  1.0000
  H   H3        1.0  0.8362567219114896  0.1308302209173533  0.8954662409820526  1.0000
  H   H4        1.0  0.1637377846497969  0.8691764245556471  0.1045318318366881  1.0000
  H   H5        1.0  0.24657560972148934  0.31223684725198814  0.07315606179065529  1.0000
  H   H6        1.0  0.7534226367607817  0.6877670319956621  0.9268419389813971  1.0000
  H   H7        1.0  0.31826913205319585  0.263323273329803  0.987537099855963  1.0000
  H   H8        1.0  0.6817276031795744  0.7366806059002684  0.0124615450781036  1.0000
  H   H9        1.0  0.8320376625062169  0.6645539435507216  0.3147576180489721  1.0000
  H   H10       1.0  0.1679618791732764  0.3354569247823562  0.6852433573162172  1.0000
  H   H11       1.0  0.5701703160865323  0.6352177447419364  0.4275497118671296  1.0000
  H   H12       1.0  0.42983399068294403  0.36478615151428073  0.5724473977054457  1.0000
  H   H13       1.0  0.08426760799640931  0.9667903862420603  0.30324067106150204  1.0000
  H   H14       1.0  0.915733139269989  0.0332037998016403  0.6967604630488464  1.0000
  H   H15       1.0  0.3460590055366383  0.0004688725179349  0.18997474774323556  1.0000
  H   H16       1.0  0.6539387039415632  0.9995252965523777  0.8100259892425683  1.0000
  H   H17       1.0  0.916960216687805  0.23729335506887855  0.262446659199611  1.0000
  H   H18       1.0  0.08304318417381756  0.7627022028481035  0.7375514548156588  1.0000
  H   H19       1.0  0.6767026544231813  0.15548582985906734  0.3759058054160533  1.0000
  H   H20       1.0  0.3233021710896012  0.8445041842447338  0.6240936175215096  1.0000
  H   H21       1.0  0.1537101080683101  0.4847344635853262  0.2679989851003625  1.0000
  H   H22       1.0  0.8462899523544893  0.5152625225953429  0.7320043036298072  1.0000
  H   H23       1.0  0.3903477196121088  0.5597188155765311  0.15510071329196506  1.0000
  H   H24       1.0  0.6096505931233196  0.4402851370700915  0.8449045910906037  1.0000
  H   H25       1.0  0.10195973794019156  0.6605705805482103  0.5386954010895265  1.0000
  H   H26       1.0  0.8980452251349008  0.33942503384709255  0.46130768692565727  1.0000
  H   H27       1.0  0.20785374485798516  0.16399280947631212  0.4969436453692708  1.0000
  H   H28       1.0  0.7921523758520198  0.8360041937129097  0.503058752161422  1.0000
  C   C1        1.0  0.6020092870618114  0.8317620844829464  0.24587641054034745  1.0000
  C   C2        1.0  0.397994134185403  0.1682334960183312  0.7541239507396966  1.0000
  C   C3        1.0  0.6685136846717372  0.7306616362904637  0.31237190366979917  1.0000
  C   C4        1.0  0.3314952017138211  0.2693423108331743  0.6876283297624679  1.0000
  C   C5        1.0  0.5222089149263383  0.714758509196912  0.37547269707025777  1.0000
  C   C6        1.0  0.4778018363233162  0.2852440491679786  0.6245269385224717  1.0000
  C   C7        1.0  0.31165951766495686  0.8001933274506143  0.3717746502127922  1.0000
  C   C8        1.0  0.6883477555835711  0.19980505888645433  0.6282264950172163  1.0000
  C   C9        1.0  0.24860457478146  0.9040508121396086  0.3052504079205178  1.0000
  C   C10       1.0  0.7513992255623309  0.09594340781571022  0.6947528087629634  1.0000
  C   C11       1.0  0.39342306281059103  0.92074588179635  0.24201165650146086  1.0000
  C   C12       1.0  0.6065776844558073  0.0792483042473506  0.7579894776088947  1.0000
  C   C13       1.0  0.1514954079867223  0.7798067354569653  0.4372192566538827  1.0000
  C   C14       1.0  0.848511763374269  0.2201860901111132  0.5627821562118526  1.0000
  C   C15       1.0  0.6666103968211985  0.4005744097826848  0.2031245278349019  1.0000
  C   C16       1.0  0.3333870762191325  0.599426725771167  0.7968775806412793  1.0000
  C   C17       1.0  0.7491137205109908  0.28706895089241163  0.2643607552663738  1.0000
  C   C18       1.0  0.25089014604554905  0.7129307903093718  0.7356382610680325  1.0000
  C   C19       1.0  0.6148792627078168  0.24365605980787558  0.3276539198447637  1.0000
  C   C20       1.0  0.38512450705759  0.7563381262709965  0.6723459259415634  1.0000
  C   C21       1.0  0.4000752009554062  0.31725174228201775  0.3291430081253494  1.0000
  C   C22       1.0  0.5999221651009918  0.6827438268567719  0.6708588061703651  1.0000
  C   C23       1.0  0.320168648781852  0.4287185914713946  0.266542459306045  1.0000
  C   C24       1.0  0.6798273028161786  0.5712825327727205  0.7334591696997633  1.0000
  C   C25       1.0  0.452484151492719  0.47020574543487476  0.2030036144797691  1.0000
  C   C26       1.0  0.5475136853549998  0.5297940126347953  0.7969996639512686  1.0000
  C   C27       1.0  0.24860681620851466  0.2857577381253834  0.395925484305117  1.0000
  C   C28       1.0  0.751395806114772  0.7142350704517143  0.6040761755980881  1.0000
  S   S1        1.0  0.7825398209307438  0.8399394277969208  0.16243636277759774  1.0000
  S   S2        1.0  0.21744895857234073  0.16006578930689128  0.8375604002983295  1.0000
  S   S3        1.0  0.832530285776855  0.4687588615160863  0.12345704634909538  1.0000
  S   S4        1.0  0.1674641341860834  0.5312422401261543  0.8765429795539602  1.0000
  N   N1        1.0  0.7551805020502371  0.6888305587533665  0.10889792819639149  1.0000
  N   N2        1.0  0.24481274498860017  0.3111691371567318  0.8911011027425673  1.0000
  O   O1        1.0  0.7353357231823383  0.1097567626422489  0.9393574415125413  1.0000
  O   O2        1.0  0.26466288201091714  0.8902457334751547  0.060641167398180984  1.0000
  O   O3        1.0  0.3559507789182065  0.23221200894521843  0.0403491772182036  1.0000
  O   O4        1.0  0.6440410485658676  0.7677932364241329  0.9596491066146625  1.0000
  O   O5        1.0  0.7139866793786781  0.0184957871889964  0.12135094076590748  1.0000
  O   O6        1.0  0.28598846830048785  0.9815093958801031  0.8786482488709949  1.0000
  O   O7        1.0  0.9892219257419657  0.8030076747007653  0.18729182301240846  1.0000
  O   O8        1.0  0.010771601477486603  0.1970086752859217  0.8127035959384159  1.0000
  O   O9        1.0  0.7879706669824673  0.3958102216281035  0.05614428123080728  1.0000
  O   O10       1.0  0.21202643715407993  0.6041922857638583  0.9438560954743167  1.0000
  O   O11       1.0  0.045215066621743495  0.4067721453016162  0.14257285962546717  1.0000
  O   O12       1.0  0.954781668611027  0.5932317339284551  0.8574257853086067  1.0000
  O   O13       1.0  0.9651290811460315  0.8632183201230819  0.43633840337781743  1.0000
  O   O14       1.0  0.0348791408659395  0.1367703278238537  0.5636620248229605  1.0000
  O   O15       1.0  0.22211297749010575  0.6667835107132591  0.49488655260686437  1.0000
  O   O16       1.0  0.7778953718913828  0.333210726233041  0.5051164170391471  1.0000
  O   O17       1.0  0.059208877776718814  0.3602479192059818  0.39547138576607205  1.0000
  O   O18       1.0  0.9407941949522967  0.6397490557177008  0.604529491007689  1.0000
  O   O19       1.0  0.32568607301023894  0.17839839468830826  0.45382181884285433  1.0000
  O   O20       1.0  0.6743192334866566  0.8215958196385247  0.5461801918624188  1.0000
