data_image0
_chemical_formula_structural       Al4H9C38Cl3O22
_chemical_formula_sum              "Al4 H9 C38 Cl3 O22"
_cell_length_a       6.688811102645337
_cell_length_b       17.92630612175779
_cell_length_c       21.040751772106688
_cell_angle_alpha    108.07209471573637
_cell_angle_beta     88.74714995612263
_cell_angle_gamma    91.32813753518553

_space_group_name_H-M_alt    "P 1"
_space_group_IT_number       1

loop_
  _space_group_symop_operation_xyz
  'x, y, z'

loop_
  _atom_site_type_symbol
  _atom_site_label
  _atom_site_symmetry_multiplicity
  _atom_site_fract_x
  _atom_site_fract_y
  _atom_site_fract_z
  _atom_site_occupancy
  Al  Al1       1.0  0.12171250970239102  0.500166667169239  0.5004906514762125  1.0000
  Al  Al2       1.0  0.6212413619403279  0.49937055275186276  0.4993244497203618  1.0000
  Al  Al3       1.0  0.6606936895887046  0.9999206922715586  0.00041323092951722583  1.0000
  Al  Al4       1.0  0.16084968083253406  0.0007582099192475995  0.0017814225764638998  1.0000
  H   H1        1.0  0.14563679433437934  0.25064669440821774  0.6645168274577529  1.0000
  H   H2        1.0  0.6646632369304085  0.7329589293458978  0.1645634373898729  1.0000
  H   H3        1.0  0.12322603588302877  0.8472390062870544  0.25832134808950247  1.0000
  H   H4        1.0  0.34074926425626734  0.1656319381862588  0.6928256578091094  1.0000
  H   H5        1.0  0.45931584641730444  0.363611472854771  0.8134532145493196  1.0000
  H   H6        1.0  0.36481616050218685  0.4059006676296163  0.5076246455899136  1.0000
  H   H7        1.0  0.875852553111976  0.6021565848144588  0.5156066045923635  1.0000
  H   H8        1.0  0.4171004773301021  0.09387808243043587  0.9928673449245192  1.0000
  H   H9        1.0  0.9088506773146251  0.8990205921118601  0.9640104804113673  1.0000
  C   C1        1.0  0.37075641148308597  0.6076586982221882  0.6038030597038426  1.0000
  C   C2        1.0  0.3817622269200881  0.5772876032480169  0.4247784367221994  1.0000
  C   C3        1.0  0.8747545183462221  0.3932772014227125  0.3963553523809009  1.0000
  C   C4        1.0  0.8600585210011998  0.4211218507654521  0.5751307420257346  1.0000
  C   C5        1.0  0.05429823190247162  0.2030745248254604  0.7428535858221819  1.0000
  C   C6        1.0  0.9103016432500013  0.20328703053385058  0.7936173114620287  1.0000
  C   C7        1.0  0.7418576125526927  0.2519056818163107  0.7997987596325656  1.0000
  C   C8        1.0  0.712123551690702  0.2962458039002057  0.756306532681833  1.0000
  C   C9        1.0  0.8594262562856089  0.29539170643604246  0.7062694150977646  1.0000
  C   C10       1.0  0.02995071186703771  0.249620347311783  0.7015796373517558  1.0000
  C   C11       1.0  0.9287620957926777  0.15825385685553067  0.8374127800691864  1.0000
  C   C12       1.0  0.8454192201448694  0.34024676259046055  0.6618775297394847  1.0000
  C   C13       1.0  0.8546890181424728  0.3771065314400487  0.6220556139497331  1.0000
  C   C14       1.0  0.9259303016109969  0.12258549051592375  0.8781726970832436  1.0000
  C   C15       1.0  0.9039679696776445  0.16809516038696154  0.16761569779196606  1.0000
  C   C16       1.0  0.8950679406267882  0.22111947931142586  0.22068920656260355  1.0000
  C   C17       1.0  0.8861194405613091  0.2794838381589741  0.2794141520550965  1.0000
  C   C18       1.0  0.8781429749341498  0.33216809482785686  0.3327162750799956  1.0000
  C   C19       1.0  0.37566319383804364  0.6686833910700828  0.6674814097868518  1.0000
  C   C20       1.0  0.3860420326552402  0.7208939719027396  0.7210175825417904  1.0000
  C   C21       1.0  0.39663654798250997  0.7785503983423819  0.7801128457574718  1.0000
  C   C22       1.0  0.4062379645678007  0.8308679140588635  0.8335901124245948  1.0000
  C   C23       1.0  0.545357317106344  0.7404213685393869  0.20193630119386788  1.0000
  C   C24       1.0  0.3941800884421197  0.7953380001754123  0.20632094976949822  1.0000
  C   C25       1.0  0.24013340860877713  0.8048666663508398  0.254784421732097  1.0000
  C   C26       1.0  0.23893788790221754  0.7603873966249635  0.29832528712633877  1.0000
  C   C27       1.0  0.38856176147708527  0.70430201451596  0.2948745101928621  1.0000
  C   C28       1.0  0.5409208176312602  0.6955255019103388  0.24518833273719293  1.0000
  C   C29       1.0  0.3966553950144985  0.8404928077450646  0.16177922498417968  1.0000
  C   C30       1.0  0.38654341583491464  0.6595966269206028  0.3392999410559978  1.0000
  C   C31       1.0  0.3849505255341726  0.6214734746270378  0.3781759756986743  1.0000
  C   C32       1.0  0.39860938955224157  0.8788439962730193  0.12307254636773007  1.0000
  C   C33       1.0  0.40233382385737565  0.9230575220847255  0.07633639713036887  1.0000
  C   C34       1.0  0.40990612859145165  0.8921656300164783  0.8969808226716507  1.0000
  C   C35       1.0  0.9207856278618182  0.07966667885190759  0.9258639789682089  1.0000
  C   C36       1.0  0.9088665737088987  0.10621221833387295  0.10457541581946828  1.0000
  C   C37       1.0  0.2344114461866198  0.15332394178437875  0.730308122943512  1.0000
  C   C38       1.0  0.528151910493115  0.34342113298151117  0.762563078149263  1.0000
  Cl  Cl1       1.0  0.5662665748112089  0.2533437186731503  0.8613793686787258  1.0000
  Cl  Cl2       1.0  0.7237182525257355  0.6273509289898483  0.23809700978989656  1.0000
  Cl  Cl3       1.0  0.05222184644338059  0.7740373011283807  0.35822983532187164  1.0000
  O   O1        1.0  0.5502387268892334  0.5577115489787516  0.44107102832030154  1.0000
  O   O2        1.0  0.19874805066019974  0.5832888926865251  0.5807108300191997  1.0000
  O   O3        1.0  0.0327998127505182  0.43692704600685756  0.5555113935652328  1.0000
  O   O4        1.0  0.2102579771675863  0.5626612536590796  0.4460567692858175  1.0000
  O   O5        1.0  0.04460194652486391  0.41823602816635486  0.4209484149619484  1.0000
  O   O6        1.0  0.5404736754871493  0.5851873791366131  0.5770080554807179  1.0000
  O   O7        1.0  0.3687698382190945  0.45334984894988384  0.49470441860290026  1.0000
  O   O8        1.0  0.703473462412468  0.4151534845036906  0.4218866319071493  1.0000
  O   O9        1.0  0.6920201991177778  0.4391579254140367  0.5573044280554241  1.0000
  O   O10       1.0  0.8734119006108472  0.5459211201233812  0.5074232440157826  1.0000
  O   O11       1.0  0.23980206232347007  0.9162684479502231  0.9226201153864576  1.0000
  O   O12       1.0  0.5742810428714193  0.9394901988720717  0.056738299007555656  1.0000
  O   O13       1.0  0.7401192584192201  0.08221789832962399  0.07858346040925569  1.0000
  O   O14       1.0  0.5814017854784268  0.915429189863083  0.9213447842656917  1.0000
  O   O15       1.0  0.7472638316886063  0.062112211700160486  0.943711902955286  1.0000
  O   O16       1.0  0.23397398678017822  0.9405263460123617  0.05834249491412872  1.0000
  O   O17       1.0  0.41338120756932983  0.04667271651485548  0.0061514695029600925  1.0000
  O   O18       1.0  0.08863105184098431  0.06438073022039957  0.9459690279240146  1.0000
  O   O19       1.0  0.08029007297638908  0.08223513328632487  0.08059811384435277  1.0000
  O   O20       1.0  0.9089673627647913  0.9534281289426187  0.9918740367160194  1.0000
  O   O21       1.0  0.2683638362295468  0.1029873829360639  0.7563424569252531  1.0000
  O   O22       1.0  0.45377705677789487  0.35869999478870074  0.7155922456788273  1.0000
