data_image0
_chemical_formula_structural       Cd2H30C32S2N4Cl2O4
_chemical_formula_sum              "Cd2 H30 C32 S2 N4 Cl2 O4"
_cell_length_a       9.06914401218358
_cell_length_b       9.396471913866684
_cell_length_c       10.60548324782273
_cell_angle_alpha    72.53495323309679
_cell_angle_beta     78.40724869393276
_cell_angle_gamma    82.40781698576477

_space_group_name_H-M_alt    "P 1"
_space_group_IT_number       1

loop_
  _space_group_symop_operation_xyz
  'x, y, z'

loop_
  _atom_site_type_symbol
  _atom_site_label
  _atom_site_symmetry_multiplicity
  _atom_site_fract_x
  _atom_site_fract_y
  _atom_site_fract_z
  _atom_site_occupancy
  Cd  Cd1       1.0  0.17508686151499125  0.060877238470105476  0.5398775896816304  1.0000
  Cd  Cd2       1.0  0.8249134807208235  0.9391243763245424  0.4601220305500462  1.0000
  H   H1        1.0  0.2738116485548048  0.987235651064445  0.8699662213430271  1.0000
  H   H2        1.0  0.726192981233808  0.012768244223430295  0.13003105975194273  1.0000
  H   H3        1.0  0.6648162695499096  0.5256325928668415  0.3515764702048898  1.0000
  H   H4        1.0  0.3351766146871995  0.4743644607283457  0.6484266864050028  1.0000
  H   H5        1.0  0.7959885660427871  0.5446908909977137  0.19941508379991302  1.0000
  H   H6        1.0  0.20400460764131617  0.4553027770633165  0.800587074331375  1.0000
  H   H7        1.0  0.6555581943736611  0.4164259016754953  0.2429743508927444  1.0000
  H   H8        1.0  0.3444290535515081  0.5835710508301302  0.7570279514680962  1.0000
  H   H9        1.0  0.5015196823328553  0.7463966066092592  0.33833066764996994  1.0000
  H   H10       1.0  0.4984846580087633  0.2536106742127727  0.6616676119235975  1.0000
  H   H11       1.0  0.3254005967634228  0.9417515250610787  0.22495884173026331  1.0000
  H   H12       1.0  0.6746068054519087  0.058259140656041083  0.7750370106363177  1.0000
  H   H13       1.0  0.44815003395720515  0.7802796802667017  0.8734576703755437  1.0000
  H   H14       1.0  0.5518511359385201  0.2197253198490827  0.1265418064395405  1.0000
  H   H15       1.0  0.6180806092926189  0.580835103485718  0.9912104006491518  1.0000
  H   H16       1.0  0.3819187171545693  0.4191653927395931  0.008790653768187452  1.0000
  H   H17       1.0  0.173929060339475  0.08645799149403639  0.11477700102953751  1.0000
  H   H18       1.0  0.8260725220832724  0.9135425480857999  0.8852245826224204  1.0000
  H   H19       1.0  0.9892543636850631  0.2899620842619796  0.088267879861462  1.0000
  H   H20       1.0  0.01074483242816631  0.7100394723715979  0.9117291315653799  1.0000
  H   H21       1.0  0.8170320553947119  0.4724030375074192  0.9514498977073059  1.0000
  H   H22       1.0  0.18296609591421745  0.5275973421827087  0.04854479720518164  1.0000
  H   H23       1.0  0.8063580194990863  0.46419888620052036  0.722481156300347  1.0000
  H   H24       1.0  0.19363982524916426  0.5357925434436837  0.2775170188310909  1.0000
  H   H25       1.0  0.8755646436573412  0.4825242294035802  0.5035595636672596  1.0000
  H   H26       1.0  0.12444089799577542  0.5174695968429713  0.4964403480419292  1.0000
  H   H27       1.0  0.7597969218361911  0.3273310272762941  0.5765658068485919  1.0000
  H   H28       1.0  0.24020605263261527  0.6726660973693085  0.42343176107955566  1.0000
  H   H29       1.0  0.8946685449464836  0.3334776879027075  0.4260389666928859  1.0000
  H   H30       1.0  0.10533445128407955  0.666519480523476  0.5739614142602818  1.0000
  C   C1        1.0  0.6775324522543614  0.5273048412387309  0.24612545092886517  1.0000
  C   C2        1.0  0.3224593076219264  0.47269219797595236  0.7538779099012203  1.0000
  C   C3        1.0  0.572444539583458  0.6475590155919447  0.17468735316435874  1.0000
  C   C4        1.0  0.427552552649935  0.35244148105941503  0.8253159850433747  1.0000
  C   C5        1.0  0.48862480657556523  0.7521504454662629  0.2368525280458443  1.0000
  C   C6        1.0  0.511376464638431  0.24785343586715664  0.7631472410597053  1.0000
  C   C7        1.0  0.38964929284860256  0.8637724461217428  0.1723614588148621  1.0000
  C   C8        1.0  0.6103516744105588  0.13623479155878465  0.8276374334192836  1.0000
  C   C9        1.0  0.3742692776127967  0.8735156371737671  0.04115935130168678  1.0000
  C   C10       1.0  0.6257331324698611  0.12648828772720574  0.958842088933686  1.0000
  C   C11       1.0  0.459046359783386  0.772022660014876  0.9761312905672027  1.0000
  C   C12       1.0  0.5409549909871316  0.22798005875559818  0.023865957803799583  1.0000
  C   C13       1.0  0.5556240631903934  0.6602551912558424  0.04291228205076441  1.0000
  C   C14       1.0  0.44437618498106696  0.33974755691470887  0.9570879835654438  1.0000
  C   C15       1.0  0.18117439252166176  0.08308219089520459  0.011671276199443503  1.0000
  C   C16       1.0  0.8188282056897053  0.9169194672539756  0.9883288732668588  1.0000
  C   C17       1.0  0.08536113636971979  0.18515569645069252  0.9305112790019691  1.0000
  C   C18       1.0  0.9146403374808328  0.8148459473179911  0.06948907468451884  1.0000
  C   C19       1.0  0.9868753784273847  0.29052651428730053  0.9857249573482177  1.0000
  C   C20       1.0  0.013124847982311448  0.7094761901026698  0.014272495242977449  1.0000
  C   C21       1.0  0.8909402065789322  0.3903719223955945  0.9102797295948546  1.0000
  C   C22       1.0  0.10905692168746128  0.6096273241316651  0.08971546182829829  1.0000
  C   C23       1.0  0.8867882649075937  0.3872789278712929  0.7786507688102232  1.0000
  C   C24       1.0  0.11321385288562172  0.6127147530790821  0.2213431918344995  1.0000
  C   C25       1.0  0.9821955259561859  0.28693006773266916  0.7219445204407576  1.0000
  C   C26       1.0  0.017806635360550247  0.7130637007788534  0.278055066253998  1.0000
  C   C27       1.0  0.08765035348900337  0.1832059612111152  0.7949521405315635  1.0000
  C   C28       1.0  0.9123547105884031  0.816793517321386  0.20505006042530025  1.0000
  C   C29       1.0  0.8713325372586098  0.36163276175354736  0.5213156915454746  1.0000
  C   C30       1.0  0.1286705385284677  0.6383632441096907  0.4786821686731457  1.0000
  C   C31       1.0  0.5227175490879148  0.18831510637620139  0.4301897451113703  1.0000
  C   C32       1.0  0.4772820235193506  0.8116832398455214  0.56981751993694  1.0000
  S   S1        1.0  0.36215405278357327  0.2809929282254941  0.40151533947280166  1.0000
  S   S2        1.0  0.6378463039600817  0.7190087157562104  0.5984861561088834  1.0000
  N   N1        1.0  0.2764583752462002  0.9816708655054425  0.9692694968837329  1.0000
  N   N2        1.0  0.7235439262642629  0.018334163584370292  0.030730713386162727  1.0000
  N   N3        1.0  0.6411737930714878  0.12524212825790926  0.4504926309653285  1.0000
  N   N4        1.0  0.3588293697626312  0.8747540527276382  0.549516481353365  1.0000
  Cl  Cl1       1.0  0.05261036611262431  0.11347067987024667  0.3329970807386999  1.0000
  Cl  Cl2       1.0  0.9473892570354817  0.8865264454144252  0.6670039128750389  1.0000
  O   O1        1.0  0.987761446473087  0.27814635878473126  0.594271251567747  1.0000
  O   O2        1.0  0.01223743582554702  0.7218462332093905  0.4057283024030481  1.0000
  O   O3        1.0  0.18157290742649224  0.09085176131004145  0.7420139660419237  1.0000
  O   O4        1.0  0.8184353198428981  0.9091499833351829  0.25798609999842637  1.0000
