data_image0
_chemical_formula_structural       Na4H24C8N28O8
_chemical_formula_sum              "Na4 H24 C8 N28 O8"
_cell_length_a       7.069372029470061
_cell_length_b       8.828594052360394
_cell_length_c       12.61460279877783
_cell_angle_alpha    68.709622516362
_cell_angle_beta     80.22276893488217
_cell_angle_gamma    67.69429181337841

_space_group_name_H-M_alt    "P 1"
_space_group_IT_number       1

loop_
  _space_group_symop_operation_xyz
  'x, y, z'

loop_
  _atom_site_type_symbol
  _atom_site_label
  _atom_site_symmetry_multiplicity
  _atom_site_fract_x
  _atom_site_fract_y
  _atom_site_fract_z
  _atom_site_occupancy
  Na  Na1       1.0  0.27359818844800526  0.3008423866588147  0.4218846534430156  1.0000
  Na  Na2       1.0  0.7264033902132921  0.6991546596509651  0.5781174357873198  1.0000
  Na  Na3       1.0  0.012228486921429627  0.2602900382393331  0.029159405987535053  1.0000
  Na  Na4       1.0  0.9877671203677846  0.739714812848199  0.970837307115417  1.0000
  H   H1        1.0  0.4383934558651815  0.594600460952478  0.4005481489030556  1.0000
  H   H2        1.0  0.5615986630393691  0.40540564901770904  0.5994525211866772  1.0000
  H   H3        1.0  0.19638495582444898  0.6375837221478663  0.4568007235782829  1.0000
  H   H4        1.0  0.8036029469486009  0.36242241637075523  0.5431963436985469  1.0000
  H   H5        1.0  0.18759855045966836  0.1073703625956668  0.2662721978917375  1.0000
  H   H6        1.0  0.8123981201017402  0.8926318969707269  0.7337250643982144  1.0000
  H   H7        1.0  0.2487483588046898  0.92365732762125  0.3895596775244029  1.0000
  H   H8        1.0  0.7512531821594733  0.07634365460070573  0.6104358900692902  1.0000
  H   H9        1.0  0.5197304078489537  0.8257623700733422  0.873383140254326  1.0000
  H   H10       1.0  0.4802668145263737  0.1742346511110782  0.12662171428043223  1.0000
  H   H11       1.0  0.282648980794356  0.8897846707803797  0.9369487990702295  1.0000
  H   H12       1.0  0.7173484525524998  0.11021883253867773  0.0630544309900785  1.0000
  H   H13       1.0  0.3422901246981168  0.3934647614174197  0.8764153258250218  1.0000
  H   H14       1.0  0.6577152610937275  0.6065335990690671  0.12358451952205483  1.0000
  H   H15       1.0  0.43421432219356865  0.1726871475741377  0.9553183556180684  1.0000
  H   H16       1.0  0.5657838556796049  0.8273111911644196  0.04468371052571733  1.0000
  H   H17       1.0  0.8526664374106616  0.44461909190970067  0.3585987714397163  1.0000
  H   H18       1.0  0.14734094963191768  0.5553779879005564  0.6413996307180553  1.0000
  H   H19       1.0  0.8551015583776118  0.2503896359413887  0.41479095377079733  1.0000
  H   H20       1.0  0.1449072106830512  0.7496074254070921  0.5852097106774963  1.0000
  H   H21       1.0  0.8690498391005548  0.3377095782622278  0.22270496617698396  1.0000
  H   H22       1.0  0.1309556369463465  0.6622848664397482  0.7772990127627324  1.0000
  H   H23       1.0  0.7026618404422463  0.2615024742064805  0.2274808355826821  1.0000
  H   H24       1.0  0.297336124540713  0.7384997333520078  0.7725226690711295  1.0000
  C   C1        1.0  0.19542394345938155  0.6696458228539512  0.19849085546378106  1.0000
  C   C2        1.0  0.8045737378162983  0.33035382506362515  0.8015093440571731  1.0000
  C   C3        1.0  0.181901252586428  0.8908255337168715  0.2463293019529543  1.0000
  C   C4        1.0  0.8181000930068335  0.10917932403424402  0.7536669081360969  1.0000
  C   C5        1.0  0.3116229974027007  0.088516133792929  0.694016354068971  1.0000
  C   C6        1.0  0.6883820521239484  0.9114796469249671  0.3059825741892509  1.0000
  C   C7        1.0  0.3282763069595305  0.2338342114142337  0.7996824189671301  1.0000
  C   C8        1.0  0.6717233054896495  0.7661641289902194  0.2003195214231822  1.0000
  N   N1        1.0  0.1267056133420892  0.9514597194623778  0.13833506706841794  1.0000
  N   N2        1.0  0.87329498964354  0.04853995191466962  0.8616624929015871  1.0000
  N   N3        1.0  0.13702256147339395  0.8104601992651156  0.10851603865508243  1.0000
  N   N4        1.0  0.8629761278580547  0.1895407863342768  0.8914789844308969  1.0000
  N   N5        1.0  0.22985390757128232  0.4979143103059231  0.21469014221778335  1.0000
  N   N6        1.0  0.7701509641037773  0.5020853526503545  0.7853086325211294  1.0000
  N   N7        1.0  0.1687175713415669  0.47773622661060955  0.13163909550845426  1.0000
  N   N8        1.0  0.8312763728807935  0.5222621339671608  0.8683601638370958  1.0000
  N   N9        1.0  0.2250849881391374  0.7139921744332298  0.2873523779401168  1.0000
  N   N10       1.0  0.7749115396092987  0.28601398078999574  0.7126431388011979  1.0000
  N   N11       1.0  0.2942308108722002  0.59700781901622  0.3939358758326748  1.0000
  N   N12       1.0  0.7057634696153555  0.40299312133013404  0.60606430060173  1.0000
  N   N13       1.0  0.1925029477363863  0.9826860839430513  0.3084003949193529  1.0000
  N   N14       1.0  0.8075010034794515  0.01731227487753981  0.691599576181197  1.0000
  N   N15       1.0  0.2808477964912369  0.3442021979657073  0.6948672042081157  1.0000
  N   N16       1.0  0.7191537821700605  0.6557948483440725  0.3051348850222269  1.0000
  N   N17       1.0  0.26842460186234257  0.2518977585176146  0.6285746958981022  1.0000
  N   N18       1.0  0.7315759836039816  0.7481019061502041  0.37142366008657046  1.0000
  N   N19       1.0  0.3294803187121004  0.9446394034274097  0.6678987573318267  1.0000
  N   N20       1.0  0.6705226594865862  0.055357631129808724  0.3321047981743703  1.0000
  N   N21       1.0  0.3091829816485043  0.9806768603126276  0.5604427028803443  1.0000
  N   N22       1.0  0.6908190208745282  0.0193227993118583  0.4395563233655153  1.0000
  N   N23       1.0  0.34941465851802883  0.07143808193566771  0.802893208432117  1.0000
  N   N24       1.0  0.6505862632134979  0.9285641625007346  0.1971060646414101  1.0000
  N   N25       1.0  0.40747219241573857  0.9238096035974626  0.898045833854752  1.0000
  N   N26       1.0  0.5925259328995053  0.07618871501342282  0.10195862033303633  1.0000
  N   N27       1.0  0.34014611432905173  0.2711989587697516  0.8929856963996486  1.0000
  N   N28       1.0  0.6598525776609064  0.7287980774990078  0.1070174403523082  1.0000
  O   O1        1.0  0.20321502605495567  0.31706767962820254  0.1436025584106986  1.0000
  O   O2        1.0  0.7967880222209656  0.6829293817659237  0.8563978130368284  1.0000
  O   O3        1.0  0.3263569592574667  0.8472380876058669  0.53382630128727  1.0000
  O   O4        1.0  0.6736455398630453  0.15276026283959962  0.4661745915814208  1.0000
  O   O5        1.0  0.9431128412741571  0.3215657894329952  0.3979139008891436  1.0000
  O   O6        1.0  0.05689452824911705  0.6784312836680401  0.6020852972832955  1.0000
  O   O7        1.0  0.7645533648860549  0.34797380086615715  0.17593891302826845  1.0000
  O   O8        1.0  0.2354431304822738  0.652028391607985  0.8240663094083444  1.0000
