data_image0
_chemical_formula_structural       Hg8H64C40I16N16
_chemical_formula_sum              "Hg8 H64 C40 I16 N16"
_cell_length_a       8.45704193853845
_cell_length_b       15.764019932004587
_cell_length_c       15.71760691052447
_cell_angle_alpha    89.99997616394784
_cell_angle_beta     99.52298761181032
_cell_angle_gamma    89.99992237454883

_space_group_name_H-M_alt    "P 1"
_space_group_IT_number       1

loop_
  _space_group_symop_operation_xyz
  'x, y, z'

loop_
  _atom_site_type_symbol
  _atom_site_label
  _atom_site_symmetry_multiplicity
  _atom_site_fract_x
  _atom_site_fract_y
  _atom_site_fract_z
  _atom_site_occupancy
  Hg  Hg1       1.0  0.8984624676624406  0.29707100240096207  0.552740490932578  1.0000
  Hg  Hg2       1.0  0.1015306256258128  0.7970731178134756  0.947258933878075  1.0000
  Hg  Hg3       1.0  0.1015335318745656  0.7029278127505592  0.44725876665038555  1.0000
  Hg  Hg4       1.0  0.8984689699727538  0.20292760040432256  0.05274191695054501  1.0000
  Hg  Hg5       1.0  0.5015325741622404  0.2584477036860023  0.7821811183521062  1.0000
  Hg  Hg6       1.0  0.49846662057368707  0.7584477194772248  0.7178188678236594  1.0000
  Hg  Hg7       1.0  0.49846702228119  0.741551745820125  0.21781846009373848  1.0000
  Hg  Hg8       1.0  0.5015341748388379  0.24155173002844776  0.2821808175765526  1.0000
  H   H1        1.0  0.0870786583582586  0.2739382673038905  0.3909215869059962  1.0000
  H   H2        1.0  0.91291765265575  0.7739386612826138  0.10907851303142727  1.0000
  H   H3        1.0  0.9129197378496485  0.7260624509142346  0.6090797931598573  1.0000
  H   H4        1.0  0.08708314275590108  0.22606142257901501  0.8909211723685713  1.0000
  H   H5        1.0  0.202966144981481  0.18185765432559012  0.37803383505677607  1.0000
  H   H6        1.0  0.7970352147842094  0.6818581267516564  0.12196866467139958  1.0000
  H   H7        1.0  0.7970346491646296  0.8181430638916323  0.621967758917819  1.0000
  H   H8        1.0  0.20296917669162437  0.3181419571083737  0.8780326139749092  1.0000
  H   H9        1.0  0.21451059278274442  0.22763212151031811  0.4827537421994492  1.0000
  H   H10       1.0  0.78548344641041  0.7276326430284357  0.01724872047789459  1.0000
  H   H11       1.0  0.7854902009418082  0.7723685967067764  0.5172484879667465  1.0000
  H   H12       1.0  0.2145161491907857  0.2723661721214797  0.982752130351379  1.0000
  H   H13       1.0  0.0409903973932018  0.053937300089799585  0.356338757827011  1.0000
  H   H14       1.0  0.9590089191766183  0.5539382817630525  0.14366107130037165  1.0000
  H   H15       1.0  0.9590115969884323  0.9460621494154183  0.6436610345275682  1.0000
  H   H16       1.0  0.040989479140833396  0.4460611677437782  0.8563371278078975  1.0000
  H   H17       1.0  0.7661822519039347  0.9949730109393898  0.4151621825176264  1.0000
  H   H18       1.0  0.23381584741909478  0.49497389916530204  0.084837342951964  1.0000
  H   H19       1.0  0.2338185430852917  0.0050277072780744005  0.5848381390737529  1.0000
  H   H20       1.0  0.7661813523525608  0.5050242816301775  0.9151601130107706  1.0000
  H   H21       1.0  0.6928692248644878  0.0795535816840243  0.5927834745124725  1.0000
  H   H22       1.0  0.30712926506686233  0.5795536615400891  0.9072158916878266  1.0000
  H   H23       1.0  0.3071315697040475  0.9204465021773628  0.4072174832707347  1.0000
  H   H24       1.0  0.6928715299267338  0.4204438848975797  0.09278442990464698  1.0000
  H   H25       1.0  0.5632154463102736  0.06946231372347  0.49024644231182885  1.0000
  H   H26       1.0  0.4367802305056543  0.5694618206009565  0.009753055263821881  1.0000
  H   H27       1.0  0.43678414971072493  0.9305377701384926  0.5097537723254034  1.0000
  H   H28       1.0  0.5632169675806509  0.4305357258380694  0.9902469454655503  1.0000
  H   H29       1.0  0.6060225053477097  0.171515573031904  0.5368807160766095  1.0000
  H   H30       1.0  0.3939781291317174  0.6715149342134481  0.9631181645242392  1.0000
  H   H31       1.0  0.3939794890304141  0.8284864138971602  0.4631190762770955  1.0000
  H   H32       1.0  0.6060250646423171  0.3284832465795163  0.0368810985935397  1.0000
  H   H33       1.0  0.2788115953477828  0.36914547219559063  0.5981387139027985  1.0000
  H   H34       1.0  0.7211824988270195  0.8691490620503117  0.9018594958544527  1.0000
  H   H35       1.0  0.7211832039528332  0.6308552460238914  0.4018623452999535  1.0000
  H   H36       1.0  0.27881590159471153  0.13085292488097613  0.09813552229491758  1.0000
  H   H37       1.0  0.3169139597779562  0.4726159010706751  0.5592118385211151  1.0000
  H   H38       1.0  0.6830798467151383  0.972618234499251  0.9407894809540877  1.0000
  H   H39       1.0  0.6830808399450845  0.5273841827929714  0.4407885844902566  1.0000
  H   H40       1.0  0.3169197501489762  0.0273818493629605  0.05920946129993611  1.0000
  H   H41       1.0  0.1811901768861546  0.4031305138958031  0.4936893170522723  1.0000
  H   H42       1.0  0.8188045802794051  0.9031297469617384  0.006308042214513436  1.0000
  H   H43       1.0  0.8188058222284269  0.5968689356115532  0.5063105767220719  1.0000
  H   H44       1.0  0.1811914217895776  0.09686716512264582  0.9936873982194783  1.0000
  H   H45       1.0  0.20364937177509287  0.577569484341275  0.6453605887977645  1.0000
  H   H46       1.0  0.7963443264812113  0.07757684026901049  0.8546402595234424  1.0000
  H   H47       1.0  0.7963430291701455  0.4224280620991862  0.35464089268894833  1.0000
  H   H48       1.0  0.20365886686601437  0.9224251466595916  0.14535963978463678  1.0000
  H   H49       1.0  0.9113173628791246  0.5948896728339577  0.7059484754876378  1.0000
  H   H50       1.0  0.0886834809705874  0.09489439026631889  0.7940536388271512  1.0000
  H   H51       1.0  0.08867983352094912  0.40510787360457096  0.2940540700081513  1.0000
  H   H52       1.0  0.9113245069857285  0.9051094997279846  0.2059485968725525  1.0000
  H   H53       1.0  0.6395258299178578  0.5162220294632361  0.6541596196007617  1.0000
  H   H54       1.0  0.3604668403838716  0.016221456129471797  0.8458386192407727  1.0000
  H   H55       1.0  0.36046777252143863  0.4837786887573188  0.34583815168959825  1.0000
  H   H56       1.0  0.6395339554493445  0.9837786277322846  0.15416042996761797  1.0000
  H   H57       1.0  0.7181464767306451  0.4383395671983977  0.7327411645240076  1.0000
  H   H58       1.0  0.28184382872461106  0.9383397197583533  0.7672579491136489  1.0000
  H   H59       1.0  0.28184592589731494  0.5616605166664003  0.2672577721954069  1.0000
  H   H60       1.0  0.7181533697797491  0.06166036410463961  0.23274141542324137  1.0000
  H   H61       1.0  0.6504778688693733  0.40726568610441666  0.6236127384730992  1.0000
  H   H62       1.0  0.3495161188357088  0.9072651130776421  0.8763873536142199  1.0000
  H   H63       1.0  0.34951573272768843  0.5927343977599334  0.37638630520068966  1.0000
  H   H64       1.0  0.6504858755459182  0.09273433642757573  0.12361243874035918  1.0000
  C   C1        1.0  0.894628061720894  0.1811824291591222  0.4876519656041792  1.0000
  C   C2        1.0  0.10536850571748599  0.6811834424371952  0.012347562004819696  1.0000
  C   C3        1.0  0.10537273242609049  0.8188176547021371  0.5123496283706288  1.0000
  C   C4        1.0  0.8946310907241893  0.3188172757808517  0.9876520164405915  1.0000
  C   C5        1.0  0.1350464207873543  0.2147763041534745  0.42155255503635647  1.0000
  C   C6        1.0  0.8649512520595904  0.7147767446069366  0.07844832878067362  1.0000
  C   C7        1.0  0.8649543733596231  0.7852237797077848  0.5784490389384516  1.0000
  C   C8        1.0  0.13504954293050989  0.2852233392545712  0.9215519928109259  1.0000
  C   C9        1.0  0.968222340748582  0.08166846286660957  0.39979039114695775  1.0000
  C   C10       1.0  0.0317768975985331  0.5816688605828659  0.10021196365384098  1.0000
  C   C11       1.0  0.0317796523692451  0.9183303522822754  0.600211309782658  1.0000
  C   C12       1.0  0.9682226980017886  0.4183305889230126  0.8997888871752122  1.0000
  C   C13       1.0  0.8343865057368234  0.053048267504614395  0.42909318486378817  1.0000
  C   C14       1.0  0.1656092163794511  0.5530492145932514  0.0709063240126113  1.0000
  C   C15       1.0  0.16561309028417528  0.9469518163573482  0.5709070297734441  1.0000
  C   C16       1.0  0.8343867831558072  0.4469508692701893  0.9290929335699118  1.0000
  C   C17       1.0  0.6553478448826056  0.1083140381121552  0.5291218340948589  1.0000
  C   C18       1.0  0.3446493667007431  0.6083147005121885  0.970877405348986  1.0000
  C   C19       1.0  0.3446517507168352  0.8916860457496867  0.4708790167339814  1.0000
  C   C20       1.0  0.6553502301651263  0.391684114638096  0.02912153690547109  1.0000
  C   C21       1.0  0.9535834087490044  0.4191756143995988  0.601532545127057  1.0000
  C   C22       1.0  0.046415342379155795  0.9191777885087689  0.898467330385074  1.0000
  C   C23       1.0  0.0464149883028924  0.5808244694628186  0.3984675625558083  1.0000
  C   C24       1.0  0.9535890512035935  0.08082292970784269  0.10153076730299661  1.0000
  C   C25       1.0  0.22585844115484827  0.42343621919403057  0.5599531621931959  1.0000
  C   C26       1.0  0.7741367017282882  0.9234384873286954  0.9400457533307217  1.0000
  C   C27       1.0  0.774137557958852  0.5765638646692893  0.4400467315809351  1.0000
  C   C28       1.0  0.22586289555738398  0.07656159653363662  0.0599525527317013  1.0000
  C   C29       1.0  0.1000787038257656  0.5362228355540638  0.6400082722992976  1.0000
  C   C30       1.0  0.8999211042419119  0.0362250399514963  0.8599918668799231  1.0000
  C   C31       1.0  0.8999184934139208  0.46377724830855976  0.3599930008124089  1.0000
  C   C32       1.0  0.10008688582744439  0.9637750439076739  0.1400071878630698  1.0000
  C   C33       1.0  0.9572770234782126  0.5449246162406921  0.6691699677529996  1.0000
  C   C34       1.0  0.0427239561650552  0.0449299868103168  0.8308353619210606  1.0000
  C   C35       1.0  0.04272257128424431  0.45507102712917913  0.33083215546056977  1.0000
  C   C36       1.0  0.9572840305266012  0.9550739031836173  0.1691687823534522  1.0000
  C   C37       1.0  0.7095353540991808  0.45756945003058996  0.6651714806430533  1.0000
  C   C38       1.0  0.2904584947696449  0.957568301365569  0.8348285768097838  1.0000
  C   C39       1.0  0.2904594464669827  0.5424306338333055  0.3348276699851097  1.0000
  C   C40       1.0  0.709543499612863  0.0424305137836924  0.1651712155450156  1.0000
  I   I1        1.0  0.8066113588966317  0.2350880794012653  0.7335973209889416  1.0000
  I   I2        1.0  0.1933879003153436  0.7350851242280143  0.7664026812711953  1.0000
  I   I3        1.0  0.19338823754505088  0.7649126388167815  0.2664022574564626  1.0000
  I   I4        1.0  0.806611695705655  0.2649149596339484  0.23359753336603714  1.0000
  I   I5        1.0  0.53300573681868  0.16115014401275823  0.9422823869673065  1.0000
  I   I6        1.0  0.46699612439314825  0.6611508791656603  0.5577178801073615  1.0000
  I   I7        1.0  0.4669962575629468  0.8388493054924595  0.05771740538727239  1.0000
  I   I8        1.0  0.5330010741112047  0.33884920469732543  0.44228148442952886  1.0000
  I   I9        1.0  0.40239285323546875  0.4267106541621927  0.800979545564033  1.0000
  I   I10       1.0  0.5976046781301462  0.9267106058683935  0.6990202178065417  1.0000
  I   I11       1.0  0.5976055442388599  0.5732887953443893  0.1990199259274519  1.0000
  I   I12       1.0  0.40239611686082094  0.073288843637151  0.3009801037852781  1.0000
  I   I13       1.0  0.26095208889889676  0.1743797894776122  0.665204269928374  1.0000
  I   I14       1.0  0.7390485368316534  0.6743795864437344  0.8347958810834939  1.0000
  I   I15       1.0  0.7390487065127544  0.8256202943840165  0.3347954154716248  1.0000
  I   I16       1.0  0.2609510591910933  0.32561922870630877  0.165204333554172  1.0000
  N   N1        1.0  0.0032894689285072  0.1603409949777017  0.4368134442246755  1.0000
  N   N2        1.0  0.9967083554223776  0.6603419808318806  0.06318556849664249  1.0000
  N   N3        1.0  0.9967137239997896  0.8396590888829039  0.5631870912756582  1.0000
  N   N4        1.0  0.003294837927477099  0.33965810302884597  0.9368143308120834  1.0000
  N   N5        1.0  0.791083323353952  0.1151238094364189  0.48302917761269265  1.0000
  N   N6        1.0  0.20891342682613606  0.6151247463367042  0.0169697592868019  1.0000
  N   N7        1.0  0.2089174707930326  0.8848762744248475  0.5169724163621154  1.0000
  N   N8        1.0  0.7910873690079467  0.38487470316908906  0.9830292899218093  1.0000
  N   N9        1.0  0.09482222419645579  0.45894116199222884  0.5983817161261058  1.0000
  N   N10       1.0  0.9051728211112647  0.9589465224911605  0.9016165387596047  1.0000
  N   N11       1.0  0.905171377404109  0.5410563844482751  0.40161732754855706  1.0000
  N   N12       1.0  0.0948303735015088  0.0410548300818618  0.0983814519738786  1.0000
  N   N13       1.0  0.8690512718366392  0.47246344018316216  0.644577132830072  1.0000
  N   N14       1.0  0.1309437344690565  0.9724649358136331  0.8554236575131496  1.0000
  N   N15       1.0  0.13094472643394536  0.5275366436799089  0.3554240333272674  1.0000
  N   N16       1.0  0.8690606561627945  0.027535782402104303  0.14457889351614742  1.0000
