data_image0
_chemical_formula_structural       Ba2H12C8O20
_chemical_formula_sum              "Ba2 H12 C8 O20"
_cell_length_a       5.399659836676988
_cell_length_b       7.698732112359473
_cell_length_c       11.828395582019676
_cell_angle_alpha    76.47560063574677
_cell_angle_beta     76.82213524395316
_cell_angle_gamma    69.48104527623556

_space_group_name_H-M_alt    "P 1"
_space_group_IT_number       1

loop_
  _space_group_symop_operation_xyz
  'x, y, z'

loop_
  _atom_site_type_symbol
  _atom_site_label
  _atom_site_symmetry_multiplicity
  _atom_site_fract_x
  _atom_site_fract_y
  _atom_site_fract_z
  _atom_site_occupancy
  Ba  Ba1       1.0  0.15717948425920988  0.2501156083625772  0.7499956818179142  1.0000
  Ba  Ba2       1.0  0.8428056932680403  0.749880255454023  0.25000443217788876  1.0000
  H   H1        1.0  0.8101521037280717  0.1755789106704739  0.03804823528567174  1.0000
  H   H2        1.0  0.023671102323703626  0.32427125661716616  0.46197858416603305  1.0000
  H   H3        1.0  0.1898664532055108  0.8244183919433752  0.9619482144467212  1.0000
  H   H4        1.0  0.9763085878940957  0.6757329874310045  0.5380280333582732  1.0000
  H   H5        1.0  0.5405681043885906  0.5682755336595235  0.813235971864252  1.0000
  H   H6        1.0  0.9220058803496587  0.9320077373003882  0.6866851000855831  1.0000
  H   H7        1.0  0.4594324036049785  0.4317259655600195  0.18676285303988047  1.0000
  H   H8        1.0  0.07800266603465639  0.06798537129012769  0.3133084715174945  1.0000
  H   H9        1.0  0.6854663094421838  0.7129597520552762  0.7411314938548302  1.0000
  H   H10       1.0  0.13935045077204217  0.7873159905654604  0.7588726581430335  1.0000
  H   H11       1.0  0.3145316481572209  0.28704172562181907  0.25886986640593085  1.0000
  H   H12       1.0  0.8606587273020737  0.21267569497125288  0.24112295043296686  1.0000
  C   C1        1.0  0.07365341340305057  0.5704587975943128  0.963105680028036  1.0000
  C   C2        1.0  0.6072535817398544  0.9296396300498486  0.5369087227463396  1.0000
  C   C3        1.0  0.9263521960659771  0.42954271277022826  0.03689185974690201  1.0000
  C   C4        1.0  0.392731621483776  0.070361851704682  0.46309206475333287  1.0000
  C   C5        1.0  0.5865048035272126  0.0664824009228795  0.9809059411605574  1.0000
  C   C6        1.0  0.633846326662571  0.43354638023298975  0.5191089553122837  1.0000
  C   C7        1.0  0.41351054528247033  0.9335107012343469  0.019088440659636857  1.0000
  C   C8        1.0  0.3661308642102551  0.5664690941185384  0.48089965178434113  1.0000
  O   O1        1.0  0.6204242478930267  0.1475706724585919  0.8781776605809384  1.0000
  O   O2        1.0  0.6461446542432372  0.352578696092408  0.6218662551389614  1.0000
  O   O3        1.0  0.3795983666087183  0.8524308697326005  0.12181622636069996  1.0000
  O   O4        1.0  0.3538505348639802  0.647421313837647  0.37814241536226945  1.0000
  O   O5        1.0  0.21918137504107468  0.5358192034319699  0.866756250936504  1.0000
  O   O6        1.0  0.6216605660445679  0.9643800443955896  0.6332619785007125  1.0000
  O   O7        1.0  0.7808269785980287  0.46417809286185013  0.13324087626223508  1.0000
  O   O8        1.0  0.37833615421519806  0.03562988135708879  0.36673787411009334  1.0000
  O   O9        1.0  0.03001821411091752  0.716062064901962  0.008585216982375196  1.0000
  O   O10       1.0  0.7547710724868963  0.7840173137564933  0.4914669604041606  1.0000
  O   O11       1.0  0.9699941977834713  0.2839394390292895  0.9914131330096864  1.0000
  O   O12       1.0  0.24520560269578326  0.21597852616179838  0.5085359264043133  1.0000
  O   O13       1.0  0.7190705597556005  0.5845456076764535  0.7855494905498047  1.0000
  O   O14       1.0  0.08908415097459942  0.9157141963144967  0.7143938870861675  1.0000
  O   O15       1.0  0.2809282483187658  0.41545586121149813  0.21445291738411498  1.0000
  O   O16       1.0  0.9109226951469439  0.08427889791438045  0.28560137475465563  1.0000
  O   O17       1.0  0.6861504319080752  0.08057862616364989  0.068396092689632  1.0000
  O   O18       1.0  0.8350508085080081  0.4193456908596572  0.4316647383368206  1.0000
  O   O19       1.0  0.3138628540962573  0.9194285827361384  0.9315926217272475  1.0000
  O   O20       1.0  0.16492737591006068  0.5806542712737797  0.568349477789738  1.0000
