data_image0
_chemical_formula_structural       K4Cu2H20C28N4O20
_chemical_formula_sum              "K4 Cu2 H20 C28 N4 O20"
_cell_length_a       7.336723914001858
_cell_length_b       7.840520439520822
_cell_length_c       15.494881563551955
_cell_angle_alpha    99.09268240864384
_cell_angle_beta     90.00004145441582
_cell_angle_gamma    90.00006515011654

_space_group_name_H-M_alt    "P 1"
_space_group_IT_number       1

loop_
  _space_group_symop_operation_xyz
  'x, y, z'

loop_
  _atom_site_type_symbol
  _atom_site_label
  _atom_site_symmetry_multiplicity
  _atom_site_fract_x
  _atom_site_fract_y
  _atom_site_fract_z
  _atom_site_occupancy
  K   K1        1.0  0.9468727010425226  0.4623993898917149  0.25821039411355434  1.0000
  K   K2        1.0  0.4468661871112757  0.5376184618200099  0.2417909729557692  1.0000
  K   K3        1.0  0.05311589824366789  0.5376166975244416  0.7417960313693044  1.0000
  K   K4        1.0  0.5531251381759715  0.46238839906697393  0.7582083266588951  1.0000
  Cu  Cu1       1.0  0.9999967773080557  4.2186354680118156e-07  0.9999994764599691  1.0000
  Cu  Cu2       1.0  0.5000001202847101  1.1357605487011356e-06  0.4999983244402486  1.0000
  H   H1        1.0  0.7774190437148434  0.9138447232956536  0.8265118089854158  1.0000
  H   H2        1.0  0.2774214000859345  0.08615402872543143  0.6734870015035386  1.0000
  H   H3        1.0  0.22258045960820994  0.08615957313774199  0.1734879494450112  1.0000
  H   H4        1.0  0.7225821922491918  0.9138437357479885  0.32650969980235095  1.0000
  H   H5        1.0  0.4793071900697043  0.020733517447176605  0.7797761911994245  1.0000
  H   H6        1.0  0.979311566055969  0.9792628871176416  0.7202225184036308  1.0000
  H   H7        1.0  0.5206923132524607  0.9792694874634692  0.2202234732410417  1.0000
  H   H8        1.0  0.020694752295831596  0.020737553338619798  0.2797776048523134  1.0000
  H   H9        1.0  0.4281231974259896  0.3243651513753534  0.03724828559975182  1.0000
  H   H10       1.0  0.9281262058638261  0.6756306482272904  0.46274888837829314  1.0000
  H   H11       1.0  0.5718694908628023  0.6756327246146012  0.9627522964672439  1.0000
  H   H12       1.0  0.07187602346833441  0.32436597341977347  0.5372528932886241  1.0000
  H   H13       1.0  0.56452364944883  0.40376252490615616  0.4059263971357936  1.0000
  H   H14       1.0  0.06451970621959899  0.5962392150775314  0.09406785596589631  1.0000
  H   H15       1.0  0.4354758538672596  0.5962352209777322  0.5940696573753074  1.0000
  H   H16       1.0  0.9354784340955148  0.40376249830956107  0.9059317144843251  1.0000
  H   H17       1.0  0.6500974066331224  0.5793603428066234  0.4454712625499724  1.0000
  H   H18       1.0  0.15009590843526144  0.4206440614948902  0.0545225686543489  1.0000
  H   H19       1.0  0.3499061857028778  0.4206387131895468  0.5545255327458778  1.0000
  H   H20       1.0  0.8499035948853687  0.5793588876543085  0.9454751554043881  1.0000
  C   C1        1.0  0.7554286653264555  0.2186390219621757  0.0969272661870377  1.0000
  C   C2        1.0  0.25543633619668066  0.7813617979743127  0.40307214963397797  1.0000
  C   C3        1.0  0.24456129695138168  0.7813601641360889  0.9030740566632363  1.0000
  C   C4        1.0  0.7445713451590165  0.21863604085009306  0.5969271388484358  1.0000
  C   C5        1.0  0.6697772601343105  0.1729604963908855  0.008349912353551802  1.0000
  C   C6        1.0  0.1697837622907059  0.8270363862023017  0.49165047813556134  1.0000
  C   C7        1.0  0.33021542815426125  0.8270348523150088  0.9916524221152586  1.0000
  C   C8        1.0  0.8302225560608677  0.17296152696989958  0.5083513975221905  1.0000
  C   C9        1.0  0.6977998679400343  0.007425809176560011  0.8706127468782798  1.0000
  C   C10       1.0  0.19779920142030247  0.9925818905925395  0.6293866871923797  1.0000
  C   C11       1.0  0.3021941833579477  0.9925772143180536  0.1293875643549214  1.0000
  C   C12       1.0  0.8021962128837076  0.007422387251324398  0.3706124244432516  1.0000
  C   C13       1.0  0.4277435012764742  0.1820860942590201  0.904898038298086  1.0000
  C   C14       1.0  0.9277488446329799  0.8179077414385602  0.5951030482565757  1.0000
  C   C15       1.0  0.5722532760284268  0.8179104344491177  0.09510050939810812  1.0000
  C   C16       1.0  0.0722588367226393  0.1820863157533239  0.4048991922255142  1.0000
  C   C17       1.0  0.24575221480521486  0.25188025164001  0.8795382346539071  1.0000
  C   C18       1.0  0.7457561470690307  0.7481197549519791  0.6204606561644255  1.0000
  C   C19       1.0  0.7542445625066562  0.7481228276176423  0.12046401696161271  1.0000
  C   C20       1.0  0.2542515342898212  0.25188197702783555  0.3795395610817565  1.0000
  C   C21       1.0  0.5297739362780546  0.06667730831942718  0.8454286983519879  1.0000
  C   C22       1.0  0.0297759605965879  0.9333185902601783  0.6545704641179882  1.0000
  C   C23       1.0  0.47022420403668963  0.9333231321320666  0.15457142490218706  1.0000
  C   C24       1.0  0.9702276317393342  0.0666766841034843  0.3454292831775376  1.0000
  C   C25       1.0  0.5008538872502867  0.23535882173272424  0.9881100036842058  1.0000
  C   C26       1.0  0.0008541165689663997  0.7646357329884381  0.5118884055255464  1.0000
  C   C27       1.0  0.49914561606790636  0.7646339625187933  0.011892789600075596  1.0000
  C   C28       1.0  0.9991549277906271  0.23535950420410495  0.4881100481833371  1.0000
  N   N1        1.0  0.7660606756864964  0.06102224906088339  0.9506481717814524  1.0000
  N   N2        1.0  0.2660598181805227  0.9389764711168312  0.5493499870129527  1.0000
  N   N3        1.0  0.2339361016227315  0.9389769556285119  0.04935379786419961  1.0000
  N   N4        1.0  0.7339437741570121  0.06102264064078611  0.45064874866462656  1.0000
  O   O1        1.0  0.9113756173202604  0.1474510347209161  0.1072869099070743  1.0000
  O   O2        1.0  0.41138199824072075  0.8525512773029147  0.392713313972287  1.0000
  O   O3        1.0  0.08861434495669579  0.8525468598545983  0.8927143189532389  1.0000
  O   O4        1.0  0.5886229571035031  0.14744785304265656  0.6072860684994907  1.0000
  O   O5        1.0  0.6744075966824424  0.31802010728824825  0.1553676804496149  1.0000
  O   O6        1.0  0.1744150526969221  0.6819677586366241  0.3446327009014283  1.0000
  O   O7        1.0  0.32558918062039055  0.6819675294578147  0.8446353836681626  1.0000
  O   O8        1.0  0.8255967176730367  0.3180223682279433  0.6553673172299526  1.0000
  O   O9        1.0  0.656996847333758  0.48960227397548545  0.3932896858510092  1.0000
  O   O10       1.0  0.15700508329634738  0.5104072301252386  0.10670193711598591  1.0000
  O   O11       1.0  0.34299992997299  0.5104006194106674  0.6067060978254162  1.0000
  O   O12       1.0  0.8429971460366303  0.48959571902554433  0.893295786943341  1.0000
  O   O13       1.0  0.22990994744510826  0.2745347163146973  0.8010385886088899  1.0000
  O   O14       1.0  0.7299153358878671  0.7254639988558226  0.6989608481794392  1.0000
  O   O15       1.0  0.7700854668583118  0.7254657613095075  0.1989628282325171  1.0000
  O   O16       1.0  0.2700882564542225  0.27454031616711205  0.301039557045776  1.0000
  O   O17       1.0  0.12609942188728238  0.2847395350039576  0.9397539677860679  1.0000
  O   O18       1.0  0.6261032198022817  0.7152526014129066  0.5602449542687822  1.0000
  O   O19       1.0  0.8739000814383286  0.7152648543651877  0.06024902461390982  1.0000
  O   O20       1.0  0.37390718756312674  0.28474136284482643  0.43975405224435354  1.0000
