data_image0
_chemical_formula_structural       Cu4H44C32N12Cl8
_chemical_formula_sum              "Cu4 H44 C32 N12 Cl8"
_cell_length_a       7.286327433065684
_cell_length_b       11.494129818150283
_cell_length_c       13.18987115335014
_cell_angle_alpha    106.6639727813315
_cell_angle_beta     90.00046291115635
_cell_angle_gamma    90.00001752334127

_space_group_name_H-M_alt    "P 1"
_space_group_IT_number       1

loop_
  _space_group_symop_operation_xyz
  'x, y, z'

loop_
  _atom_site_type_symbol
  _atom_site_label
  _atom_site_symmetry_multiplicity
  _atom_site_fract_x
  _atom_site_fract_y
  _atom_site_fract_z
  _atom_site_occupancy
  Cu  Cu1       1.0  0.2870730049966141  0.2691777661719641  0.5125755876551992  1.0000
  Cu  Cu2       1.0  0.2129223626328809  0.7691682184005162  0.012573489018180341  1.0000
  Cu  Cu3       1.0  0.7129225856475258  0.7308304208487401  0.48742394028845853  1.0000
  Cu  Cu4       1.0  0.7870718555758032  0.2308227408085202  0.9874263536030057  1.0000
  H   H1        1.0  0.3063356299226995  0.5393617073022412  0.574393323643406  1.0000
  H   H2        1.0  0.1936632774352276  0.0393579155413519  0.0743865351466724  1.0000
  H   H3        1.0  0.6936640780758765  0.46063745642931764  0.42561384269681923  1.0000
  H   H4        1.0  0.8063309407585991  0.9606366583465729  0.9256111632377895  1.0000
  H   H5        1.0  0.9573834278277787  0.2080337673806341  0.350595689806191  1.0000
  H   H6        1.0  0.54261173721153  0.7080315818992702  0.8505907372737909  1.0000
  H   H7        1.0  0.042617652591310694  0.7919671992234784  0.6494096451541369  1.0000
  H   H8        1.0  0.45737973610783206  0.29196479932564057  0.1494058889855836  1.0000
  H   H9        1.0  0.7347023756258864  0.24990482128907132  0.4041436280422915  1.0000
  H   H10       1.0  0.7652963414143485  0.7499003078378055  0.9041383364043939  1.0000
  H   H11       1.0  0.2652973323596797  0.7500961453138119  0.5958617069146754  1.0000
  H   H12       1.0  0.23470062162421357  0.25009424818007625  0.09585632492721892  1.0000
  H   H13       1.0  0.9091063039153793  0.20556230241807333  0.4827544969510811  1.0000
  H   H14       1.0  0.5908894286590254  0.7055583831101373  0.9827485750047986  1.0000
  H   H15       1.0  0.09089340406460168  0.7944359397712405  0.5172501683887631  1.0000
  H   H16       1.0  0.4091034170864134  0.2944343655645909  0.017247158435104392  1.0000
  H   H17       1.0  0.5918446324759258  0.18979747753189707  0.6249322822723116  1.0000
  H   H18       1.0  0.9081458365804522  0.689786482836418  0.12493372968995695  1.0000
  H   H19       1.0  0.4081413511057193  0.8102188469758078  0.3750631803800887  1.0000
  H   H20       1.0  0.0918524989585308  0.31020268690938485  0.8750702221192344  1.0000
  H   H21       1.0  0.0736065814432862  0.0192091307904718  0.4040061596008897  1.0000
  H   H22       1.0  0.4263902953641932  0.5191940722693786  0.9040096075772227  1.0000
  H   H23       1.0  0.9263876367357538  0.980805377448938  0.5959888566602417  1.0000
  H   H24       1.0  0.5736121574121498  0.48079686013829087  0.09598567947477221  1.0000
  H   H25       1.0  0.1927332645429018  0.9136488317562764  0.29964341150135715  1.0000
  H   H26       1.0  0.30725678377504545  0.4136303395555602  0.7996515970539804  1.0000
  H   H27       1.0  0.8072609536101325  0.08637200217120271  0.7003478523454945  1.0000
  H   H28       1.0  0.6927333171535321  0.5863597293844336  0.20035105941098413  1.0000
  H   H29       1.0  0.22191114803623438  0.07401896681511741  0.3205432228631508  1.0000
  H   H30       1.0  0.2780735503653986  0.5739991273992757  0.8205493845900805  1.0000
  H   H31       1.0  0.7780748355398615  0.926002793115316  0.6794513012288235  1.0000
  H   H32       1.0  0.7219096883918609  0.4259891252588304  0.1794528254466812  1.0000
  H   H33       1.0  0.9045954363231558  0.42270544731555765  0.7061133416254464  1.0000
  H   H34       1.0  0.5954306503946042  0.922693724263773  0.2060851657735512  1.0000
  H   H35       1.0  0.09541936856498981  0.5772983464814345  0.2939101260780745  1.0000
  H   H36       1.0  0.4045786644024503  0.0772934638954368  0.7938902468501325  1.0000
  H   H37       1.0  0.7517990970545797  0.4852859861953077  0.8131793921322554  1.0000
  H   H38       1.0  0.7482148688159425  0.9852718674267537  0.31316040557474173  1.0000
  H   H39       1.0  0.24820747316924496  0.5147195702524315  0.18683541078384286  1.0000
  H   H40       1.0  0.2517834665817488  0.014716282477969897  0.6868243414064708  1.0000
  H   H41       1.0  0.813179196877897  0.5745288924433821  0.7261927424524188  1.0000
  H   H42       1.0  0.6868415237607975  0.0745186777986504  0.2261752468990181  1.0000
  H   H43       1.0  0.18684247012206606  0.4254748566784985  0.27382313261899344  1.0000
  H   H44       1.0  0.3131595565039548  0.9254749119994087  0.773809320793383  1.0000
  C   C1        1.0  0.9444244106668191  0.3813590126214309  0.4635980673580562  1.0000
  C   C2        1.0  0.5555711270494612  0.8813550297276151  0.9635919725697591  1.0000
  C   C3        1.0  0.0555725524814576  0.6186428844574721  0.5364112871223555  1.0000
  C   C4        1.0  0.44442309113879463  0.11863953969218947  0.03640496654981009  1.0000
  C   C5        1.0  0.168474437309186  0.521830652654991  0.5415361561796104  1.0000
  C   C6        1.0  0.3315212339361437  0.021824384678979004  0.041529372729925705  1.0000
  C   C7        1.0  0.8315266431508022  0.4781712533638824  0.4584747168406622  1.0000
  C   C8        1.0  0.6684729842595304  0.9781656574559463  0.9584687281557721  1.0000
  C   C9        1.0  0.8813923285888805  0.25348594529917534  0.4232421248731342  1.0000
  C   C10       1.0  0.6186066707428496  0.7534802685501776  0.9232374106812672  1.0000
  C   C11       1.0  0.11861012428045829  0.7465150347105621  0.5767654878852256  1.0000
  C   C12       1.0  0.3813875474528317  0.24651249353017593  0.0767606005566606  1.0000
  C   C13       1.0  0.5517869761850988  0.10477488703142511  0.5679826622915769  1.0000
  C   C14       1.0  0.9482135939942182  0.6047576119668534  0.0679835025950624  1.0000
  C   C15       1.0  0.4482141041727131  0.8952450700412842  0.4320136932205899  1.0000
  C   C16       1.0  0.05178885886763139  0.3952315756551812  0.9320234862837609  1.0000
  C   C17       1.0  0.358220676933783  0.0029703739431851993  0.4324279516983794  1.0000
  C   C18       1.0  0.14177660937910733  0.5029466744520049  0.9324355906143539  1.0000
  C   C19       1.0  0.6417735412211341  0.9970540880675712  0.567563445706412  1.0000
  C   C20       1.0  0.8582244710361876  0.4970361562038193  0.06756983582115343  1.0000
  C   C21       1.0  0.20294575562061104  0.001968175003227699  0.35922896584703773  1.0000
  C   C22       1.0  0.2970504550318083  0.5019492868166112  0.859236962151421  1.0000
  C   C23       1.0  0.7970484625231364  0.9980535581258466  0.6407610026757382  1.0000
  C   C24       1.0  0.7029465080606414  0.4980389658538512  0.14076524791891387  1.0000
  C   C25       1.0  0.6302552830896531  0.4317762706170214  0.6649871894511891  1.0000
  C   C26       1.0  0.8697578522562283  0.9317714922634152  0.16497786315001406  1.0000
  C   C27       1.0  0.36975265949330793  0.5682255996629948  0.3350176094667462  1.0000
  C   C28       1.0  0.1302432280699009  0.0682275865749205  0.8350148771606456  1.0000
  C   C29       1.0  0.784613380248075  0.482491589072403  0.7312694908692311  1.0000
  C   C30       1.0  0.7153966362218896  0.9824782880833496  0.231245252065321  1.0000
  C   C31       1.0  0.2154014246214828  0.5175140031277792  0.26875138618614614  1.0000
  C   C32       1.0  0.2846058164112791  0.0175079963999565  0.7687306966007554  1.0000
  N   N1        1.0  0.11401735846607149  0.40596621723369  0.5060347601635159  1.0000
  N   N2        1.0  0.3859807252561396  0.9059651185247618  0.006029443173886809  1.0000
  N   N3        1.0  0.88598097710085  0.5940338546344891  0.49397262937906566  1.0000
  N   N4        1.0  0.614016237817765  0.0940330923851818  0.993969907305008  1.0000
  N   N5        1.0  0.4138569224591464  0.1081641604811523  0.5018222587045926  1.0000
  N   N6        1.0  0.0861327183213874  0.6081535433304879  0.0018307053596515789  1.0000
  N   N7        1.0  0.58613317838401  0.8918494128079217  0.49816797875141117  1.0000
  N   N8        1.0  0.9138656172380522  0.39183745609541637  0.9981759706556234  1.0000
  N   N9        1.0  0.5067523297515492  0.3891342680037439  0.6111580139012461  1.0000
  N   N10       1.0  0.9932846977195312  0.8891233371853459  0.11114469256402508  1.0000
  N   N11       1.0  0.493283061540879  0.6108785133596086  0.3888517413470325  1.0000
  N   N12       1.0  0.0067397139596608  0.1108702883787558  0.8888459493045886  1.0000
  Cl  Cl1       1.0  0.4040292245575685  0.2705843302704452  0.3501545416569201  1.0000
  Cl  Cl2       1.0  0.09596972978717838  0.7705695492605713  0.8501505216858334  1.0000
  Cl  Cl3       1.0  0.5959773455658989  0.7294293055872603  0.6498463255478484  1.0000
  Cl  Cl4       1.0  0.9040231159954217  0.2294196026077771  0.14985039305035744  1.0000
  Cl  Cl5       1.0  0.11722301011317168  0.23758649761494877  0.6504779083872663  1.0000
  Cl  Cl6       1.0  0.38278122969190065  0.7375826910672885  0.15047570243204686  1.0000
  Cl  Cl7       1.0  0.8827808151711026  0.7624162807992081  0.34952711372630324  1.0000
  Cl  Cl8       1.0  0.617221223127231  0.2624155287838549  0.8495251665900625  1.0000
