data_image0
_chemical_formula_structural       Cu4H36C36I4N12
_chemical_formula_sum              "Cu4 H36 C36 I4 N12"
_cell_length_a       10.104890969362456
_cell_length_b       10.469703694978774
_cell_length_c       11.708479208847365
_cell_angle_alpha    77.26586723583837
_cell_angle_beta     73.56063251600939
_cell_angle_gamma    89.12826705158496

_space_group_name_H-M_alt    "P 1"
_space_group_IT_number       1

loop_
  _space_group_symop_operation_xyz
  'x, y, z'

loop_
  _atom_site_type_symbol
  _atom_site_label
  _atom_site_symmetry_multiplicity
  _atom_site_fract_x
  _atom_site_fract_y
  _atom_site_fract_z
  _atom_site_occupancy
  Cu  Cu1       1.0  0.1945522537815094  0.6535242087528772  0.6391158095704268  1.0000
  Cu  Cu2       1.0  0.8054461021602463  0.3464758961591343  0.3608853493958718  1.0000
  Cu  Cu3       1.0  0.34039603745608826  0.8109275021954118  0.4320159479161916  1.0000
  Cu  Cu4       1.0  0.6596024311549158  0.1890745505132756  0.5679839230386746  1.0000
  H   H1        1.0  0.9246316367597203  0.24531912281460683  0.130335124398094  1.0000
  H   H2        1.0  0.07536075190420631  0.7546849235239962  0.869666659102698  1.0000
  H   H3        1.0  0.0473427973791019  0.524544719159195  0.2873829378748453  1.0000
  H   H4        1.0  0.95265876461643  0.4754573365518055  0.7126170364174839  1.0000
  H   H5        1.0  0.1233020639158511  0.3253054930493278  0.9384695564640565  1.0000
  H   H6        1.0  0.876694869722641  0.6746877654946956  0.06153423051228657  1.0000
  H   H7        1.0  0.8287931520474743  0.957771190522493  0.5363518402611902  1.0000
  H   H8        1.0  0.1712129666214537  0.04223882453158719  0.46365390933755884  1.0000
  H   H9        1.0  0.4991912681136199  0.03408372571610129  0.8146095692450427  1.0000
  H   H10       1.0  0.5008016048994789  0.9659104357659131  0.18538903493394795  1.0000
  H   H11       1.0  0.8288764501993667  0.7284182751497923  0.6584609285716425  1.0000
  H   H12       1.0  0.17114004168956848  0.2715926741323855  0.3415412562153223  1.0000
  H   H13       1.0  0.6397630699564231  0.49406505278565044  0.20772804257426702  1.0000
  H   H14       1.0  0.36023305594329  0.5059321176302449  0.7922742696774845  1.0000
  H   H15       1.0  0.7432361725833373  0.5476754081102159  0.5133168117118672  1.0000
  H   H16       1.0  0.2567601201275238  0.4523247034398993  0.4866848462348372  1.0000
  H   H17       1.0  0.5678843445434366  0.7229520195475984  0.5375398488064674  1.0000
  H   H18       1.0  0.43211315244126774  0.2770509779798047  0.46245749811271236  1.0000
  H   H19       1.0  0.2138266837821874  0.7097439256143759  0.13366190983447976  1.0000
  H   H20       1.0  0.7861756917993645  0.2902541663868803  0.8663361319501631  1.0000
  H   H21       1.0  0.43550218573597027  0.6044776117045884  0.9423318568986543  1.0000
  H   H22       1.0  0.5644960677692268  0.3955204546944629  0.057664627422596426  1.0000
  H   H23       1.0  0.3173811808636345  0.7214241673497811  0.9074468602330581  1.0000
  H   H24       1.0  0.6826171253216556  0.2785749053462824  0.09255110960264548  1.0000
  H   H25       1.0  0.41367681235160336  0.8769540986018358  0.9987691222185686  1.0000
  H   H26       1.0  0.5863223571761721  0.1230420426004244  0.0012301042400509141  1.0000
  H   H27       1.0  0.28378414399414703  0.5426686026431681  0.28516057765727243  1.0000
  H   H28       1.0  0.7162162239602239  0.4573304763742598  0.7148377450060932  1.0000
  H   H29       1.0  0.414944878391502  0.49407349094874314  0.16837023723611821  1.0000
  H   H30       1.0  0.5850564070472686  0.5059236499124324  0.8316299757565488  1.0000
  H   H31       1.0  0.3847786022231148  0.7651924468568723  0.22919436542882463  1.0000
  H   H32       1.0  0.6152217130511701  0.2348056258635439  0.7708024717200812  1.0000
  H   H33       1.0  0.6182382455451007  0.8246542373636886  0.07507422600883716  1.0000
  H   H34       1.0  0.3817629901371973  0.1753418712815318  0.9249227978532346  1.0000
  H   H35       1.0  0.6201761467928932  0.6680335684814976  0.041356151613605646  1.0000
  H   H36       1.0  0.3798229685929826  0.3319615793832256  0.9586424411386287  1.0000
  C   C1        1.0  0.9970585487532374  0.32582193886921823  0.12109958573304169  1.0000
  C   C2        1.0  0.0029368206259760866  0.6741801626750286  0.8789035891166462  1.0000
  C   C3        1.0  0.06441281007005269  0.4802847245564196  0.20832996768240253  1.0000
  C   C4        1.0  0.9355886977835722  0.5197163378170443  0.7916693729035414  1.0000
  C   C5        1.0  0.10620308115608879  0.37044195058296486  0.01690596086247347  1.0000
  C   C6        1.0  0.8937961922700596  0.6295562161727871  0.9830970884331263  1.0000
  C   C7        1.0  0.17543366041076777  0.5235394263887371  0.10330722251003273  1.0000
  C   C8        1.0  0.8245645301816538  0.47645772442958656  0.8966937389532459  1.0000
  C   C9        1.0  0.7557998869615902  0.923433123572245  0.6265551999053965  1.0000
  C   C10       1.0  0.2442061263471516  0.0765748788878042  0.3734475786644467  1.0000
  C   C11       1.0  0.5747022416948367  0.9657722209823659  0.7807533313239431  1.0000
  C   C12       1.0  0.42529530943176747  0.034231769882580906  0.21924464930162907  1.0000
  C   C13       1.0  0.7544633014553668  0.7964699963269765  0.695272007112109  1.0000
  C   C14       1.0  0.24554499457551054  0.20354194692620814  0.3047311036867341  1.0000
  C   C15       1.0  0.5754441398167245  0.8389372325816212  0.8503939611800316  1.0000
  C   C16       1.0  0.4245542161250385  0.16106287233039038  0.1496071977862669  1.0000
  C   C17       1.0  0.6227498660911478  0.5452535349773768  0.28202754091177695  1.0000
  C   C18       1.0  0.37724534378598656  0.4547455606353097  0.7179720292026132  1.0000
  C   C19       1.0  0.6797885723290094  0.5749586776894517  0.45105690600836795  1.0000
  C   C20       1.0  0.3202086978553993  0.4250404372040677  0.5489438687417447  1.0000
  C   C21       1.0  0.5851170619416948  0.6715821704956255  0.4633385715395875  1.0000
  C   C22       1.0  0.414878259142867  0.32841888587319795  0.5366605623714307  1.0000
  C   C23       1.0  0.5292870558503964  0.6447123570907038  0.29158274433314085  1.0000
  C   C24       1.0  0.4707121722047277  0.35528473857069537  0.7084145604076538  1.0000
  C   C25       1.0  0.2756603246630362  0.6299044101427568  0.10108143292882941  1.0000
  C   C26       1.0  0.7243421065222293  0.3700946622365677  0.8989163907541309  1.0000
  C   C27       1.0  0.3742629112428233  0.6841686175048523  0.9743140244712193  1.0000
  C   C28       1.0  0.6257362056048664  0.3158265174003958  0.02568371647294033  1.0000
  C   C29       1.0  0.4742035776848468  0.7927928986838141  0.9754460558950054  1.0000
  C   C30       1.0  0.5257988505767984  0.20720619961445413  0.024553471404097072  1.0000
  C   C31       1.0  0.3564396657217159  0.5779582704015878  0.1938941078754084  1.0000
  C   C32       1.0  0.6435617338481096  0.4220408052967882  0.8061039652977584  1.0000
  C   C33       1.0  0.45203258673323177  0.6878665172047107  0.19834428179423463  1.0000
  C   C34       1.0  0.5479645751673629  0.31213061101372114  0.8016552255431008  1.0000
  C   C35       1.0  0.5516092318502999  0.7442613764712578  0.07118901480259143  1.0000
  C   C36       1.0  0.44839096929292294  0.2557347614119507  0.9288099621658217  1.0000
  I   I1        1.0  0.09429213485994838  0.7047582794727845  0.4453339677519351  1.0000
  I   I2        1.0  0.9057073639046892  0.2952437828763265  0.5546665055207995  1.0000
  I   I3        1.0  0.3234489202235764  0.8629751116528934  0.6514175702869237  1.0000
  I   I4        1.0  0.6765469817994684  0.13701815021018146  0.3485864661796256  1.0000
  N   N1        1.0  0.9748978718458261  0.3824608856217466  0.21733957346781085  1.0000
  N   N2        1.0  0.0250975004570151  0.6175411900035642  0.7826618977657346  1.0000
  N   N3        1.0  0.1948945707151566  0.469365283278144  0.006420001822988269  1.0000
  N   N4        1.0  0.8051033960005896  0.5306279589873598  0.9935826838550877  1.0000
  N   N5        1.0  0.664675234617853  0.008880834369541898  0.6695926890533882  1.0000
  N   N6        1.0  0.3353251830929834  0.9911192768638415  0.3304088227405727  1.0000
  N   N7        1.0  0.6658245245039253  0.7535204212053658  0.806674157527034  1.0000
  N   N8        1.0  0.33418431147983085  0.24648261756929196  0.19332555584832534  1.0000
  N   N9        1.0  0.6957909421744048  0.5066725508297694  0.3628575025762542  1.0000
  N   N10       1.0  0.30420523932902904  0.49332559996419434  0.637144591573815  1.0000
  N   N11       1.0  0.5052899581482464  0.7046723575477715  0.3869206630440089  1.0000
  N   N12       1.0  0.4947074276290309  0.2953286792234806  0.6130771200785359  1.0000
