data_image0
_chemical_formula_structural       Zn2H32C36N4O12
_chemical_formula_sum              "Zn2 H32 C36 N4 O12"
_cell_length_a       5.36080983368035
_cell_length_b       8.886409755204378
_cell_length_c       17.437937959028357
_cell_angle_alpha    96.04425103873405
_cell_angle_beta     89.99623246621981
_cell_angle_gamma    90.00178947005904

_space_group_name_H-M_alt    "P 1"
_space_group_IT_number       1

loop_
  _space_group_symop_operation_xyz
  'x, y, z'

loop_
  _atom_site_type_symbol
  _atom_site_label
  _atom_site_symmetry_multiplicity
  _atom_site_fract_x
  _atom_site_fract_y
  _atom_site_fract_z
  _atom_site_occupancy
  Zn  Zn1       1.0  0.49999945894683157  0.4999997672821834  0.9999988958109681  1.0000
  Zn  Zn2       1.0  0.9999944345437369  9.3300080906e-06  4.8176944745e-06  1.0000
  H   H1        1.0  0.5943795267588854  0.6702848578198726  0.48877869844069016  1.0000
  H   H2        1.0  0.09446082497123598  0.8296899061159734  0.5112063517212702  1.0000
  H   H3        1.0  0.40568711288095466  0.32967624461648626  0.5112117360292672  1.0000
  H   H4        1.0  0.9055218701151445  0.17031978960449828  0.4887963014728242  1.0000
  H   H5        1.0  0.9444173280514647  0.8886073773486062  0.24623057004976795  1.0000
  H   H6        1.0  0.4444739717896979  0.6113714536119019  0.7537492869503948  1.0000
  H   H7        1.0  0.055578427091198514  0.11138286603085848  0.7537583517048246  1.0000
  H   H8        1.0  0.5555236454771588  0.38865572973426055  0.2462590050707263  1.0000
  H   H9        1.0  0.1129818920702093  0.541121041243308  0.2936270916641135  1.0000
  H   H10       1.0  0.6130748476954652  0.958857891533718  0.7063809118470273  1.0000
  H   H11       1.0  0.8870437071028121  0.45884458401826583  0.7063743755976901  1.0000
  H   H12       1.0  0.3868947903679896  0.0411468662461019  0.29361758870373916  1.0000
  H   H13       1.0  0.87186845776489  0.8147233542327897  0.408684170302365  1.0000
  H   H14       1.0  0.3719402851969491  0.6852514447159167  0.5912926365191992  1.0000
  H   H15       1.0  0.1281981831842316  0.1852290624666111  0.5912985650737355  1.0000
  H   H16       1.0  0.628064794028404  0.31477437010862996  0.40871332161051294  1.0000
  H   H17       1.0  0.21821642166663927  0.5375376282783434  0.43193463420207917  1.0000
  H   H18       1.0  0.7183197127690804  0.9624362499002572  0.568064462657702  1.0000
  H   H19       1.0  0.7818352938488147  0.46242972060512955  0.5680617109982435  1.0000
  H   H20       1.0  0.28165738609853713  0.03755542488052299  0.4319382799356361  1.0000
  H   H21       1.0  0.0088364774188321  0.4664518161090925  0.925246851388941  1.0000
  H   H22       1.0  0.5087741261759503  0.033550818326546106  0.0747549317075737  1.0000
  H   H23       1.0  0.9911592762133665  0.5335483623490874  0.0747509515966271  1.0000
  H   H24       1.0  0.49121602977325546  0.9664604251432748  0.9252517829309781  1.0000
  H   H25       1.0  0.30958814490073655  0.645813363703951  0.15530608381121877  1.0000
  H   H26       1.0  0.8096647871917424  0.8541733518277825  0.8446875555316635  1.0000
  H   H27       1.0  0.6904001474973142  0.3541764653778259  0.8446897179519296  1.0000
  H   H28       1.0  0.19032536903595337  0.1458444928623308  0.15531761394036175  1.0000
  H   H29       1.0  0.8777538253997575  0.33535803608182857  0.9664307996401859  1.0000
  H   H30       1.0  0.37772850230042815  0.16465974089412333  0.03357916494522328  1.0000
  H   H31       1.0  0.1222381968461548  0.6646470203672693  0.03357058017314779  1.0000
  H   H32       1.0  0.6222691160034372  0.8353498954326783  0.9664229123381316  1.0000
  C   C1        1.0  0.6968829941292186  0.8093386031040668  0.09855504593422637  1.0000
  C   C2        1.0  0.19693011843406785  0.6906554596106034  0.9014395740516716  1.0000
  C   C3        1.0  0.30310343236828885  0.1906571743770371  0.9014437871903523  1.0000
  C   C4        1.0  0.8030674995571443  0.3093600058375331  0.0985643828556206  1.0000
  C   C5        1.0  0.639137504492041  0.7774144043897665  0.17684664705601696  1.0000
  C   C6        1.0  0.13918559496000427  0.7225762048790115  0.8231454098039845  1.0000
  C   C7        1.0  0.3608582489700182  0.2225757230996024  0.8231520340144767  1.0000
  C   C8        1.0  0.8607952345260654  0.2774381302436809  0.17685851674847436  1.0000
  C   C9        1.0  0.5517527893513758  0.6751770755621963  0.4279819793822383  1.0000
  C   C10       1.0  0.051842978003484995  0.8247878095550053  0.5720094178997712  1.0000
  C   C11       1.0  0.4482765415544066  0.32480151358397796  0.5720140940715055  1.0000
  C   C12       1.0  0.948135985826717  0.17521540419046028  0.4279959322039487  1.0000
  C   C13       1.0  0.775683857450879  0.82131139694733  0.24337931962344325  1.0000
  C   C14       1.0  0.27574536691827933  0.6786740099728308  0.756613371540311  1.0000
  C   C15       1.0  0.2243193582699092  0.1786760530233096  0.7566152695525827  1.0000
  C   C16       1.0  0.7242485195813942  0.3213486531836836  0.24339479887112958  1.0000
  C   C17       1.0  0.6545869607068013  0.7577160822260253  0.3049067875014089  1.0000
  C   C18       1.0  0.1546792248653901  0.7422626392936779  0.6950848420346886  1.0000
  C   C19       1.0  0.3454255819723286  0.24226797781498993  0.6950877104309753  1.0000
  C   C20       1.0  0.8453109310713881  0.2577531243003719  0.3049219942247418  1.0000
  C   C21       1.0  0.4395296919480955  0.6780943537596401  0.27274800188170184  1.0000
  C   C22       1.0  0.9396317324724421  0.8218923991898565  0.7272447358019676  1.0000
  C   C23       1.0  0.5604679269130912  0.32189238366926526  0.727250587967539  1.0000
  C   C24       1.0  0.0603490972983352  0.17812627709101037  0.2727575847735223  1.0000
  C   C25       1.0  0.2778708009233952  0.5999312967259983  0.3180145194287718  1.0000
  C   C26       1.0  0.7779663392672661  0.900050976360646  0.6819797948881143  1.0000
  C   C27       1.0  0.7221380102797285  0.4000543108681072  0.6819840399816641  1.0000
  C   C28       1.0  0.2220107601511216  0.0999561609228294  0.31801991818259256  1.0000
  C   C29       1.0  0.708205175857941  0.755520346265044  0.38391002982999817  1.0000
  C   C30       1.0  0.20828734690538653  0.7444521066488861  0.6160787615976844  1.0000
  C   C31       1.0  0.2918297517248832  0.24445342457827482  0.6160830426563348  1.0000
  C   C32       1.0  0.791706539597392  0.25556942647656905  0.3839293784085384  1.0000
  C   C33       1.0  0.3385106232919028  0.5987899635933687  0.39540314746384536  1.0000
  C   C34       1.0  0.8385880466827658  0.90118759599423  0.6045900446252261  1.0000
  C   C35       1.0  0.6615168422240673  0.401188625520092  0.6045929259954974  1.0000
  C   C36       1.0  0.16140210978649347  0.09881430895038079  0.3954135474418407  1.0000
  N   N1        1.0  0.4358048033738696  0.6923170394442978  0.19535453405702435  1.0000
  N   N2        1.0  0.9358838692895972  0.8076697017798652  0.8046393777857899  1.0000
  N   N3        1.0  0.5641890849120017  0.307667318546372  0.8046428432610853  1.0000
  N   N4        1.0  0.06409136423135918  0.1923422538718853  0.1953633362411296  1.0000
  O   O1        1.0  0.6122865266505713  0.7280436389355388  0.038701850103677785  1.0000
  O   O2        1.0  0.11230961591214587  0.7719537594727656  0.9612888532405535  1.0000
  O   O3        1.0  0.38770922726322243  0.2719620107118814  0.9612943773101321  1.0000
  O   O4        1.0  0.887691733251735  0.22806259745044596  0.038712830596971094  1.0000
  O   O5        1.0  0.8464883934816851  0.41901674505918873  0.9327159183521371  1.0000
  O   O6        1.0  0.346441818789934  0.08099487803180239  0.06728892955050718  1.0000
  O   O7        1.0  0.15350549486284853  0.5809822436798698  0.06728127836785798  1.0000
  O   O8        1.0  0.6535520682204777  0.9190218366926716  0.9327162095051021  1.0000
  O   O9        1.0  0.83091247927446  0.9282823965921025  0.09272641686441568  1.0000
  O   O10       1.0  0.33093476331982435  0.5717086348977317  0.9072689134577627  1.0000
  O   O11       1.0  0.16906275447873037  0.07171700940731537  0.9072748109732058  1.0000
  O   O12       1.0  0.6690516630351694  0.42830302267352494  0.09273092120582757  1.0000
