data_image0
_chemical_formula_structural       Co8H56C48N32O24
_chemical_formula_sum              "Co8 H56 C48 N32 O24"
_cell_length_a       12.24670650807982
_cell_length_b       12.248623975906227
_cell_length_c       15.732332242084654
_cell_angle_alpha    112.90035585836645
_cell_angle_beta     112.89949418767839
_cell_angle_gamma    89.99883489403989

_space_group_name_H-M_alt    "P 1"
_space_group_IT_number       1

loop_
  _space_group_symop_operation_xyz
  'x, y, z'

loop_
  _atom_site_type_symbol
  _atom_site_label
  _atom_site_symmetry_multiplicity
  _atom_site_fract_x
  _atom_site_fract_y
  _atom_site_fract_z
  _atom_site_occupancy
  Co  Co1       1.0  0.01626818555400444  0.5039785454895737  0.626324866342067  1.0000
  Co  Co2       1.0  0.610110188881052  0.12244700781266003  0.6264289596996593  1.0000
  Co  Co3       1.0  0.12233968711722552  0.016341252055767138  0.6264228245516607  1.0000
  Co  Co4       1.0  0.5041016928147501  0.6101375163594581  0.6264714690551048  1.0000
  Co  Co5       1.0  0.9837347601377148  0.4960237377606234  0.3736745893820841  1.0000
  Co  Co6       1.0  0.3898834976053394  0.8775515089133992  0.37357475619868563  1.0000
  Co  Co7       1.0  0.8776516640715074  0.983662040784971  0.37358036738997696  1.0000
  Co  Co8       1.0  0.4958996487675548  0.38986154427725955  0.3735281882381615  1.0000
  H   H1        1.0  0.8156486571874453  0.5752902612196849  0.8358539588665794  1.0000
  H   H2        1.0  0.02054624875678006  0.26070384898888227  0.8361048589826724  1.0000
  H   H3        1.0  0.2606767497668799  0.8156455144980159  0.8359487879795325  1.0000
  H   H4        1.0  0.5754188719423254  0.020417344267677648  0.8360146206405477  1.0000
  H   H5        1.0  0.18435571799973624  0.42471039239257635  0.16414781107133083  1.0000
  H   H6        1.0  0.9794616452561655  0.7392937949469316  0.163898608768264  1.0000
  H   H7        1.0  0.7393197351376202  0.18435640853988391  0.16404694824731803  1.0000
  H   H8        1.0  0.42457689240585955  0.9795779548430943  0.163983089921196  1.0000
  H   H9        1.0  0.20156372101049408  0.6762396884606189  0.9999712434226852  1.0000
  H   H10       1.0  0.7984412290819307  0.32376080216391767  3.0200486861661574e-05  1.0000
  H   H11       1.0  0.32395346646342926  0.20154069159315927  0.9999584933780171  1.0000
  H   H12       1.0  0.6760516716705426  0.7984602722820925  4.582584164590527e-05  1.0000
  H   H13       1.0  0.2591075492258028  0.5512291189010695  0.44378787259790203  1.0000
  H   H14       1.0  0.18476579206616617  0.8926497883314469  0.443774250787648  1.0000
  H   H15       1.0  0.8925972651578961  0.2589829751701416  0.4436254716557359  1.0000
  H   H16       1.0  0.5511320545144045  0.18486229431142223  0.4437224342801614  1.0000
  H   H17       1.0  0.7408959713711596  0.44877300136140263  0.5562112570978855  1.0000
  H   H18       1.0  0.8152280757479815  0.1073513911456772  0.5562296448743214  1.0000
  H   H19       1.0  0.10739543662252521  0.7410126656285314  0.5563709937377013  1.0000
  H   H20       1.0  0.4488618018312281  0.815137047588927  0.5562760724459397  1.0000
  H   H21       1.0  0.7972154204908932  0.6463295594278267  0.9998165309685164  1.0000
  H   H22       1.0  0.20278835082815053  0.353673191835604  0.00018643247409504251  1.0000
  H   H23       1.0  0.353556006525487  0.7972939387949721  0.9999669934726968  1.0000
  H   H24       1.0  0.6464388742695917  0.20270476162944823  2.8944323268947136e-05  1.0000
  H   H25       1.0  0.2679629543787456  0.5920040736891609  0.7898312197749391  1.0000
  H   H26       1.0  0.5218502715298001  0.19776044877356472  0.7898111658287023  1.0000
  H   H27       1.0  0.19767998648003982  0.2679088538084855  0.7897040513385108  1.0000
  H   H28       1.0  0.5920259080162253  0.5218580099643972  0.7898300818297772  1.0000
  H   H29       1.0  0.7320352889591035  0.40799945279925265  0.2101653642798669  1.0000
  H   H30       1.0  0.4781457078637672  0.8022396055019457  0.21018855040971132  1.0000
  H   H31       1.0  0.8023144333023139  0.7320884875273637  0.21028874042335155  1.0000
  H   H32       1.0  0.407975285955949  0.4781404803349433  0.21017122161291027  1.0000
  H   H33       1.0  0.4118861914014074  0.628413190215376  0.7946403413537979  1.0000
  H   H34       1.0  0.382689175497802  0.1662847319717855  0.7946046411190012  1.0000
  H   H35       1.0  0.16616713892648252  0.41182745584596603  0.7944838852481625  1.0000
  H   H36       1.0  0.6283887938199656  0.3827268986333935  0.7946118665906142  1.0000
  H   H37       1.0  0.5881142955906853  0.3715873370715528  0.20535667569735255  1.0000
  H   H38       1.0  0.6173066273227334  0.8337166866297918  0.20539758874516428  1.0000
  H   H39       1.0  0.8338256680735867  0.5881750689542216  0.20550641037920792  1.0000
  H   H40       1.0  0.37161142691475396  0.6172705533153292  0.2053875752830408  1.0000
  H   H41       1.0  0.0720967729555468  0.8003969481414899  0.7015091209173931  1.0000
  H   H42       1.0  0.6293411019378112  0.9011011553617223  0.7014803766923026  1.0000
  H   H43       1.0  0.9011732602857947  0.07208892140655378  0.701500461105127  1.0000
  H   H44       1.0  0.8004616045202725  0.6293732365022606  0.7014750357624921  1.0000
  H   H45       1.0  0.9279058215491817  0.19960184718335233  0.29849536421539125  1.0000
  H   H46       1.0  0.37065405182843847  0.09889843090056162  0.29851583182765046  1.0000
  H   H47       1.0  0.09883695363815545  0.9279145419927417  0.29849813735241787  1.0000
  H   H48       1.0  0.19954504607970588  0.3706327268996717  0.29852899092768587  1.0000
  H   H49       1.0  0.9607855699609685  0.7430930003721627  0.7075938691588776  1.0000
  H   H50       1.0  0.7466819753527998  0.9643741441629247  0.7074196582906184  1.0000
  H   H51       1.0  0.964481134630951  0.9607559131771596  0.7075852891849267  1.0000
  H   H52       1.0  0.7430872685243557  0.7467197667647908  0.7075963933502153  1.0000
  H   H53       1.0  0.03919674044664836  0.25690846755301777  0.2923896002338537  1.0000
  H   H54       1.0  0.25331454998310937  0.035627681788312826  0.2925805993957625  1.0000
  H   H55       1.0  0.035515739096304344  0.039239157044832516  0.29240724786056665  1.0000
  H   H56       1.0  0.2569135554953235  0.2532886447435274  0.29243053465076235  1.0000
  C   C1        1.0  0.025990050113769207  0.5819458935168313  0.8112711518564951  1.0000
  C   C2        1.0  0.7854545572351839  0.22942401375557614  0.811393171083097  1.0000
  C   C3        1.0  0.22934443685903014  0.02591962123374714  0.8112929837788486  1.0000
  C   C4        1.0  0.5820338128133004  0.7854401119993569  0.8113906664093876  1.0000
  C   C5        1.0  0.9740148372981353  0.4180544393574693  0.18872933361634392  1.0000
  C   C6        1.0  0.2145475425391936  0.7705713300670142  0.1886063421025456  1.0000
  C   C7        1.0  0.7706529026356819  0.9740808351539412  0.18870539269011755  1.0000
  C   C8        1.0  0.41796850872025715  0.21455779748763598  0.18861354799940244  1.0000
  C   C9        1.0  0.01033833560230601  0.6229155466624903  0.907501112759114  1.0000
  C   C10       1.0  0.8973421510418972  0.2846464554331405  0.9076382663094337  1.0000
  C   C11       1.0  0.28476659969505397  0.01031035890026296  0.9075370904470718  1.0000
  C   C12       1.0  0.6228773340889903  0.8973068282133668  0.9076153255784336  1.0000
  C   C13       1.0  0.9896644914421842  0.3770842315868849  0.09249912163812024  1.0000
  C   C14       1.0  0.1026620090999018  0.7153494430143753  0.09236149795181356  1.0000
  C   C15       1.0  0.7152304378655855  0.9896911463130068  0.09246188277424505  1.0000
  C   C16       1.0  0.377124070173835  0.10269239017359413  0.09238529015154039  1.0000
  C   C17       1.0  0.8960395226057329  0.6146168368396516  0.9076156302914458  1.0000
  C   C18       1.0  0.011802561886995216  0.2931174343710695  0.9078372906963567  1.0000
  C   C19       1.0  0.29317064362226836  0.8960471096925104  0.9076997855926409  1.0000
  C   C20       1.0  0.6146508222116511  0.011734768205329305  0.9077649482767429  1.0000
  C   C21       1.0  0.10396373173386311  0.3853822080846144  0.09238592422684633  1.0000
  C   C22       1.0  0.9882001465102448  0.7068798388774765  0.0921637223739611  1.0000
  C   C23       1.0  0.706827816720029  0.10395495538317333  0.09229880629593643  1.0000
  C   C24       1.0  0.38534839632271906  0.9882635800562268  0.09223349950421789  1.0000
  C   C25       1.0  0.1128826585418636  0.6713126540123326  0.9999462960594059  1.0000
  C   C26       1.0  0.8871207434078627  0.32868696124931784  5.361230946500683e-05  1.0000
  C   C27       1.0  0.3288590085642868  0.11288061352068013  0.9999587087528641  1.0000
  C   C28       1.0  0.6711415188592226  0.8871198166795863  4.282975781687916e-05  1.0000
  C   C29       1.0  0.24261994911292825  0.5542228941147799  0.507266675860862  1.0000
  C   C30       1.0  0.2646951473790224  0.9531454322615218  0.5072449223408527  1.0000
  C   C31       1.0  0.9530425877221022  0.2425274845321895  0.5071252567269443  1.0000
  C   C32       1.0  0.554166019483155  0.2647804026635825  0.5072353443423055  1.0000
  C   C33       1.0  0.7573824843540747  0.4457797098733777  0.49273406432836014  1.0000
  C   C34       1.0  0.7352979015216123  0.04685308970202583  0.49275816114915494  1.0000
  C   C35       1.0  0.04695265768756221  0.757470324816893  0.49287104275337873  1.0000
  C   C36       1.0  0.44583502016508453  0.7352197067987236  0.4927649097033113  1.0000
  C   C37       1.0  0.2697736630291275  0.5752725336165981  0.6561923467228042  1.0000
  C   C38       1.0  0.38638424394619625  0.08101434681916693  0.6561483169097501  1.0000
  C   C39       1.0  0.08095366870804822  0.26972625335080386  0.6560351044774393  1.0000
  C   C40       1.0  0.5752543817319095  0.3864650336630078  0.6561733557772487  1.0000
  C   C41       1.0  0.7302280991344929  0.42472798319536054  0.34380593514503505  1.0000
  C   C42       1.0  0.6136093798596746  0.918984012156656  0.3438544405518941  1.0000
  C   C43       1.0  0.9190438473596956  0.7302728387108247  0.343960758365775  1.0000
  C   C44       1.0  0.4247461456916  0.6135353965372518  0.3438281827334323  1.0000
  C   C45       1.0  0.8858648182233323  0.654952990567395  0.9998699936473445  1.0000
  C   C46       1.0  0.1141398926155404  0.3450487066329657  0.0001330054512607315  1.0000
  C   C47       1.0  0.34503399593419465  0.8859107613233733  0.9999647615825966  1.0000
  C   C48       1.0  0.6549644933710042  0.11408936908887315  3.296282964992175e-05  1.0000
  N   N1        1.0  0.1500433387682705  0.5415789714871623  0.5969406668508058  1.0000
  N   N2        1.0  0.4469022698735331  0.05546041938387704  0.596913527676499  1.0000
  N   N3        1.0  0.05537762866330808  0.1500023785692548  0.5968259073298513  1.0000
  N   N4        1.0  0.5415438603505649  0.44697262728715265  0.5969353528142494  1.0000
  N   N5        1.0  0.8499592712717643  0.45842226817493537  0.40305755971265733  1.0000
  N   N6        1.0  0.5530919288375813  0.9445377766042213  0.40308890375678186  1.0000
  N   N7        1.0  0.9446190105651197  0.8499979253056795  0.40317087829406995  1.0000
  N   N8        1.0  0.4584614253935513  0.5530289069254835  0.40306732025599257  1.0000
  N   N9        1.0  0.33117182114843746  0.5851044516227616  0.6023429434364971  1.0000
  N   N10       1.0  0.2711553876938028  0.017360149045828215  0.6022991842290468  1.0000
  N   N11       1.0  0.017279964444483608  0.3310946968823387  0.6021724776290823  1.0000
  N   N12       1.0  0.585061992830127  0.27124868852798295  0.6023014436675213  1.0000
  N   N13       1.0  0.668830003695696  0.41489622293944  0.39765629686803555  1.0000
  N   N14       1.0  0.7288394196401811  0.9826399763682332  0.3977047470889091  1.0000
  N   N15       1.0  0.9827177619139107  0.66890512326691  0.39782269750141125  1.0000
  N   N16       1.0  0.41493444282144054  0.7287486977589879  0.3976987252156123  1.0000
  N   N17       1.0  0.3215990727320702  0.5967427022114152  0.755240116124341  1.0000
  N   N18       1.0  0.4336218871492648  0.15848928118258956  0.7552217982033512  1.0000
  N   N19       1.0  0.15847106307298736  0.32155291191474333  0.7550958564353324  1.0000
  N   N20       1.0  0.5968119274653744  0.4336680998021692  0.7552375758274154  1.0000
  N   N21       1.0  0.6784018415551286  0.4032570917504117  0.24475822104786732  1.0000
  N   N22       1.0  0.5663754927768636  0.8415110781184367  0.24478109972515238  1.0000
  N   N23       1.0  0.8415236633981636  0.6784474076726427  0.24489903196356294  1.0000
  N   N24       1.0  0.40318799133527244  0.5663304009721417  0.2447624627985904  1.0000
  N   N25       1.0  0.1343424915045049  0.5278949187917662  0.5006487629830404  1.0000
  N   N26       1.0  0.366373456558165  0.972812917798642  0.5006340152515211  1.0000
  N   N27       1.0  0.9727196439271707  0.1342647399019157  0.5005468483970932  1.0000
  N   N28       1.0  0.5278366125250215  0.366433204408068  0.5006298541756067  1.0000
  N   N29       1.0  0.8656603915067009  0.4721072067081949  0.49934973430441  1.0000
  N   N30       1.0  0.6336201672477131  0.0271854411771812  0.4993687422101232  1.0000
  N   N31       1.0  0.027273574832697996  0.8657346072359148  0.4994510259206635  1.0000
  N   N32       1.0  0.47216888350975245  0.6335690578921884  0.4993721311819146  1.0000
  O   O1        1.0  0.12911885307433107  0.5674483167103048  0.8121992570418897  1.0000
  O   O2        1.0  0.6832959927470411  0.2447977277554543  0.8124258407393017  1.0000
  O   O3        1.0  0.24447159165398366  0.12907822145356823  0.8122169198033122  1.0000
  O   O4        1.0  0.567606232264751  0.6832946214886277  0.8123839981763156  1.0000
  O   O5        1.0  0.8708859137312644  0.4325557277406347  0.1878020049469172  1.0000
  O   O6        1.0  0.31670729055544194  0.7551993825053668  0.18757484630265964  1.0000
  O   O7        1.0  0.7555211371302589  0.8709217012591354  0.18777867595667194  1.0000
  O   O8        1.0  0.43239688593322273  0.31670569067502913  0.18762459142726587  1.0000
  O   O9        1.0  0.010127763891773485  0.7277227712240517  0.6699947232676493  1.0000
  O   O10       1.0  0.6597186308657115  0.9424761073330006  0.6700422792146487  1.0000
  O   O11       1.0  0.9423751916786002  0.010128422850684202  0.67001401211634  1.0000
  O   O12       1.0  0.7277320255169145  0.659803938406455  0.6699916473685125  1.0000
  O   O13       1.0  0.9898784343683431  0.2722734270114912  0.33000885509203226  1.0000
  O   O14       1.0  0.3402786217403104  0.05753015304501475  0.32995869968333125  1.0000
  O   O15       1.0  0.0576451812270307  0.9898812704129867  0.32999018125804014  1.0000
  O   O16       1.0  0.2722848393435271  0.3402071817937938  0.33000189623413695  1.0000
  O   O17       1.0  0.9341795918295688  0.5620438332088826  0.727208580228343  1.0000
  O   O18       1.0  0.7931542077116944  0.1653691232134804  0.7272875505778772  1.0000
  O   O19       1.0  0.16533047831022427  0.9340700420615704  0.7272403174634335  1.0000
  O   O20       1.0  0.5622092451073826  0.7931264156075386  0.7273046825056185  1.0000
  O   O21       1.0  0.06582338478412449  0.4379502988004019  0.2727900101765925  1.0000
  O   O22       1.0  0.206848319357789  0.8346254872840079  0.2727132827288231  1.0000
  O   O23       1.0  0.8346688655851864  0.06592862170045778  0.27276004719092856  1.0000
  O   O24       1.0  0.43779691943511523  0.2068676902143238  0.27269706994102466  1.0000
