data_image0
_chemical_formula_structural       Co8P16H80C100O48
_chemical_formula_sum              "Co8 P16 H80 C100 O48"
_cell_length_a       12.820480164599752
_cell_length_b       15.733322986926408
_cell_length_c       20.462095165184188
_cell_angle_alpha    89.97334740224636
_cell_angle_beta     99.15136459914449
_cell_angle_gamma    90.1691148605817

_space_group_name_H-M_alt    "P 1"
_space_group_IT_number       1

loop_
  _space_group_symop_operation_xyz
  'x, y, z'

loop_
  _atom_site_type_symbol
  _atom_site_label
  _atom_site_symmetry_multiplicity
  _atom_site_fract_x
  _atom_site_fract_y
  _atom_site_fract_z
  _atom_site_occupancy
  Co  Co1       1.0  0.6492517417381549  0.35025464651741334  0.22257270758907313  1.0000
  Co  Co2       1.0  0.8503949831106182  0.85079855930519  0.2796764982725435  1.0000
  Co  Co3       1.0  0.3531408437043949  0.6508212021404136  0.7782908860983326  1.0000
  Co  Co4       1.0  0.14727754991148598  0.149109260995786  0.7194695896617063  1.0000
  Co  Co5       1.0  0.6494326322893187  0.6497902143019588  0.23331057990213816  1.0000
  Co  Co6       1.0  0.8484000790111563  0.14917593192043202  0.2683992594483513  1.0000
  Co  Co7       1.0  0.3524368667522636  0.3496286453427971  0.7657477461981657  1.0000
  Co  Co8       1.0  0.14984439336842567  0.8500902936096183  0.7314953539677305  1.0000
  P   P1        1.0  0.3189146115100526  0.23093801589717336  0.6438986053494773  1.0000
  P   P2        1.0  0.17988525724169335  0.7311414702055927  0.8528090139246985  1.0000
  P   P3        1.0  0.6802596938383729  0.7677394373333897  0.35558596850525964  1.0000
  P   P4        1.0  0.82030031391335  0.26848707353892814  0.1471616711858417  1.0000
  P   P5        1.0  0.4793232939176234  0.5072886530733456  0.1880233979002455  1.0000
  P   P6        1.0  0.021692590062087895  0.008491356823760999  0.3110828486497752  1.0000
  P   P7        1.0  0.5219377827875815  0.493161343261761  0.8125735674904034  1.0000
  P   P8        1.0  0.9762451260509408  0.9911376111369776  0.6883807659999377  1.0000
  P   P9        1.0  0.3349903874066697  0.7712194719516461  0.6557275382315382  1.0000
  P   P10       1.0  0.1692080588265981  0.26809180380698894  0.8420108133268228  1.0000
  P   P11       1.0  0.6654279889793526  0.22916608618806586  0.34496562111686296  1.0000
  P   P12       1.0  0.8318198263470575  0.7314076252972017  0.1568359847282537  1.0000
  P   P13       1.0  0.8159997633926607  0.49637588125819593  0.26296574450609717  1.0000
  P   P14       1.0  0.681309435330803  0.9946892915538043  0.2387772925756266  1.0000
  P   P15       1.0  0.18748990055915016  0.5041542864687117  0.7363455394876723  1.0000
  P   P16       1.0  0.3153521825629753  0.005035893571864801  0.7619605587997  1.0000
  H   H1        1.0  0.40371996803774823  0.3911490261649818  0.4006779815790011  1.0000
  H   H2        1.0  0.09475376231601017  0.8899534709419116  0.0987386236923271  1.0000
  H   H3        1.0  0.5969964082265519  0.6080808937115807  0.5993132117615971  1.0000
  H   H4        1.0  0.9037304532944501  0.1096937927040287  0.9009021449953708  1.0000
  H   H5        1.0  0.4883161185944971  0.3879334639520665  0.3005965585204393  1.0000
  H   H6        1.0  0.010658140465402297  0.8882563193559818  0.1990662294579124  1.0000
  H   H7        1.0  0.5120520009358174  0.6116343101090395  0.6991603951340792  1.0000
  H   H8        1.0  0.9881530091585373  0.1110842404516106  0.8007150144863857  1.0000
  H   H9        1.0  0.3606889073098002  0.6359718099692202  0.24519189932497198  1.0000
  H   H10       1.0  0.14032130006151528  0.13680625797327653  0.2522793170264492  1.0000
  H   H11       1.0  0.6450128871463219  0.3658683743699598  0.757178712943336  1.0000
  H   H12       1.0  0.8538359833247351  0.8643707329508175  0.7459969583173347  1.0000
  H   H13       1.0  0.2702763138531026  0.6360410271853426  0.3431353327751197  1.0000
  H   H14       1.0  0.2304159054872627  0.13528315053151374  0.15421612859169187  1.0000
  H   H15       1.0  0.7354014228711279  0.36566502120674477  0.6592393984052694  1.0000
  H   H16       1.0  0.7640342077383477  0.8660962384369384  0.8441159365701766  1.0000
  H   H17       1.0  0.17655629552104554  0.3942188530597265  0.3394757717871215  1.0000
  H   H18       1.0  0.32202567616187844  0.8902682837748018  0.1578272314885467  1.0000
  H   H19       1.0  0.8262520550261739  0.606154515280693  0.6611586515882379  1.0000
  H   H20       1.0  0.6744182878389038  0.1100893475683122  0.8420677868261421  1.0000
  H   H21       1.0  0.9991390744685658  0.3855430578381416  0.2722927951698395  1.0000
  H   H22       1.0  0.4983118844325601  0.8817862243270936  0.22646534320328732  1.0000
  H   H23       1.0  0.004177018079005309  0.6150827217044822  0.7276536713053332  1.0000
  H   H24       1.0  0.4976055948837938  0.11815884678006941  0.7739833452128551  1.0000
  H   H25       1.0  0.9144247458520027  0.6211582887793411  0.3582834354890707  1.0000
  H   H26       1.0  0.5849264510993846  0.11920508693187769  0.1432261933847769  1.0000
  H   H27       1.0  0.08878953781940879  0.38015224456254515  0.6405769245686699  1.0000
  H   H28       1.0  0.4122068817985252  0.880891008513018  0.8579082672311387  1.0000
  H   H29       1.0  0.09029931382530519  0.6268406383337819  0.4281077263899391  1.0000
  H   H30       1.0  0.4102426458388777  0.1247352826641333  0.07200779992932381  1.0000
  H   H31       1.0  0.9126058477567085  0.3744656260115633  0.5712379817215449  1.0000
  H   H32       1.0  0.5873708313047388  0.8757078426322307  0.9286317836384939  1.0000
  H   H33       1.0  0.4088272892047228  0.6417321121628277  0.44629687517490885  1.0000
  H   H34       1.0  0.0918589880657379  0.13905298551858894  0.050713840915555905  1.0000
  H   H35       1.0  0.5962120449307162  0.3563598435866667  0.556393532643014  1.0000
  H   H36       1.0  0.9048219319656068  0.8606368618706383  0.9470762569775245  1.0000
  H   H37       1.0  0.44388964637393963  0.7459738675575807  0.536532279162067  1.0000
  H   H38       1.0  0.0591344492997408  0.24324843769582566  0.9603787643480716  1.0000
  H   H39       1.0  0.5602912563287247  0.25201933719032615  0.4661691933292929  1.0000
  H   H40       1.0  0.9395402483874021  0.756412290919009  0.0373652793700217  1.0000
  H   H41       1.0  0.1759915414425635  0.6499137584683298  0.6181245911429372  1.0000
  H   H42       1.0  0.328514602369971  0.14744500377463512  0.8809759458561999  1.0000
  H   H43       1.0  0.8232227291367449  0.35158835520833515  0.3812320039748514  1.0000
  H   H44       1.0  0.6731023100342383  0.8526748473826301  0.1196042539685891  1.0000
  H   H45       1.0  0.14537516509503934  0.5423867117965102  0.5298350395217071  1.0000
  H   H46       1.0  0.357003943864015  0.0400625861261474  0.9695413227238348  1.0000
  H   H47       1.0  0.8546522824321767  0.45883907118653877  0.4696296475940258  1.0000
  H   H48       1.0  0.6425834370532257  0.959999907719464  0.031082051221723417  1.0000
  H   H49       1.0  0.1267493279799012  0.3685072014635154  0.44660929090382956  1.0000
  H   H50       1.0  0.37136387619774064  0.8663787596442631  0.051280624653905704  1.0000
  H   H51       1.0  0.8731135755089453  0.6333447107498672  0.5542114265118911  1.0000
  H   H52       1.0  0.6260049338983649  0.13332047030631597  0.9493685141340293  1.0000
  H   H53       1.0  0.15636298669928553  0.2570140403578093  0.5316084329294171  1.0000
  H   H54       1.0  0.3413593556359372  0.7561005888998765  0.9654607852812589  1.0000
  H   H55       1.0  0.8424661126717651  0.7440628401046964  0.4686524247227765  1.0000
  H   H56       1.0  0.6567706713519995  0.2432567165679274  0.03555047903661551  1.0000
  H   H57       1.0  0.45749012175776466  0.368385163178388  0.6100902186071551  1.0000
  H   H58       1.0  0.040695706981985304  0.8675392783843636  0.8877879821114476  1.0000
  H   H59       1.0  0.5445161796340017  0.6283484494132311  0.3889614216331765  1.0000
  H   H60       1.0  0.9583166893296208  0.13218553840223993  0.11146978186170031  1.0000
  H   H61       1.0  0.4300609545098125  0.4783740631144227  0.5233008501571135  1.0000
  H   H62       1.0  0.06859537880287546  0.9763718289337435  0.9754301737998502  1.0000
  H   H63       1.0  0.5727584849184594  0.5193961665932038  0.4765032178760791  1.0000
  H   H64       1.0  0.9296441746877732  0.023700599401642798  0.023538355352108905  1.0000
  H   H65       1.0  0.3587484350833136  0.09507565997345319  0.6429427104501784  1.0000
  H   H66       1.0  0.14306461780451224  0.5944002742094767  0.8540370760158068  1.0000
  H   H67       1.0  0.6387782749617512  0.9033463697939155  0.3570788417933315  1.0000
  H   H68       1.0  0.8597113820900188  0.40473966477337353  0.1456087139978663  1.0000
  H   H69       1.0  0.36617321229618927  0.45057864971285266  0.1104789692012318  1.0000
  H   H70       1.0  0.135228545676604  0.9529029635689737  0.38875456642300327  1.0000
  H   H71       1.0  0.6361437999152171  0.5484715352338655  0.890207278759398  1.0000
  H   H72       1.0  0.8610952594624949  0.046284338216779006  0.6114066239111793  1.0000
  H   H73       1.0  0.8530621746636768  0.5542217784431428  0.1687193466956955  1.0000
  H   H74       1.0  0.641468298430972  0.05261180203746112  0.3323136701330753  1.0000
  H   H75       1.0  0.150856620641278  0.4457787313651168  0.8306089932631907  1.0000
  H   H76       1.0  0.3558778118019461  0.9471324995407786  0.6684459911899197  1.0000
  H   H77       1.0  0.4799975239259169  0.8453903541202124  0.6577187359745124  1.0000
  H   H78       1.0  0.0268749664976866  0.3443814350490087  0.8404650554047421  1.0000
  H   H79       1.0  0.5188805848609945  0.15680211279321546  0.3423103848074973  1.0000
  H   H80       1.0  0.9765811800348698  0.6578278513068696  0.1591452041629964  1.0000
  C   C1        1.0  0.2572151341838946  0.5100814455475842  0.4318028815965461  1.0000
  C   C2        1.0  0.24255630463541414  0.0078597979121895  0.0666389041861848  1.0000
  C   C3        1.0  0.7450740082846038  0.4901127944387725  0.5688396357126138  1.0000
  C   C4        1.0  0.7549164984880576  0.9923597796545138  0.9329066961735181  1.0000
  C   C5        1.0  0.32958790183464964  0.5130583028494724  0.3787414963817142  1.0000
  C   C6        1.0  0.1701066258214112  0.011930345702275203  0.11966618186052358  1.0000
  C   C7        1.0  0.6731772842020121  0.48720177736724685  0.6222606412932451  1.0000
  C   C8        1.0  0.8267314263352858  0.9884495077023558  0.8795044516593934  1.0000
  C   C9        1.0  0.3936841174783864  0.44499333187571477  0.3667330016288872  1.0000
  C   C10       1.0  0.10543801259749587  0.9442067767283646  0.1322870304729307  1.0000
  C   C11       1.0  0.6078728304847157  0.5547222680843334  0.6336867195211155  1.0000
  C   C12       1.0  0.892328238969185  0.05566037136174631  0.8671590859251951  1.0000
  C   C13       1.0  0.44186897049627305  0.4432326554470976  0.3100293656138504  1.0000
  C   C14       1.0  0.0574656524096895  0.9433419886248158  0.1891183733672435  1.0000
  C   C15       1.0  0.5594843179935721  0.5566378387592366  0.6903407622576906  1.0000
  C   C16       1.0  0.9404453469084614  0.0563962715908559  0.8103555686017287  1.0000
  C   C17       1.0  0.4282431868894818  0.5107056738522149  0.2649904756921444  1.0000
  C   C18       1.0  0.071793049215394  0.011338533506055596  0.2336753286329767  1.0000
  C   C19       1.0  0.5743303624438737  0.48989679599995367  0.7360200329534337  1.0000
  C   C20       1.0  0.9250791714293667  0.9887934796275033  0.7654711746752626  1.0000
  C   C21       1.0  0.3693889128847019  0.5818662460739932  0.2789749776185246  1.0000
  C   C22       1.0  0.1310823877772904  0.0822168358647204  0.21898103635730592  1.0000
  C   C23       1.0  0.6348504867674761  0.4193275149295772  0.7227844766123539  1.0000
  C   C24       1.0  0.8643145971317665  0.9185443402432227  0.779686325827555  1.0000
  C   C25       1.0  0.320068492614716  0.5823370970392787  0.33464338651536707  1.0000
  C   C26       1.0  0.18021943897197454  0.08181256715761978  0.1632116859711701  1.0000
  C   C27       1.0  0.6842406280492097  0.418723894234688  0.667118818098821  1.0000
  C   C28       1.0  0.8152631054736901  0.9190522913563444  0.8354754238577158  1.0000
  C   C29       1.0  0.14517195050635218  0.5093194995101911  0.39079985903588726  1.0000
  C   C30       1.0  0.3544035317335457  0.0064254787187465  0.1079404083670994  1.0000
  C   C31       1.0  0.8574994771236815  0.4914524168632114  0.6092651093669303  1.0000
  C   C32       1.0  0.6427215754752706  0.9938812865810365  0.8921918805547547  1.0000
  C   C33       1.0  0.11838572820502687  0.4430987088572422  0.3448728189020756  1.0000
  C   C34       1.0  0.38040563186820725  0.9396175963214546  0.1533675627122193  1.0000
  C   C35       1.0  0.8845331767251423  0.5575393167757596  0.6552935760840413  1.0000
  C   C36       1.0  0.6162543042821724  0.06067787938344081  0.8468158746392688  1.0000
  C   C37       1.0  0.0191502453644929  0.4387565921380059  0.3062818180740905  1.0000
  C   C38       1.0  0.478970490395298  0.9353611037620054  0.192786545297011  1.0000
  C   C39       1.0  0.9840820440086161  0.5620159647769681  0.693530785454236  1.0000
  C   C40       1.0  0.5173977046614764  0.06472995515857599  0.8077234196192363  1.0000
  C   C41       1.0  0.9446511848965072  0.5027977244122398  0.3114482119543709  1.0000
  C   C42       1.0  0.553661538921176  6.16996056522001e-05  0.1888598673630213  1.0000
  C   C43       1.0  0.058676658965680396  0.4981733611763417  0.6879357548724983  1.0000
  C   C44       1.0  0.442992901591758  0.9999285016251065  0.811944228878545  1.0000
  C   C45       1.0  0.9715739903105244  0.5707214761817525  0.355004545165002  1.0000
  C   C46       1.0  0.527614279806059  0.0683307787423644  0.1455719165448812  1.0000
  C   C47       1.0  0.0316593510619683  0.4305222566325071  0.6441342201129601  1.0000
  C   C48       1.0  0.4693275006990447  0.9318242973191319  0.8553474691066967  1.0000
  C   C49       1.0  0.07109623642652  0.5735200982410332  0.39440473463181297  1.0000
  C   C50       1.0  0.42878936970030407  0.07107705909836427  0.10539917580501881  1.0000
  C   C51       1.0  0.9318797111860063  0.427673708779608  0.6050373834256959  1.0000
  C   C52       1.0  0.5684433007756766  0.929292594879648  0.895219119955911  1.0000
  C   C53       1.0  0.27400229055304237  0.5848177381084341  0.48080766079088016  1.0000
  C   C54       1.0  0.22741482799546014  0.0824212972507823  0.017460729070045  1.0000
  C   C55       1.0  0.7283140670356543  0.41503831621550086  0.5200946070479162  1.0000
  C   C56       1.0  0.7707501245072947  0.9175746762231753  0.9818738342837179  1.0000
  C   C57       1.0  0.3570712475471182  0.643070995036183  0.48355104489836254  1.0000
  C   C58       1.0  0.14447514677609516  0.1404872902520182  0.0139458956098508  1.0000
  C   C59       1.0  0.6466100376257485  0.35576283046396645  0.5183616363039505  1.0000
  C   C60       1.0  0.8533466462061765  0.8593414425878053  0.984485789501754  1.0000
  C   C61       1.0  0.377395905500947  0.7022094392974765  0.5350884208854936  1.0000
  C   C62       1.0  0.1254319663811785  0.1995133965087135  0.962312133482918  1.0000
  C   C63       1.0  0.6257896966879172  0.2966086262701069  0.46684290670998513  1.0000
  C   C64       1.0  0.873494188642887  0.800296763121814  0.0360657473319108  1.0000
  C   C65       1.0  0.3127106901636693  0.704775071343576  0.5839355568418512  1.0000
  C   C66       1.0  0.19115277134765304  0.20208806436825447  0.9140152693176518  1.0000
  C   C67       1.0  0.6886571703757695  0.2951073520476227  0.41698178188030255  1.0000
  C   C68       1.0  0.8092088131670605  0.7978339118416006  0.085124300117954  1.0000
  C   C69       1.0  0.22667734042557436  0.6482790624919944  0.5802527084058084  1.0000
  C   C70       1.0  0.27704837946216526  0.1457726732948501  0.9184286305291636  1.0000
  C   C71       1.0  0.7737457394676496  0.3524276612286528  0.4198128873820295  1.0000
  C   C72       1.0  0.7235396798373014  0.8543011851221536  0.08156789783586052  1.0000
  C   C73       1.0  0.20910046161903745  0.5885309246345898  0.5300293236240137  1.0000
  C   C74       1.0  0.2934464514021684  0.08614982345871879  0.9688311049274959  1.0000
  C   C75       1.0  0.7918153421798307  0.412055522172011  0.47007383822447923  1.0000
  C   C76       1.0  0.7060135184688647  0.9139069952166281  0.0312047329966916  1.0000
  C   C77       1.0  0.27697099353737537  0.4313446934838723  0.477489755691593  1.0000
  C   C78       1.0  0.22147950946245484  0.9292474471746605  0.020901933285919896  1.0000
  C   C79       1.0  0.724402695321153  0.56851757390654  0.5228285329389735  1.0000
  C   C80       1.0  0.7763397922473416  0.07076712648302669  0.978834674986615  1.0000
  C   C81       1.0  0.20117366626774205  0.3679290180385236  0.48061768033009145  1.0000
  C   C82       1.0  0.29689267351590587  0.8660079362672306  0.017329115271167  1.0000
  C   C83       1.0  0.7991077388180088  0.6328365687461713  0.5198005586043165  1.0000
  C   C84       1.0  0.7008220838717987  0.13372796878523735  0.9829915010784944  1.0000
  C   C85       1.0  0.21744694369730408  0.30463928605767177  0.5289084442533465  1.0000
  C   C86       1.0  0.28038893566279904  0.8034172873572133  0.9685312021698351  1.0000
  C   C87       1.0  0.7822129622129239  0.6956846633926899  0.4711973355660746  1.0000
  C   C88       1.0  0.7177387450065281  0.1961314894528385  0.031939857134432294  1.0000
  C   C89       1.0  0.30951909553493095  0.30412590736759887  0.5759351788271019  1.0000
  C   C90       1.0  0.18847692758685494  0.8033416718212935  0.9213679980961302  1.0000
  C   C91       1.0  0.690672743464674  0.6947984950988584  0.4237271528471993  1.0000
  C   C92       1.0  0.8102277766167416  0.1962675861655683  0.07858544221338801  1.0000
  C   C93       1.0  0.38685138436846234  0.36645698623490836  0.5725172606623374  1.0000
  C   C94       1.0  0.11130666187288799  0.8652508951228982  0.9253534461433476  1.0000
  C   C95       1.0  0.6145137661263788  0.6314879310374977  0.4269646664569605  1.0000
  C   C96       1.0  0.8873752920847833  0.1344868605124603  0.07415868154550509  1.0000
  C   C97       1.0  0.37088764766987475  0.428485588655576  0.5235050622476223  1.0000
  C   C98       1.0  0.1275005141686307  0.9266116077266415  0.9749153159353768  1.0000
  C   C99       1.0  0.6309785871291281  0.5700177689448012  0.4763735546017855  1.0000
  C   C100      1.0  0.8707230806171677  0.0733367397619062  0.024471877370324083  1.0000
  O   O1        1.0  0.3722144651142258  0.14823137515726612  0.6190772587227187  1.0000
  O   O2        1.0  0.126274093825316  0.647636321173124  0.8765536635791378  1.0000
  O   O3        1.0  0.6252908346582657  0.849714138552862  0.3802629667604833  1.0000
  O   O4        1.0  0.8759578119292468  0.35106882774937986  0.1235316515506852  1.0000
  O   O5        1.0  0.20477966665242767  0.2137434094469484  0.6537861179185782  1.0000
  O   O6        1.0  0.29435833398819256  0.7150972143298802  0.8434280348069976  1.0000
  O   O7        1.0  0.7941604972574297  0.7861610949570874  0.34585297714235  1.0000
  O   O8        1.0  0.7062664025038285  0.2862656680789614  0.1565644593890525  1.0000
  O   O9        1.0  0.39246301578960197  0.26731934086624426  0.7039286638860744  1.0000
  O   O10       1.0  0.10718465754568027  0.7677609816070118  0.7926518280351118  1.0000
  O   O11       1.0  0.6075345310922416  0.7305631848874938  0.2955347129338932  1.0000
  O   O12       1.0  0.8921755974140595  0.23076718623035225  0.20719896302335877  1.0000
  O   O13       1.0  0.537725522354549  0.42433302777969567  0.18219172116941  1.0000
  O   O14       1.0  0.9634314557384511  0.9253676121937816  0.3177612626368073  1.0000
  O   O15       1.0  0.46483090693559587  0.5767271479490006  0.8184973256554074  1.0000
  O   O16       1.0  0.03406807552525491  0.0744211128449876  0.681603001937397  1.0000
  O   O17       1.0  0.37765425281917686  0.5067047991817618  0.1304083674929402  1.0000
  O   O18       1.0  0.12429538052978015  0.008589478915155302  0.3680503528699504  1.0000
  O   O19       1.0  0.6225838299131964  0.4921912033686198  0.8708785843790281  1.0000
  O   O20       1.0  0.874210558675557  0.9901103204197597  0.6309638682300402  1.0000
  O   O21       1.0  0.5344025923822926  0.5910528278224731  0.178889751096925  1.0000
  O   O22       1.0  0.9668522794895438  0.0920486141890464  0.3203406160312667  1.0000
  O   O23       1.0  0.4653996817855415  0.4098262547830913  0.8208256344376537  1.0000
  O   O24       1.0  0.03164322926712518  0.9076805418015044  0.6796746759518512  1.0000
  O   O25       1.0  0.7719357025345204  0.4081578813254935  0.2717199624941885  1.0000
  O   O26       1.0  0.7262663768217053  0.9068088270782938  0.2309095201005391  1.0000
  O   O27       1.0  0.23186512288322084  0.5923457939690876  0.7279681282061929  1.0000
  O   O28       1.0  0.270041366844346  0.09279847547852431  0.769627155895833  1.0000
  O   O29       1.0  0.7525956101208349  0.5717213257840825  0.2803719662377375  1.0000
  O   O30       1.0  0.7449107510652764  0.0705029016295242  0.22186064497236663  1.0000
  O   O31       1.0  0.2504514365841074  0.42869534488487204  0.7186505852462517  1.0000
  O   O32       1.0  0.2519135803509442  0.9291461549188399  0.7789496026012941  1.0000
  O   O33       1.0  0.8316772629566244  0.4986175471206735  0.1856048743456569  1.0000
  O   O34       1.0  0.6632631439694022  0.9971144439480426  0.315696284692514  1.0000
  O   O35       1.0  0.17210136720097316  0.5014756147734474  0.8137346035739271  1.0000
  O   O36       1.0  0.33360794222058837  0.0024933503178914  0.685099797924309  1.0000
  O   O37       1.0  0.40415955744037996  0.7273106293777403  0.7135572918617399  1.0000
  O   O38       1.0  0.09723700855592199  0.22490018468840134  0.7848696916375602  1.0000
  O   O39       1.0  0.597509579155222  0.2742539231945714  0.2872181705844739  1.0000
  O   O40       1.0  0.901430648630267  0.7753835491634717  0.21458526818038592  1.0000
  O   O41       1.0  0.4060918085758658  0.8528139995765756  0.6380094169401787  1.0000
  O   O42       1.0  0.1009596635286911  0.3508259978454049  0.8602092050866189  1.0000
  O   O43       1.0  0.5925607361181733  0.14843433649797083  0.3621729072125603  1.0000
  O   O44       1.0  0.9028769095959459  0.6502219485800466  0.1389171590180354  1.0000
  O   O45       1.0  0.2287474824153506  0.8052745916795061  0.6651799305559081  1.0000
  O   O46       1.0  0.2759904819206298  0.3000834713860455  0.8314093149041996  1.0000
  O   O47       1.0  0.7711381643192111  0.19403818404786935  0.3355025447310993  1.0000
  O   O48       1.0  0.7256257979699965  0.6971305853428973  0.1665325304937681  1.0000
