data_image0
_chemical_formula_structural       K4H12C12N16O24
_chemical_formula_sum              "K4 H12 C12 N16 O24"
_cell_length_a       7.818143240389421
_cell_length_b       8.658341037248945
_cell_length_c       11.644964692165052
_cell_angle_alpha    81.07702204021187
_cell_angle_beta     77.93767967195227
_cell_angle_gamma    82.12261559466589

_space_group_name_H-M_alt    "P 1"
_space_group_IT_number       1

loop_
  _space_group_symop_operation_xyz
  'x, y, z'

loop_
  _atom_site_type_symbol
  _atom_site_label
  _atom_site_symmetry_multiplicity
  _atom_site_fract_x
  _atom_site_fract_y
  _atom_site_fract_z
  _atom_site_occupancy
  K   K1        1.0  0.4447753945566715  0.6415284073679004  0.32208449426940444  1.0000
  K   K2        1.0  0.5552184834545457  0.3584746243311797  0.677915538842477  1.0000
  K   K3        1.0  0.05543247196482071  0.3588846902397761  0.1775465156742584  1.0000
  K   K4        1.0  0.9445667867267318  0.6411066212240824  0.8224567624369145  1.0000
  H   H1        1.0  0.7411063380051459  0.9586220780456357  0.5768568564511157  1.0000
  H   H2        1.0  0.2588940938341294  0.0413809928238251  0.4231414586205702  1.0000
  H   H3        1.0  0.23285336114579275  0.8803565670996105  0.7103288829812655  1.0000
  H   H4        1.0  0.7671445486090035  0.11964532373723807  0.28967247544858316  1.0000
  H   H5        1.0  0.3797107149274979  0.7414746373938569  0.626157194876491  1.0000
  H   H6        1.0  0.6202871034861983  0.25852841602007687  0.37384146302559884  1.0000
  H   H7        1.0  0.7586372017976258  0.04183681907797878  0.9227389425182579  1.0000
  H   H8        1.0  0.24136503368294623  0.9581627236352401  0.07725783211559194  1.0000
  H   H9        1.0  0.26754074557909036  0.1188677682356172  0.790212385594586  1.0000
  H   H10       1.0  0.7324633848838784  0.8811270837442746  0.2097855491291797  1.0000
  H   H11       1.0  0.12088276444016088  0.25786037074865925  0.8743228078754087  1.0000
  H   H12       1.0  0.8791174966973189  0.7421333014077188  0.12568006355008524  1.0000
  C   C1        1.0  0.8774143768661559  0.7226428915422785  0.4622031044462532  1.0000
  C   C2        1.0  0.1225824391016062  0.2773578011791357  0.5377959601415156  1.0000
  C   C3        1.0  0.6960231969884845  0.7463598156910007  0.5304440247859575  1.0000
  C   C4        1.0  0.3039743171583567  0.253645589687693  0.46955439784565567  1.0000
  C   C5        1.0  0.483608501890714  0.9350775183884036  0.6461965432881912  1.0000
  C   C6        1.0  0.5163913924918403  0.06492909830190997  0.353804862734478  1.0000
  C   C7        1.0  0.6230339368529413  0.27753849673089087  0.03789291234014064  1.0000
  C   C8        1.0  0.37697377923799286  0.7224575976305372  0.9621121391803558  1.0000
  C   C9        1.0  0.804358693306803  0.25354717577972957  0.9696749823810081  1.0000
  C   C10       1.0  0.19565279078907596  0.7464501207473614  0.030329437258636537  1.0000
  C   C11       1.0  0.016530725407292793  0.06465515230740948  0.8539535278802006  1.0000
  C   C12       1.0  0.9834751970217894  0.9353456104452033  0.14604605872948895  1.0000
  N   N1        1.0  0.9232422724276502  0.6104992701429879  0.38318018697646766  1.0000
  N   N2        1.0  0.07675456380422226  0.38950141811000066  0.6168180166471304  1.0000
  N   N3        1.0  0.014180888748157447  0.7989167488819785  0.483147017515968  1.0000
  N   N4        1.0  0.985815947483715  0.2010839393710099  0.5168511861076297  1.0000
  N   N5        1.0  0.6492217445384796  0.883202931828414  0.5813852000524236  1.0000
  N   N6        1.0  0.3507740487192449  0.11679540466891314  0.41861513218520235  1.0000
  N   N7        1.0  0.3540006798042725  0.8442147964996706  0.662042449599916  1.0000
  N   N8        1.0  0.6459952655868759  0.15578236401528045  0.33795800027294837  1.0000
  N   N9        1.0  0.5771381057667071  0.3901719647698129  0.1165530881289243  1.0000
  N   N10       1.0  0.4228648989699338  0.6098311324920258  0.8834466060406996  1.0000
  N   N11       1.0  0.4862011147589838  0.20097121100381085  0.017366917844960018  1.0000
  N   N12       1.0  0.5138044426109049  0.7990319171188459  0.9826350163867874  1.0000
  N   N13       1.0  0.8508145622484591  0.11685794537956436  0.918476604312339  1.0000
  N   N14       1.0  0.14918804857596507  0.8831380872602422  0.08152396708392474  1.0000
  N   N15       1.0  0.14644195271922908  0.15503842857253858  0.8385483742349535  1.0000
  N   N16       1.0  0.853555644179785  0.8449563797685542  0.1614504175648365  1.0000
  O   O1        1.0  0.8040232819482752  0.5554403076957398  0.34926230098500355  1.0000
  O   O2        1.0  0.19597486099638672  0.4445603892850086  0.650735731223392  1.0000
  O   O3        1.0  0.08294878287439644  0.5614103467616116  0.34909335463856916  1.0000
  O   O4        1.0  0.9170480330933656  0.4385903459598024  0.6509057099491997  1.0000
  O   O5        1.0  0.9962147228061156  0.8426486474436101  0.5837431704159927  1.0000
  O   O6        1.0  0.0037845949820152075  0.15735322977884886  0.4162537117777775  1.0000
  O   O7        1.0  0.1453440194211382  0.8265663866081354  0.4035998317100394  1.0000
  O   O8        1.0  0.8546512463593031  0.17343663594499495  0.5963965861299344  1.0000
  O   O9        1.0  0.5886267668842817  0.6491100635032081  0.5385225230837494  1.0000
  O   O10       1.0  0.4113658449423595  0.3508929505312536  0.46147595951497783  1.0000
  O   O11       1.0  0.4675536879298932  0.06524109756425389  0.6836144308716214  1.0000
  O   O12       1.0  0.5324450027561553  0.934754908892266  0.3163866547702484  1.0000
  O   O13       1.0  0.6962450069506331  0.4457115739771921  0.15021039724646806  1.0000
  O   O14       1.0  0.3037543194264245  0.5542997377057829  0.8497888163068908  1.0000
  O   O15       1.0  0.4173954200754508  0.4391734162645589  0.15054973909804664  1.0000
  O   O16       1.0  0.5826063387407245  0.5608296588642288  0.8494475435942591  1.0000
  O   O17       1.0  0.3553735480780205  0.17330077337405203  0.09718539699769481  1.0000
  O   O18       1.0  0.6446293958662964  0.8267023372930777  0.9028168800644565  1.0000
  O   O19       1.0  0.5037945066299087  0.15702038933964246  0.916879094240578  1.0000
  O   O20       1.0  0.49620669446543514  0.842986236078438  0.08312214036688202  1.0000
  O   O21       1.0  0.9120609564123467  0.3504704653627328  0.9617914426293552  1.0000
  O   O22       1.0  0.08794360020736042  0.6495197229035057  0.03821471131294631  1.0000
  O   O23       1.0  0.032384890315420016  0.9345752791349395  0.8163888391812295  1.0000
  O   O24       1.0  0.9676146218301015  0.06541483400439317  0.1836102517443123  1.0000
