data_image0
_chemical_formula_structural       Cd4H72C88N16O16
_chemical_formula_sum              "Cd4 H72 C88 N16 O16"
_cell_length_a       8.274852534152545
_cell_length_b       18.44539645717677
_cell_length_c       18.446297694424523
_cell_angle_alpha    90.0012674063217
_cell_angle_beta     90.0006372306801
_cell_angle_gamma    90.00028437732313

_space_group_name_H-M_alt    "P 1"
_space_group_IT_number       1

loop_
  _space_group_symop_operation_xyz
  'x, y, z'

loop_
  _atom_site_type_symbol
  _atom_site_label
  _atom_site_symmetry_multiplicity
  _atom_site_fract_x
  _atom_site_fract_y
  _atom_site_fract_z
  _atom_site_occupancy
  Cd  Cd1       1.0  0.4999776621815498  0.2109730755369341  0.7890307229454621  1.0000
  Cd  Cd2       1.0  0.49997331300433956  0.7890241948352568  0.2109693555109757  1.0000
  Cd  Cd3       1.0  0.49999010822469353  0.710972850388771  0.7109712654083112  1.0000
  Cd  Cd4       1.0  0.5000176655523916  0.2890249621861543  0.2890282710788696  1.0000
  H   H1        1.0  0.3159900078923883  0.8016122827570057  0.8302271846791314  1.0000
  H   H2        1.0  0.3159882463845847  0.19837478815107806  0.169757356372962  1.0000
  H   H3        1.0  0.3159596932055138  0.6697654095960528  0.3016052865331389  1.0000
  H   H4        1.0  0.3159520948472405  0.33023196204946703  0.6983922652111829  1.0000
  H   H5        1.0  0.6840247665479139  0.6983993277807417  0.3302355547983212  1.0000
  H   H6        1.0  0.6840354877600063  0.3015956729412395  0.6697762664591878  1.0000
  H   H7        1.0  0.6840749017673816  0.8302347247804605  0.8015928452150476  1.0000
  H   H8        1.0  0.6840494017012873  0.16976352856859478  0.19839241263910173  1.0000
  H   H9        1.0  0.1279341080129086  0.7983706430044961  0.7852523522465091  1.0000
  H   H10       1.0  0.1279298908249089  0.20161923025575848  0.21473397928215118  1.0000
  H   H11       1.0  0.12790094171556632  0.7147378874756924  0.2983656493757678  1.0000
  H   H12       1.0  0.12789538242480356  0.28525035948529626  0.7016391138523019  1.0000
  H   H13       1.0  0.8720795297734228  0.701637804038235  0.2852562930103844  1.0000
  H   H14       1.0  0.872097396894212  0.2983571049899538  0.7147494008928206  1.0000
  H   H15       1.0  0.8721251119632  0.7852469953048171  0.7983547595531562  1.0000
  H   H16       1.0  0.8720977367617522  0.21474411862564577  0.20163575522269642  1.0000
  H   H17       1.0  0.1843107540969484  0.8784410873533443  0.8335080453170178  1.0000
  H   H18       1.0  0.18430812428037774  0.1215440417921059  0.1664866937156404  1.0000
  H   H19       1.0  0.1842870016165676  0.6664861504421752  0.3784333532038247  1.0000
  H   H20       1.0  0.18426299341000882  0.3334984365280462  0.6215657225679507  1.0000
  H   H21       1.0  0.8157004776932837  0.6215657164057544  0.3335088548311376  1.0000
  H   H22       1.0  0.8157227778396035  0.3784230939068607  0.6664868051084909  1.0000
  H   H23       1.0  0.8157555773193508  0.8335091777782893  0.8784227128655359  1.0000
  H   H24       1.0  0.815724476753175  0.1664888489041942  0.12156481560190709  1.0000
  H   H25       1.0  0.5806581105038902  0.8660571197149878  0.6082799421114089  1.0000
  H   H26       1.0  0.5806745925123594  0.1339549816382828  0.3917091469148204  1.0000
  H   H27       1.0  0.5806563892991222  0.8917166701151159  0.3660419147583909  1.0000
  H   H28       1.0  0.5806702713078309  0.1082943469495348  0.6339471742410652  1.0000
  H   H29       1.0  0.4193474294327189  0.6339457860972999  0.1082823389396381  1.0000
  H   H30       1.0  0.4193462913030642  0.3660594231301246  0.8917086712777761  1.0000
  H   H31       1.0  0.41932786971721475  0.6082968168970381  0.8660482060502872  1.0000
  H   H32       1.0  0.4193295966329202  0.3917062237661639  0.133946598853889  1.0000
  H   H33       1.0  0.3725535271170344  0.9858922114236249  0.6101120201632213  1.0000
  H   H34       1.0  0.37256752934696646  0.0141231865544427  0.38989339833435116  1.0000
  H   H35       1.0  0.3725659683170974  0.8898961535453368  0.4858751883441244  1.0000
  H   H36       1.0  0.3725925508032545  0.11011382287880876  0.514112882530597  1.0000
  H   H37       1.0  0.627441182820867  0.5141069399598875  0.1101182055275274  1.0000
  H   H38       1.0  0.6274545169240257  0.48589659931106877  0.8898797861236787  1.0000
  H   H39       1.0  0.6274249445900465  0.6101319113905818  0.9858819961134343  1.0000
  H   H40       1.0  0.6274308753398117  0.3898786756735931  0.0141170797465691  1.0000
  H   H41       1.0  0.2925864696320915  0.0644164537145429  0.738001553054346  1.0000
  H   H42       1.0  0.2926030357732827  0.9355830306301981  0.2620051003534911  1.0000
  H   H43       1.0  0.29261926272669575  0.7620108163107631  0.564399905102853  1.0000
  H   H44       1.0  0.2926028716716473  0.2379951737433785  0.43560512211414704  1.0000
  H   H45       1.0  0.7073809821835013  0.4355983459459837  0.23801148957277007  1.0000
  H   H46       1.0  0.7074015549015868  0.5644118906149058  0.7619944828983307  1.0000
  H   H47       1.0  0.7073718748603283  0.7379997929084468  0.06438758091750428  1.0000
  H   H48       1.0  0.7073840753936979  0.2619914685584633  0.9356059226519946  1.0000
  H   H49       1.0  0.9604981825347211  0.8883129278093236  0.7004871540892027  1.0000
  H   H50       1.0  0.9605036474972906  0.11168002443277202  0.29951626180556457  1.0000
  H   H51       1.0  0.9604829077250159  0.7995079139802002  0.3883172968002668  1.0000
  H   H52       1.0  0.9604572896636442  0.20047799028112218  0.6116790713811113  1.0000
  H   H53       1.0  0.03950606227960661  0.6116800907447341  0.2005018371095133  1.0000
  H   H54       1.0  0.039536659042326505  0.38832420884168073  0.7995138782845927  1.0000
  H   H55       1.0  0.039532126170570295  0.7005044393393476  0.8883183482557655  1.0000
  H   H56       1.0  0.0395263052326413  0.2995004022566761  0.1116838143276553  1.0000
  H   H57       1.0  0.06080669785825419  0.14599404219855217  0.7678154589535353  1.0000
  H   H58       1.0  0.060830135769911906  0.8540038025522917  0.2321851813736373  1.0000
  H   H59       1.0  0.060861328229492515  0.7321855708665411  0.6459817749001432  1.0000
  H   H60       1.0  0.0608443889363102  0.26782257471191434  0.3540253710799277  1.0000
  H   H61       1.0  0.939138546234915  0.35400840559650953  0.2678279775219536  1.0000
  H   H62       1.0  0.9391676588284313  0.6459926275298074  0.7321677444127985  1.0000
  H   H63       1.0  0.939117369447267  0.7678241324410351  0.1459826287515469  1.0000
  H   H64       1.0  0.9391380794671279  0.2321785270765417  0.8540158036480463  1.0000
  H   H65       1.0  0.7282411060046456  0.9696503879820214  0.7339706272152214  1.0000
  H   H66       1.0  0.7282557694460223  0.030338212858019607  0.2660300259244508  1.0000
  H   H67       1.0  0.7282500186450066  0.7660270106897684  0.4696649316677153  1.0000
  H   H68       1.0  0.7282347719128737  0.2339556265402152  0.5303313844627979  1.0000
  H   H69       1.0  0.2717446493674345  0.5303395763248275  0.23399223695808047  1.0000
  H   H70       1.0  0.27177160622174773  0.4696772068623075  0.7660376256024862  1.0000
  H   H71       1.0  0.2717549863381877  0.7339849736392025  0.969675449559368  1.0000
  H   H72       1.0  0.2717612689476567  0.26602205079362307  0.0303343546677013  1.0000
  C   C1        1.0  0.2292148229937681  0.8341766014383509  0.7992764062755954  1.0000
  C   C2        1.0  0.22921592777723282  0.1658140566516479  0.2007147577344313  1.0000
  C   C3        1.0  0.2291937619749618  0.7007208150487683  0.3341669642154699  1.0000
  C   C4        1.0  0.2291765648749617  0.2992698430707819  0.6658334155882102  1.0000
  C   C5        1.0  0.7707919183065998  0.6658343243627627  0.2992785173621756  1.0000
  C   C6        1.0  0.7708122140501885  0.3341608841278187  0.7007239703994799  1.0000
  C   C7        1.0  0.7708416558930935  0.799275702522543  0.8341569732251628  1.0000
  C   C8        1.0  0.7708108155594787  0.200720048046712  0.1658346723766613  1.0000
  C   C9        1.0  0.310219810627558  0.8628427434863895  0.7334241406148649  1.0000
  C   C10       1.0  0.31021624418311694  0.1371556986585318  0.2665701303818508  1.0000
  C   C11       1.0  0.31018925768055544  0.7665756011085916  0.36283109505156835  1.0000
  C   C12       1.0  0.3101803307622503  0.23341308253218074  0.637172933730298  1.0000
  C   C13       1.0  0.6897828495171937  0.6371678098771908  0.233425763365652  1.0000
  C   C14       1.0  0.6898123534297298  0.36283371021212923  0.7665736175563467  1.0000
  C   C15       1.0  0.689815464074485  0.7334269718815634  0.862818708936878  1.0000
  C   C16       1.0  0.6898075337941593  0.2665761745372137  0.1371692876728119  1.0000
  C   C17       1.0  0.481342058285584  0.8790953402175106  0.644260505214973  1.0000
  C   C18       1.0  0.4813490384257264  0.12091598113960338  0.3557356874449127  1.0000
  C   C19       1.0  0.4813337542156049  0.8557402390297993  0.3790802047232731  1.0000
  C   C20       1.0  0.48134404918773305  0.144261865943605  0.6209181562589735  1.0000
  C   C21       1.0  0.5186607654931877  0.620912698616195  0.1442609311644887  1.0000
  C   C22       1.0  0.5186902719346094  0.379098712129064  0.8557316493449463  1.0000
  C   C23       1.0  0.5186568766328109  0.6442686571021312  0.8790828987161347  1.0000
  C   C24       1.0  0.5186663657181683  0.3557362479335211  0.12091076588175301  1.0000
  C   C25       1.0  0.3795326791798388  0.9376935710543468  0.6435192920131314  1.0000
  C   C26       1.0  0.3795596231045693  0.0623180485721591  0.3564769446804164  1.0000
  C   C27       1.0  0.37954779027534613  0.8564829558360998  0.4376781725225883  1.0000
  C   C28       1.0  0.3795541797432165  0.14351348383262766  0.5623153534557019  1.0000
  C   C29       1.0  0.6204568326398885  0.5623095721760264  0.1435265094149401  1.0000
  C   C30       1.0  0.6204627871389903  0.4376863603422549  0.8564676531616373  1.0000
  C   C31       1.0  0.6204539892694  0.6435364528836588  0.93767592710617  1.0000
  C   C32       1.0  0.6204571711709548  0.35647140668974225  0.0623155250106109  1.0000
  C   C33       1.0  0.1380853799110113  0.9725607937484069  0.717437985095728  1.0000
  C   C34       1.0  0.1380992229641151  0.0274328990112593  0.2825641174994118  1.0000
  C   C35       1.0  0.13809219064771844  0.7825600004439863  0.4725547658138042  1.0000
  C   C36       1.0  0.13807791037719142  0.21742718656803817  0.5274435418744687  1.0000
  C   C37       1.0  0.861901166098882  0.5274401897149871  0.2174521179268325  1.0000
  C   C38       1.0  0.861924944839494  0.4725639113820677  0.7825584053196694  1.0000
  C   C39       1.0  0.8619153041195702  0.7174466262486732  0.9725509999250761  1.0000
  C   C40       1.0  0.8619083896392538  0.28255367968674966  0.027443801961602798  1.0000
  C   C41       1.0  0.16834485107896308  0.0447468730556579  0.735705720022402  1.0000
  C   C42       1.0  0.16834596603842303  0.9552468922043217  0.2642986990526808  1.0000
  C   C43       1.0  0.16835699281332953  0.7643015365487996  0.5447366021313584  1.0000
  C   C44       1.0  0.1683350327908215  0.23570144506841467  0.4552645643633895  1.0000
  C   C45       1.0  0.8316358359769112  0.4552570330446103  0.23571778366122936  1.0000
  C   C46       1.0  0.8316610995645561  0.5447497061981112  0.7642877125081071  1.0000
  C   C47       1.0  0.8316300225152489  0.7357135170346821  0.04473079856073531  1.0000
  C   C48       1.0  0.831635492329049  0.26428671633819084  0.9552616867188704  1.0000
  C   C49       1.0  0.9808543181138633  0.944619315621104  0.716154927147258  1.0000
  C   C50       1.0  0.9808781471392151  0.05537639610694363  0.2838480463071988  1.0000
  C   C51       1.0  0.9808694008560366  0.7838439479756759  0.44462007048236535  1.0000
  C   C52       1.0  0.9808558134561168  0.2161474265881651  0.5553801923353632  1.0000
  C   C53       1.0  0.0191273615337977  0.5553794708885603  0.21616880719493986  1.0000
  C   C54       1.0  0.019144844720401  0.4446269484243716  0.7838468084816766  1.0000
  C   C55       1.0  0.0191434304188931  0.7161691086329681  0.944618115994885  1.0000
  C   C56       1.0  0.0191372350335399  0.2838394790969615  0.0553834047570874  1.0000
  C   C57       1.0  0.03861367462185681  0.08986872906640289  0.7523184493788265  1.0000
  C   C58       1.0  0.038617533814885995  0.9101274360658566  0.2476815401817021  1.0000
  C   C59       1.0  0.0386488221213881  0.7476803888025216  0.5898611452528257  1.0000
  C   C60       1.0  0.0386246832228352  0.2523222821106827  0.41014263928256167  1.0000
  C   C61       1.0  0.9613553475182499  0.41013500242296896  0.25233557078241386  1.0000
  C   C62       1.0  0.9613854864118565  0.589873131859527  0.7476694758771816  1.0000
  C   C63       1.0  0.9613393336063467  0.7523307837567756  0.0898595966228086  1.0000
  C   C64       1.0  0.9613664543064787  0.24767463972631285  0.910140570893219  1.0000
  C   C65       1.0  0.8521237816799996  0.989805703006553  0.7341630616277756  1.0000
  C   C66       1.0  0.8521346088435919  0.010192953178759004  0.2658414504318074  1.0000
  C   C67       1.0  0.8521304253844447  0.7658376325695214  0.48980314898901156  1.0000
  C   C68       1.0  0.852107420830066  0.2341490964300021  0.5101953996321456  1.0000
  C   C69       1.0  0.14785714465249097  0.5101961926109269  0.23418145106565902  1.0000
  C   C70       1.0  0.14789034492169864  0.4898099930335818  0.7658402156376383  1.0000
  C   C71       1.0  0.14786300368048436  0.7341785921564464  0.9898092701671005  1.0000
  C   C72       1.0  0.1478615245609518  0.26583030397814156  0.010195590969651402  1.0000
  C   C73       1.0  0.8802430296089981  0.0626629435712474  0.7518561576848697  1.0000
  C   C74       1.0  0.8802483871572804  0.937333611385071  0.24814632346305388  1.0000
  C   C75       1.0  0.8802658958662165  0.748144626312687  0.5626582921933334  1.0000
  C   C76       1.0  0.8802424395770742  0.2518508443405451  0.4373403941845666  1.0000
  C   C77       1.0  0.1197271893105025  0.4373391512622787  0.25187247351409076  1.0000
  C   C78       1.0  0.11977518908626908  0.5626723883149864  0.7481398397089691  1.0000
  C   C79       1.0  0.11972278099285921  0.7518643181789458  0.0626661682641796  1.0000
  C   C80       1.0  0.1197385089333238  0.24814017344215963  0.9373390972957479  1.0000
  C   C81       1.0  0.7413201797331084  0.11181561386373316  0.7693048492389423  1.0000
  C   C82       1.0  0.7413258023212991  0.8881773555140384  0.23070399963325633  1.0000
  C   C83       1.0  0.7413588164783675  0.7307070482636819  0.611815049234032  1.0000
  C   C84       1.0  0.741345172515686  0.2692967638295229  0.3881786207022699  1.0000
  C   C85       1.0  0.2586383950832243  0.3881760239496472  0.2693055781908882  1.0000
  C   C86       1.0  0.25868162287032703  0.6118293425984546  0.7306965723325407  1.0000
  C   C87       1.0  0.2586262687499357  0.7692964779727588  0.11182724328474342  1.0000
  C   C88       1.0  0.2586417845721344  0.2307034671661299  0.8881803281936412  1.0000
  N   N1        1.0  0.43735020531409674  0.8332524887075933  0.7001448175719034  1.0000
  N   N2        1.0  0.43735745020629213  0.1667516793291455  0.2998419438248092  1.0000
  N   N3        1.0  0.4373357305682291  0.7998509374877045  0.3332377597034579  1.0000
  N   N4        1.0  0.43733687915654673  0.20014564069926163  0.6667636386070939  1.0000
  N   N5        1.0  0.5626467799213444  0.6667589549284186  0.2001486412884503  1.0000
  N   N6        1.0  0.5626707798427758  0.3332460555516761  0.7998490333792317  1.0000
  N   N7        1.0  0.5626694518884534  0.7001509809539428  0.8332326892577201  1.0000
  N   N8        1.0  0.5626541501818991  0.2998496923419012  0.166759022120516  1.0000
  N   N9        1.0  0.2705283661977447  0.9264099441974378  0.6995816410076616  1.0000
  N   N10       1.0  0.27053225609321885  0.073591655815072  0.3004216517815053  1.0000
  N   N11       1.0  0.270519436338148  0.8004237264972003  0.4263980576417978  1.0000
  N   N12       1.0  0.27051339082250075  0.1995702834823518  0.5736025244243947  1.0000
  N   N13       1.0  0.7294698132577934  0.5735976919894412  0.19958476238232242  1.0000
  N   N14       1.0  0.7294947799698122  0.4264060917518862  0.8004164390764998  1.0000
  N   N15       1.0  0.7294917259077706  0.6995878427039344  0.9263927066172855  1.0000
  N   N16       1.0  0.7294789097222746  0.3004170253200158  0.07360795275410942  1.0000
  O   O1        1.0  0.7710395482250834  0.17995302979874586  0.7741760295573172  1.0000
  O   O2        1.0  0.7710395170995811  0.8200432635660989  0.22582862783503543  1.0000
  O   O3        1.0  0.7710846535705969  0.7258432090430417  0.6799501498409057  1.0000
  O   O4        1.0  0.7710487933362912  0.27416175855407227  0.3200469181815606  1.0000
  O   O5        1.0  0.2289118989364169  0.320038173733721  0.2741870323894133  1.0000
  O   O6        1.0  0.22896657640379203  0.6799682059426999  0.7258193096411388  1.0000
  O   O7        1.0  0.2289130299867992  0.7741715830073871  0.1799677273346703  1.0000
  O   O8        1.0  0.2289267739519758  0.2258179903212181  0.8200440355574444  1.0000
  O   O9        1.0  0.6001417950739524  0.0856111584478114  0.7769030288437335  1.0000
  O   O10       1.0  0.6001583699544355  0.9143890627265706  0.2231078399492361  1.0000
  O   O11       1.0  0.600177682894568  0.7231052347325357  0.585615324497077  1.0000
  O   O12       1.0  0.6001671957124799  0.27690366052463133  0.4143754862756452  1.0000
  O   O13       1.0  0.39982905646340333  0.4143757681223974  0.27689743857440163  1.0000
  O   O14       1.0  0.3998536971409905  0.5856190937272456  0.7230956445490122  1.0000
  O   O15       1.0  0.399820033540955  0.776894459153965  0.0856310880300981  1.0000
  O   O16       1.0  0.3998300914034587  0.2231188356379903  0.9143798849861113  1.0000
