data_image0
_chemical_formula_structural       Ag4H24C40N12O12
_chemical_formula_sum              "Ag4 H24 C40 N12 O12"
_cell_length_a       7.487605059175376
_cell_length_b       9.738086897654055
_cell_length_c       13.806719481268159
_cell_angle_alpha    90.00125886792212
_cell_angle_beta     98.97490346588269
_cell_angle_gamma    89.99935041053588

_space_group_name_H-M_alt    "P 1"
_space_group_IT_number       1

loop_
  _space_group_symop_operation_xyz
  'x, y, z'

loop_
  _atom_site_type_symbol
  _atom_site_label
  _atom_site_symmetry_multiplicity
  _atom_site_fract_x
  _atom_site_fract_y
  _atom_site_fract_z
  _atom_site_occupancy
  Ag  Ag1       1.0  0.6458423972622139  0.4452326291671582  0.0783934981030185  1.0000
  Ag  Ag2       1.0  0.8541553582939513  0.945231221581459  0.9216106290285283  1.0000
  Ag  Ag3       1.0  0.3541550650550819  0.5547696851974138  0.9216089485402821  1.0000
  Ag  Ag4       1.0  0.14584478254065658  0.054768012064613514  0.0783905819989812  1.0000
  H   H1        1.0  0.49262655187468585  0.6201016319314975  0.2284779803820882  1.0000
  H   H2        1.0  0.007376718261468801  0.12009314549792557  0.7715249975281183  1.0000
  H   H3        1.0  0.5073775811189875  0.37990273612376063  0.7715199266242792  1.0000
  H   H4        1.0  0.9926275425975745  0.8799050612960223  0.2284801627749431  1.0000
  H   H5        1.0  0.3236749918661346  0.3598032262485021  0.4524438848620278  1.0000
  H   H6        1.0  0.1763216800598144  0.8598039911686329  0.5475578996471526  1.0000
  H   H7        1.0  0.6763224065871325  0.6401888191020363  0.5475549350359898  1.0000
  H   H8        1.0  0.8236744046883256  0.14019216180315652  0.4524429887456947  1.0000
  H   H9        1.0  0.35380202007889483  0.10876171016157346  0.43413792159938686  1.0000
  H   H10       1.0  0.14619062708105446  0.608760236211012  0.5658683833792324  1.0000
  H   H11       1.0  0.6461953399925802  0.8912364965294873  0.5658587223409413  1.0000
  H   H12       1.0  0.8538068224951162  0.391233862976293  0.4341333378702715  1.0000
  H   H13       1.0  0.4142801083121767  0.908857435458565  0.33141493312652415  1.0000
  H   H14       1.0  0.0857119901775505  0.4088624821482726  0.6685865158739545  1.0000
  H   H15       1.0  0.5857225831796595  0.09114385183455913  0.6685777889810397  1.0000
  H   H16       1.0  0.9142841712602346  0.5911357246829071  0.3314187245386648  1.0000
  H   H17       1.0  0.5234180900121999  0.9473784409793925  0.1717484967669165  1.0000
  H   H18       1.0  0.9765796307393583  0.4473675650155828  0.8282549361250205  1.0000
  H   H19       1.0  0.47658465261310556  0.052622846358993114  0.8282471266772193  1.0000
  H   H20       1.0  0.02341923476135579  0.552631668702702  0.1717505193699154  1.0000
  H   H21       1.0  0.5675355540101845  0.1832344104776596  0.11239753900981239  1.0000
  H   H22       1.0  0.9324649345993234  0.6832291870036545  0.8876049591371  1.0000
  H   H23       1.0  0.43246725252668466  0.8167679038130519  0.8876017111124953  1.0000
  H   H24       1.0  0.06753385418005559  0.31677415422971233  0.11239614438279943  1.0000
  C   C1        1.0  0.46834071164287383  0.518797892036787  0.2568184131449698  1.0000
  C   C2        1.0  0.0316648628387739  0.018813973374165002  0.743178123923613  1.0000
  C   C3        1.0  0.5316634469439379  0.4812013415623757  0.7431809444924014  1.0000
  C   C4        1.0  0.9683339131730828  0.9811862871606539  0.2568222542397791  1.0000
  C   C5        1.0  0.39772705053309204  0.5048810600683139  0.3460592005792478  1.0000
  C   C6        1.0  0.10227200931509368  0.0048711238862396014  0.6539423991744188  1.0000
  C   C7        1.0  0.6022716615513629  0.4951212542014148  0.6539375509283332  1.0000
  C   C8        1.0  0.8977308227990688  0.995129136635619  0.3460583016012606  1.0000
  C   C9        1.0  0.37642822395694947  0.37487880078075636  0.3839191201565058  1.0000
  C   C10       1.0  0.12356954262632058  0.8748903983709017  0.6160771882358348  1.0000
  C   C11       1.0  0.6235637407614758  0.6251194059389037  0.6160778189682361  1.0000
  C   C12       1.0  0.8764292333908156  0.1251088352681721  0.38392318992009683  1.0000
  C   C13       1.0  0.3990576066164877  0.12323963195200353  0.3635261630423088  1.0000
  C   C14       1.0  0.1009507451876388  0.6232654195543933  0.6364606081538825  1.0000
  C   C15       1.0  0.6009491921058441  0.876762682269167  0.6364697830215676  1.0000
  C   C16       1.0  0.8990466660173124  0.3767327871819362  0.3635389371230175  1.0000
  C   C17       1.0  0.43313603839180087  0.013269348742362309  0.3065499076754463  1.0000
  C   C18       1.0  0.06685501486067837  0.5132335588043021  0.6934620484998603  1.0000
  C   C19       1.0  0.5668680434631239  0.9867360461633655  0.6934450980017957  1.0000
  C   C20       1.0  0.9331451898960521  0.48676464800259833  0.3065427891909067  1.0000
  C   C21       1.0  0.49135399966023374  0.0351056172926931  0.2148557908155553  1.0000
  C   C22       1.0  0.008641942825164502  0.5351276452877303  0.7851402303687465  1.0000
  C   C23       1.0  0.5086433348233823  0.9648966969587182  0.7851394024863083  1.0000
  C   C24       1.0  0.9913568842990371  0.4648767228753386  0.2148630491610461  1.0000
  C   C25       1.0  0.5168369154557195  0.16664211112279764  0.1815166781878688  1.0000
  C   C26       1.0  0.9831570348790846  0.6666157856071068  0.818487942487849  1.0000
  C   C27       1.0  0.4831577916546194  0.833361230100899  0.8184826520514505  1.0000
  C   C28       1.0  0.016841779493432792  0.3333824211701711  0.1815146116630544  1.0000
  C   C29       1.0  0.4816249275620449  0.28136076221058914  0.2382963350857068  1.0000
  C   C30       1.0  0.018383265091927104  0.7813747803504116  0.7616993679383128  1.0000
  C   C31       1.0  0.5183792054474736  0.7186405251574259  0.7617015718982928  1.0000
  C   C32       1.0  0.9816154853637542  0.2186234263702788  0.23829955954187912  1.0000
  C   C33       1.0  0.41935354024997895  0.25965903953909475  0.3302793774219381  1.0000
  C   C34       1.0  0.08063893259925688  0.7596408670902834  0.6697306770995723  1.0000
  C   C35       1.0  0.5806438837066494  0.7403453285830257  0.6697208932338441  1.0000
  C   C36       1.0  0.919358504177708  0.2403563127729314  0.3302703188381599  1.0000
  C   C37       1.0  0.34496653220822526  0.6252773340600799  0.3925311334256492  1.0000
  C   C38       1.0  0.1550379599830833  0.12527779447090387  0.6074676752480102  1.0000
  C   C39       1.0  0.6550362232004471  0.37472395328962455  0.6074652153526259  1.0000
  C   C40       1.0  0.8449567343755715  0.8747193853670018  0.39253092961242697  1.0000
  N   N1        1.0  0.5089238723825033  0.41190322017696707  0.20542180555160885  1.0000
  N   N2        1.0  0.9910770451898966  0.9118822361345311  0.7945885804821203  1.0000
  N   N3        1.0  0.4910857710198114  0.5881001210557886  0.7945823342701743  1.0000
  N   N4        1.0  0.008919001192296598  0.08811699749055182  0.2054101319306625  1.0000
  N   N5        1.0  0.2988540547205857  0.7248140877573166  0.4289588140221952  1.0000
  N   N6        1.0  0.20113590615755328  0.224816076897362  0.5710410901791789  1.0000
  N   N7        1.0  0.7011353337738768  0.27518206529265404  0.5710451633542064  1.0000
  N   N8        1.0  0.7988601146367811  0.7751872642880716  0.4289561715951463  1.0000
  N   N9        1.0  0.7754569451195507  0.2686007265427934  0.9218583004686354  1.0000
  N   N10       1.0  0.7245507137585107  0.7685986650436338  0.07814245601683471  1.0000
  N   N11       1.0  0.22454991753546943  0.7313985070477218  0.0781412722435988  1.0000
  N   N12       1.0  0.27545211835565186  0.23140159547822498  0.9218582447588517  1.0000
  O   O1        1.0  0.7547292777847117  0.39647530947500104  0.9408761535462133  1.0000
  O   O2        1.0  0.7452757649857842  0.896473494410323  0.059129253842847604  1.0000
  O   O3        1.0  0.24527354154080425  0.603525977931284  0.05912382190278011  1.0000
  O   O4        1.0  0.25472710548905286  0.10352471235399462  0.9408736229203498  1.0000
  O   O5        1.0  0.8225380271357634  0.2370396670082756  0.841279913431201  1.0000
  O   O6        1.0  0.6774592040121944  0.7370343894175166  0.15872315104582668  1.0000
  O   O7        1.0  0.17746611866240153  0.7629605934753132  0.15871871887948433  1.0000
  O   O8        1.0  0.32254226330034186  0.2629627904101071  0.8412767168359068  1.0000
  O   O9        1.0  0.7487632533475759  0.1781076569369375  0.9838778312463959  1.0000
  O   O10       1.0  0.7512373135159504  0.6781106017166895  0.016126043173073874  1.0000
  O   O11       1.0  0.2512422444899727  0.8218915766465859  0.01612090859426021  1.0000
  O   O12       1.0  0.24876687062703698  0.32189068569659457  0.9838747651474977  1.0000
