data_image0
_chemical_formula_structural       CdH24C30N4O8
_chemical_formula_sum              "Cd1 H24 C30 N4 O8"
_cell_length_a       8.610269660302068
_cell_length_b       9.51438670683571
_cell_length_c       9.637749962390089
_cell_angle_alpha    104.61378513290236
_cell_angle_beta     104.20490586691217
_cell_angle_gamma    108.21256781082039

_space_group_name_H-M_alt    "P 1"
_space_group_IT_number       1

loop_
  _space_group_symop_operation_xyz
  'x, y, z'

loop_
  _atom_site_type_symbol
  _atom_site_label
  _atom_site_symmetry_multiplicity
  _atom_site_fract_x
  _atom_site_fract_y
  _atom_site_fract_z
  _atom_site_occupancy
  Cd  Cd1       1.0  0.9999999317639446  0.9999997198588627  1.0608245585470696e-06  1.0000
  H   H1        1.0  0.43698736506696173  0.0862643291266068  0.8459971245903334  1.0000
  H   H2        1.0  0.5630126008569362  0.9137348941566612  0.15400396230523933  1.0000
  H   H3        1.0  0.06054758666729045  0.730585562335861  0.18401713793637953  1.0000
  H   H4        1.0  0.9394523792566077  0.26941366094740726  0.8159839489591932  1.0000
  H   H5        1.0  0.1745354028356161  0.5301769251664226  0.084739602959182  1.0000
  H   H6        1.0  0.8254652403224015  0.46982112453368063  0.9152602894082025  1.0000
  H   H7        1.0  0.41521693324764897  0.498446338149165  0.2593595570400282  1.0000
  H   H8        1.0  0.5847859609362657  0.5015540742458808  0.7406414494808973  1.0000
  H   H9        1.0  0.541865971553747  0.6648724200696561  0.5363513101351742  1.0000
  H   H10       1.0  0.45813691272315543  0.3351279750606011  0.4636507273881279  1.0000
  H   H11       1.0  0.17334313599499745  0.1626048811890115  0.36015639749729195  1.0000
  H   H12       1.0  0.8266549772820823  0.8373955565406347  0.6398435595544358  1.0000
  H   H13       1.0  0.19130968262447823  0.37709130007228003  0.5775785491756695  1.0000
  H   H14       1.0  0.8086917572917045  0.6229139039104652  0.4224213118110925  1.0000
  H   H15       1.0  0.7952577447900283  0.4436782251963862  0.2549919529869271  1.0000
  H   H16       1.0  0.20474093601468724  0.55632346610669  0.7450043059484416  1.0000
  H   H17       1.0  0.7995676653724287  0.228444570311531  0.05189523240962046  1.0000
  H   H18       1.0  0.2004305873321712  0.7715534920558724  0.9481041352231616  1.0000
  H   H19       1.0  0.05920444574171305  0.9182086980220703  0.4090479185402742  1.0000
  H   H20       1.0  0.9407961875092994  0.08178933441325141  0.590953004829487  1.0000
  H   H21       1.0  0.7102859368902301  0.7604446223753669  0.9647522863600175  1.0000
  H   H22       1.0  0.28971577197398796  0.23955581361811076  0.035247426791244194  1.0000
  H   H23       1.0  0.8106029979722748  0.815088559939525  0.14578185537929028  1.0000
  H   H24       1.0  0.18939644005202888  0.18490947882944647  0.8542188056231697  1.0000
  C   C1        1.0  0.5905969841852465  0.8796912700155771  0.7892363126696298  1.0000
  C   C2        1.0  0.4094036589727779  0.12030677968452612  0.21076357969776183  1.0000
  C   C3        1.0  0.44864333089549285  0.8977414914329953  0.6760035914064846  1.0000
  C   C4        1.0  0.5513583680617132  0.10225892729569348  0.3239971527471469  1.0000
  C   C5        1.0  0.3845951094756613  0.007903040680851304  0.7265061363007137  1.0000
  C   C6        1.0  0.6154055336823631  0.9920950090192519  0.27349375606667076  1.0000
  C   C7        1.0  0.23969308966147904  0.01922914309935919  0.6252717672351056  1.0000
  C   C8        1.0  0.7603075435895263  0.9807688893359624  0.3747291561346487  1.0000
  C   C9        1.0  0.24037387354483283  0.8129042157760933  0.4165164079000335  1.0000
  C   C10       1.0  0.7596266202786592  0.18709619202147112  0.5834851048886663  1.0000
  C   C11       1.0  0.16668838473707842  0.7166449386701146  0.2602865389856604  1.0000
  C   C12       1.0  0.8333115910938248  0.28335430187793514  0.7397135169075499  1.0000
  C   C13       1.0  0.23137725713873888  0.6061767788941878  0.205453010752187  1.0000
  C   C14       1.0  0.7686256469521806  0.3938236507656398  0.7945469647663759  1.0000
  C   C15       1.0  0.36813320071335903  0.5878161799312733  0.3039820189772656  1.0000
  C   C16       1.0  0.6318690162364362  0.4121854060469373  0.6960201820718482  1.0000
  C   C17       1.0  0.43972696490666147  0.6812887003665294  0.4580581768445172  1.0000
  C   C18       1.0  0.5602742160579623  0.31871055111265173  0.5419411104136247  1.0000
  C   C19       1.0  0.3788746556557783  0.7965685808047169  0.5175752685857662  1.0000
  C   C20       1.0  0.6211282385281365  0.20343183159032918  0.48242573793516663  1.0000
  C   C21       1.0  0.09448266228700672  0.2307148889053323  0.3423117533791072  1.0000
  C   C22       1.0  0.9055165166962735  0.7692879351176886  0.6576880244564907  1.0000
  C   C23       1.0  0.10338029965606668  0.35174843774847625  0.4635423322122066  1.0000
  C   C24       1.0  0.8966200745539225  0.6482543799408944  0.5364577079906925  1.0000
  C   C25       1.0  0.9973164580164989  0.43518284287146963  0.4369502311324922  1.0000
  C   C26       1.0  0.002681007747483515  0.5648188202356934  0.5630478274403077  1.0000
  C   C27       1.0  0.885429811671429  0.388817718254252  0.2855730383444026  1.0000
  C   C28       1.0  0.11456885922627441  0.6111839557840426  0.7144242515933288  1.0000
  C   C29       1.0  0.8850903685001653  0.2668683260946665  0.17041647315155467  1.0000
  C   C30       1.0  0.11490668897773301  0.7331297426063941  0.8295826321139261  1.0000
  N   N1        1.0  0.17669511011383326  0.92190131285264  0.47492260411193854  1.0000
  N   N2        1.0  0.8233043378174756  0.07809674318111348  0.5250770258881516  1.0000
  N   N3        1.0  0.9884164331456162  0.1890187668314667  0.19772738431012016  1.0000
  N   N4        1.0  0.011581142324857251  0.8109804691191015  0.8022731778508503  1.0000
  O   O1        1.0  0.7427265167603139  0.9884374877182436  0.834355039605015  1.0000
  O   O2        1.0  0.2572751821968994  0.011562931010452398  0.16564570454860936  1.0000
  O   O3        1.0  0.5453690190964409  0.7601155661025487  0.8282888204439376  1.0000
  O   O4        1.0  0.45463267986076517  0.23988485262614018  0.1717119237096938  1.0000
  O   O5        1.0  0.16674195810241338  0.1112476260119237  0.6685473199558205  1.0000
  O   O6        1.0  0.8332574898288955  0.8887504300218296  0.33145231004427006  1.0000
  O   O7        1.0  0.8225983368812277  0.7787674966129428  0.04364469773740598  1.0000
  O   O8        1.0  0.17740163894967506  0.22123174393510675  0.9563553581558042  1.0000
