data_image0
_chemical_formula_structural       Cd2H38C36N8O10
_chemical_formula_sum              "Cd2 H38 C36 N8 O10"
_cell_length_a       10.681071753207128
_cell_length_b       9.524452711666278
_cell_length_c       12.538172414481188
_cell_angle_alpha    92.25397307815692
_cell_angle_beta     113.77085587085303
_cell_angle_gamma    110.61337910593151

_space_group_name_H-M_alt    "P 1"
_space_group_IT_number       1

loop_
  _space_group_symop_operation_xyz
  'x, y, z'

loop_
  _atom_site_type_symbol
  _atom_site_label
  _atom_site_symmetry_multiplicity
  _atom_site_fract_x
  _atom_site_fract_y
  _atom_site_fract_z
  _atom_site_occupancy
  Cd  Cd1       1.0  0.24562032268833173  0.8225592779631938  0.8385389905577583  1.0000
  Cd  Cd2       1.0  0.7543857991706417  0.17742423265282534  0.1614613562866793  1.0000
  H   H1        1.0  0.17855815631514824  0.022694328454939204  0.9231255656079045  1.0000
  H   H2        1.0  0.8214413095115704  0.9772855297517399  0.07686942546156682  1.0000
  H   H3        1.0  0.3580287121164503  0.10336267750673761  0.012045331711853192  1.0000
  H   H4        1.0  0.641967803105608  0.8966080745476006  0.9879539961327171  1.0000
  H   H5        1.0  0.7642744817152618  0.5903915044492865  0.5952715834259835  1.0000
  H   H6        1.0  0.23574641828425064  0.4096240698188326  0.40471933361966  1.0000
  H   H7        1.0  0.7324565671084217  0.8394785990013958  0.8666171896890875  1.0000
  H   H8        1.0  0.26754348802789  0.16050243694384386  0.13338042247601584  1.0000
  H   H9        1.0  0.3302157737287885  0.5363346165981965  0.5653209217838936  1.0000
  H   H10       1.0  0.669798378239527  0.46368953698488735  0.4346427323500707  1.0000
  H   H11       1.0  0.4515177337750416  0.9257659438378455  0.14860670615964722  1.0000
  H   H12       1.0  0.5484838010912583  0.0742139824176604  0.8513889145205484  1.0000
  H   H13       1.0  0.2008822182885268  0.18975424726286863  0.49974794160034014  1.0000
  H   H14       1.0  0.7991143269133474  0.8102518660900486  0.5002743566224268  1.0000
  H   H15       1.0  0.006969990212830581  0.7836608525473994  0.32281086910486323  1.0000
  H   H16       1.0  0.9930329812022477  0.21635545670906  0.6771930138894576  1.0000
  H   H17       1.0  0.0451405147468477  0.9758126908934273  0.3075752119141342  1.0000
  H   H18       1.0  0.954866350535717  0.024207229813235597  0.6924379802855471  1.0000
  H   H19       1.0  0.3109742652967924  0.021226766618120497  0.35716940743338205  1.0000
  H   H20       1.0  0.6890351848205754  0.9787979057855198  0.6428575343798146  1.0000
  H   H21       1.0  0.17631660225134027  0.8835924637577578  0.2258265694509448  1.0000
  H   H22       1.0  0.823702782211619  0.11643921114504252  0.7741916792232929  1.0000
  H   H23       1.0  0.4516096787094027  0.7042361053397955  0.3706611030321768  1.0000
  H   H24       1.0  0.5483837366885569  0.29577082231806173  0.6293395137508357  1.0000
  H   H25       1.0  0.4900176182887108  0.894817690872813  0.3496314356940006  1.0000
  H   H26       1.0  0.5099787831671139  0.1051847265099184  0.650362719656549  1.0000
  H   H27       1.0  0.10108151947769523  0.5030592191936235  0.9368689767877215  1.0000
  H   H28       1.0  0.8989050133869368  0.49692488034381904  0.06313504181481727  1.0000
  H   H29       1.0  0.1638329077731484  0.5029939596379692  0.17432679751808425  1.0000
  H   H30       1.0  0.8361442460829451  0.49700910778027213  0.8256759274370397  1.0000
  H   H31       1.0  0.34527082125337216  0.8165151719317906  0.46987361881747364  1.0000
  H   H32       1.0  0.6547405463975551  0.18349806311395161  0.5301374787544192  1.0000
  H   H33       1.0  0.19731919330686762  0.6729020424796844  0.34639503166528846  1.0000
  H   H34       1.0  0.8026823589806398  0.32711997862919867  0.65361743235475  1.0000
  H   H35       1.0  0.2792163434802717  0.17244979316301823  0.7397176198064274  1.0000
  H   H36       1.0  0.7207758537566418  0.8275334922858946  0.26030086157448545  1.0000
  H   H37       1.0  0.12119988483232894  0.730852325324669  0.5365960392932366  1.0000
  H   H38       1.0  0.8787980898330972  0.26914792685795424  0.463403299169734  1.0000
  C   C1        1.0  0.9304217501927641  0.7884091241422909  0.8013800014726017  1.0000
  C   C2        1.0  0.0695850152989124  0.21158353315237835  0.19862649248910463  1.0000
  C   C3        1.0  0.536078468049169  0.5516743705446387  0.5593262767645584  1.0000
  C   C4        1.0  0.4639371595924687  0.4483454558891821  0.44065282813775764  1.0000
  C   C5        1.0  0.6921060175825602  0.617434905232699  0.6263296019299959  1.0000
  C   C6        1.0  0.3079150165337481  0.3825817652885277  0.3736574057493059  1.0000
  C   C7        1.0  0.4224788708256782  0.7232984464204791  0.7660579572134766  1.0000
  C   C8        1.0  0.57750888164869  0.2766887858400864  0.2339170041303262  1.0000
  C   C9        1.0  0.5201909445194487  0.6875938169202273  0.7200851293795267  1.0000
  C   C10       1.0  0.4798083698332221  0.31240622157948655  0.27988984795938177  1.0000
  C   C11       1.0  0.6762240242828741  0.7571289627722068  0.7823554537995323  1.0000
  C   C12       1.0  0.3237900944229041  0.2428705373016627  0.2176343706427702  1.0000
  C   C13       1.0  0.7620003681993098  0.7193031313101487  0.7360390502484224  1.0000
  C   C14       1.0  0.23800824021621034  0.28070072950455943  0.26395007555365174  1.0000
  C   C15       1.0  0.4518341122730192  0.586212095064262  0.60994870081813  1.0000
  C   C16       1.0  0.5481822084937987  0.41380770427988284  0.39002582104306793  1.0000
  C   C17       1.0  0.36724346055409995  0.8091855335716645  0.12115137831510485  1.0000
  C   C18       1.0  0.632750722578763  0.19079872611857954  0.878846179345125  1.0000
  C   C19       1.0  0.196883868883134  0.09401158499196781  0.5440945528490532  1.0000
  C   C20       1.0  0.8031137071352249  0.9059899704083562  0.455922286946013  1.0000
  C   C21       1.0  0.09574279187894051  0.9000868920842108  0.35339379651804853  1.0000
  C   C22       1.0  0.9042601326196547  0.09993063218617239  0.6466181069207623  1.0000
  C   C23       1.0  0.22216032208361006  0.9043936674869072  0.32365630203722173  1.0000
  C   C24       1.0  0.7778507115793262  0.09562869039874762  0.676361444154317  1.0000
  C   C25       1.0  0.399861088559568  0.7810090161012511  0.32781587947772556  1.0000
  C   C26       1.0  0.6001335889545842  0.21899798632375686  0.672188317341643  1.0000
  C   C27       1.0  0.18502341829275074  0.5903967343304898  0.015960255764944985  1.0000
  C   C28       1.0  0.8149597568182047  0.40958951328664744  0.9840420316531748  1.0000
  C   C29       1.0  0.21486762773415083  0.588307887108087  0.13303499457551748  1.0000
  C   C30       1.0  0.7851153475056094  0.41168857960206406  0.8669700320959067  1.0000
  C   C31       1.0  0.2875681072541453  0.7882316382957555  0.3716970000167308  1.0000
  C   C32       1.0  0.7124402377584078  0.21178717272116643  0.6283142006980429  1.0000
  C   C33       1.0  0.23545411102841032  0.0840875678976332  0.6615325697674947  1.0000
  C   C34       1.0  0.7645441403725428  0.9159049257768646  0.33848251925440564  1.0000
  C   C35       1.0  0.1538272723631664  0.8533523367761974  0.5606649036631881  1.0000
  C   C36       1.0  0.8461702064722729  0.14664568215749094  0.43933898830147916  1.0000
  N   N1        1.0  0.20831948882015172  0.9331676918578323  0.6704865914162002  1.0000
  N   N2        1.0  0.7916777749774938  0.06682355277832391  0.3295201623558413  1.0000
  N   N3        1.0  0.28040590197601734  0.7285970496279506  0.009605704409430921  1.0000
  N   N4        1.0  0.7195875906076595  0.2713792783975748  0.9903937265780346  1.0000
  N   N5        1.0  0.3311992091431292  0.7278509625371045  0.19860276500989477  1.0000
  N   N6        1.0  0.6687831439098274  0.2721499841075499  0.8013990555093857  1.0000
  N   N7        1.0  0.14500260924085506  0.9466480901202776  0.4812210304210682  1.0000
  N   N8        1.0  0.8549965477470706  0.05335910951647801  0.5187893234662297  1.0000
  O   O1        1.0  0.9932923796512513  0.7082636702026407  0.7756811545247262  1.0000
  O   O2        1.0  0.006713833111326977  0.2917267436574136  0.2243290766309372  1.0000
  O   O3        1.0  0.4846395300237276  0.83802354074205  0.854215505696658  1.0000
  O   O4        1.0  0.5153485649405809  0.1619446176642612  0.14577637631911242  1.0000
  O   O5        1.0  0.2813808963567013  0.06447012160191429  0.9274825759406014  1.0000
  O   O6        1.0  0.7186201932994081  0.9355109483677352  0.07251535102986402  1.0000
  O   O7        1.0  0.9940726081218615  0.917063636515671  0.8719817465568342  1.0000
  O   O8        1.0  0.005939393147180305  0.08292583430935001  0.1280302012586105  1.0000
  O   O9        1.0  0.28278607564438824  0.6444035832978798  0.7147765865788501  1.0000
  O   O10       1.0  0.7172026078875504  0.3555835132978657  0.28518267822073545  1.0000
