data_image0
_chemical_formula_structural       Zn2H20C24N4O12
_chemical_formula_sum              "Zn2 H20 C24 N4 O12"
_cell_length_a       6.856868592071982
_cell_length_b       6.856882896231984
_cell_length_c       13.19205936770352
_cell_angle_alpha    81.3594798614843
_cell_angle_beta     81.35995447323869
_cell_angle_gamma    70.5825147003436

_space_group_name_H-M_alt    "P 1"
_space_group_IT_number       1

loop_
  _space_group_symop_operation_xyz
  'x, y, z'

loop_
  _atom_site_type_symbol
  _atom_site_label
  _atom_site_symmetry_multiplicity
  _atom_site_fract_x
  _atom_site_fract_y
  _atom_site_fract_z
  _atom_site_occupancy
  Zn  Zn1       1.0  0.7061315758315416  0.2938645923791725  0.25000031910605  1.0000
  Zn  Zn2       1.0  0.2938692424919509  0.7061337301587969  0.750000326872829  1.0000
  H   H1        1.0  0.1731954047462807  0.5825155887685725  0.5248537965915858  1.0000
  H   H2        1.0  0.41747894694923116  0.8268085325596529  0.9751459361429865  1.0000
  H   H3        1.0  0.8268044618941206  0.41748115206816994  0.4751462909057125  1.0000
  H   H4        1.0  0.5825193677820694  0.17319287228487917  0.024853148179808177  1.0000
  H   H5        1.0  0.8030418993251445  0.771588043288929  0.5824987905005656  1.0000
  H   H6        1.0  0.2284054723253704  0.1969633828719495  0.9175041617028581  1.0000
  H   H7        1.0  0.1969589175058672  0.2284102777658816  0.41750109767991717  1.0000
  H   H8        1.0  0.7715908630816845  0.8030395565313029  0.08249723174784407  1.0000
  H   H9        1.0  0.6115906952241373  0.07894100054203787  0.4625224665186919  1.0000
  H   H10       1.0  0.921056853500943  0.3884119352978672  0.03748158522046199  1.0000
  H   H11       1.0  0.3884096092787743  0.921058880125898  0.537479613264935  1.0000
  H   H12       1.0  0.07894051700966291  0.6115878952612519  0.9625207296127058  1.0000
  H   H13       1.0  0.7491568094881275  0.620778303895044  0.2994366882333779  1.0000
  H   H14       1.0  0.3792205000785246  0.2508400518097034  0.20056003027991656  1.0000
  H   H15       1.0  0.25084400435792276  0.37922001419344287  0.7005616843503331  1.0000
  H   H16       1.0  0.6207812639581363  0.7491598464968375  0.7994381429869788  1.0000
  H   H17       1.0  0.983872065815369  0.5155696594974017  0.24249801373977678  1.0000
  H   H18       1.0  0.4844279631531094  0.0161247608332218  0.2574995493514578  1.0000
  H   H19       1.0  0.01612969672881091  0.4844302373259878  0.7574994017287295  1.0000
  H   H20       1.0  0.5155743176890868  0.9838735823096769  0.742498705707483  1.0000
  C   C1        1.0  0.39693629287529586  0.6499360266699766  0.3504215152043386  1.0000
  C   C2        1.0  0.350061007736926  0.6030602731431003  0.1495760419009216  1.0000
  C   C3        1.0  0.6030640056576927  0.350063848065318  0.6495775333857239  1.0000
  C   C4        1.0  0.6499378252923977  0.39693957802094804  0.8504238820123006  1.0000
  C   C5        1.0  0.1661212112229081  0.7505014123449525  0.37289791794261606  1.0000
  C   C6        1.0  0.2494916687578695  0.833879813786403  0.1271011434403704  1.0000
  C   C7        1.0  0.8338810740967376  0.24949693524742864  0.6271026105114925  1.0000
  C   C8        1.0  0.7505070793584993  0.1661247264398398  0.8728976597735849  1.0000
  C   C9        1.0  0.03891872752290484  0.9037616078349019  0.3058801610466516  1.0000
  C   C10       1.0  0.09623274081658201  0.961076458586014  0.19412091670499618  1.0000
  C   C11       1.0  0.9610830424836864  0.0962382964042803  0.6941210434138083  1.0000
  C   C12       1.0  0.9037660937052151  0.038923394061193085  0.8058797650066155  1.0000
  C   C13       1.0  0.07803645911020146  0.7017239566860312  0.47237266785840853  1.0000
  C   C14       1.0  0.29826884886231403  0.9219709213955268  0.0276288601535839  1.0000
  C   C15       1.0  0.9219667778925356  0.29827597260756983  0.5276284190772813  1.0000
  C   C16       1.0  0.7017284337503896  0.0780335952594697  0.972370818383531  1.0000
  C   C17       1.0  0.8739520355087722  0.8102526731419532  0.5059162284423451  1.0000
  C   C18       1.0  0.18974407245947594  0.1260510837564439  0.9940859527158636  1.0000
  C   C19       1.0  0.1260482660091853  0.18974720455965866  0.49408433574449606  1.0000
  C   C20       1.0  0.8102551954474039  0.8739519042724665  0.005914447886908598  1.0000
  C   C21       1.0  0.7657001002435709  0.9746381478468109  0.43934024242558667  1.0000
  C   C22       1.0  0.025355594290040497  0.2343023102093156  0.06066327496304069  1.0000
  C   C23       1.0  0.23430563587391617  0.025358694690737607  0.5606601327710122  1.0000
  C   C24       1.0  0.9746422945185954  0.7656959666693055  0.9393398794605545  1.0000
  N   N1        1.0  0.8459460438171645  0.017124321292527597  0.3430903641063736  1.0000
  N   N2        1.0  0.9828721612332104  0.1540513979610338  0.1569125827001372  1.0000
  N   N3        1.0  0.15405425919326637  0.9828755578922495  0.656910957878864  1.0000
  N   N4        1.0  0.017126676273555675  0.8459484576524898  0.8430896146082604  1.0000
  O   O1        1.0  0.4668484848176461  0.45209275901925133  0.3625332896596091  1.0000
  O   O2        1.0  0.5478988553011349  0.533148168568907  0.1374652773123088  1.0000
  O   O3        1.0  0.5331503467191966  0.5479070906616383  0.6374658764552237  1.0000
  O   O4        1.0  0.4520990290300517  0.4668501038602387  0.8625356037161109  1.0000
  O   O5        1.0  0.5050645001995805  0.772121911912791  0.32472396826494077  1.0000
  O   O6        1.0  0.22787176428789732  0.4949291093705669  0.17527253920237476  1.0000
  O   O7        1.0  0.49493536345585204  0.22787482595763459  0.6752746036355789  1.0000
  O   O8        1.0  0.7721281023525037  0.5050676314661757  0.8247275482949233  1.0000
  O   O9        1.0  0.8666989535380052  0.48876413140874314  0.28989546101918506  1.0000
  O   O10       1.0  0.5112342256391217  0.13329794387149008  0.21010335565172505  1.0000
  O   O11       1.0  0.1333028119911362  0.5112357683809634  0.710103470046107  1.0000
  O   O12       1.0  0.4887660728938672  0.8667019308638045  0.7898956929383373  1.0000
