data_image0
_chemical_formula_structural       Si2Ag2H28C14S8O6F6
_chemical_formula_sum              "Si2 Ag2 H28 C14 S8 O6 F6"
_cell_length_a       6.631172177657915
_cell_length_b       8.558209945225373
_cell_length_c       13.504616720490331
_cell_angle_alpha    89.99971113198269
_cell_angle_beta     92.11305950713866
_cell_angle_gamma    90.00076967965362

_space_group_name_H-M_alt    "P 1"
_space_group_IT_number       1

loop_
  _space_group_symop_operation_xyz
  'x, y, z'

loop_
  _atom_site_type_symbol
  _atom_site_label
  _atom_site_symmetry_multiplicity
  _atom_site_fract_x
  _atom_site_fract_y
  _atom_site_fract_z
  _atom_site_occupancy
  Si  Si1       1.0  0.6791621509875726  0.269000339770784  0.8769104185373848  1.0000
  Si  Si2       1.0  0.320845317880817  0.7690007705564028  0.12308967553089903  1.0000
  Ag  Ag1       1.0  0.28122927990072816  0.941289004126915  0.41448424786408106  1.0000
  Ag  Ag2       1.0  0.7187737464449738  0.4412876680175017  0.5855114368649552  1.0000
  H   H1        1.0  0.1472177504030299  0.2637582086329786  0.5676787419997638  1.0000
  H   H2        1.0  0.8527866284385297  0.763764074850094  0.4323205544293245  1.0000
  H   H3        1.0  0.2136526713670364  0.08495457119618519  0.6287526060502558  1.0000
  H   H4        1.0  0.7863531146864275  0.584959051173385  0.37124734565650647  1.0000
  H   H5        1.0  0.5183174753641211  0.072511423731207  0.7643734423865709  1.0000
  H   H6        1.0  0.4816790014730686  0.5725126479242207  0.2356278068190676  1.0000
  H   H7        1.0  0.6014381401740964  0.9515327285174989  0.6017867005825721  1.0000
  H   H8        1.0  0.3985529165013659  0.4515388836341784  0.3982116191086718  1.0000
  H   H9        1.0  0.7628996281444883  0.03880680308922278  0.5131863835822514  1.0000
  H   H10       1.0  0.23709626067368816  0.5388106492221639  0.48681496834869625  1.0000
  H   H11       1.0  0.9420486825272503  0.16206066331464797  0.9911239963303943  1.0000
  H   H12       1.0  0.0579478861614504  0.6620534294914291  0.008875463025980001  1.0000
  H   H13       1.0  0.9887353359718034  0.10841580615316809  0.8667283893450204  1.0000
  H   H14       1.0  0.011264823594601101  0.6084106639195497  0.1332713438086088  1.0000
  H   H15       1.0  0.8035328508854959  0.006385096390552301  0.9333183489148528  1.0000
  H   H16       1.0  0.19646550934061216  0.5063835144644456  0.0666824352944957  1.0000
  H   H17       1.0  0.9301390370756124  0.44817486729646555  0.8067227817012821  1.0000
  H   H18       1.0  0.06986401310721391  0.9481675339711514  0.193276582443012  1.0000
  H   H19       1.0  0.8648183625915494  0.5071665580133099  0.9268431379222833  1.0000
  H   H20       1.0  0.1351845957982221  0.007163126986256399  0.0731555339665064  1.0000
  H   H21       1.0  0.7008899237075  0.5498479337987304  0.8234637605241703  1.0000
  H   H22       1.0  0.2991183061559822  0.0498465652128672  0.1765348915663623  1.0000
  H   H23       1.0  0.513007326984642  0.3239697681249539  0.03447305506534801  1.0000
  H   H24       1.0  0.48699518066843694  0.8239667149008554  0.965522283933197  1.0000
  H   H25       1.0  0.3847459510234046  0.17139630434113678  0.9690031671129591  1.0000
  H   H26       1.0  0.6152508575898068  0.671394591340082  0.0309933034656282  1.0000
  H   H27       1.0  0.348079608288046  0.3687728148277714  0.9312864577327744  1.0000
  H   H28       1.0  0.6519267374063702  0.8687700233991505  0.0687073380811611  1.0000
  C   C1        1.0  0.2718727372654826  0.19708238517308985  0.6030054206836722  1.0000
  C   C2        1.0  0.7281350435653807  0.6970860769912406  0.3969927091091421  1.0000
  C   C3        1.0  0.5719680930902697  0.19232885748289158  0.7516522270564607  1.0000
  C   C4        1.0  0.4280291000316794  0.6923329437201103  0.2483434396335937  1.0000
  C   C5        1.0  0.6509386035627285  0.06188210761229839  0.5693193882307881  1.0000
  C   C6        1.0  0.3490577071218651  0.5618886878144096  0.4306811532853487  1.0000
  C   C7        1.0  0.8706002480371425  0.12177410089120139  0.9210054992773922  1.0000
  C   C8        1.0  0.12939863566192142  0.6217694048018387  0.0789941563955168  1.0000
  C   C9        1.0  0.8029729394181685  0.4612106371435444  0.8560795964022178  1.0000
  C   C10       1.0  0.19703341381642764  0.9612038050822488  0.14391758130277313  1.0000
  C   C11       1.0  0.4604462324023758  0.2845605744973412  0.9604301108537641  1.0000
  C   C12       1.0  0.5395555684364339  0.7845580243688631  0.03956608833920681  1.0000
  C   C13       1.0  0.7623478014346717  0.2639016049377148  0.2466071970199835  1.0000
  C   C14       1.0  0.23764588259012243  0.7639022794162926  0.753397022176884  1.0000
  S   S1        1.0  0.44566896361440916  0.16211605272192028  0.5038832295433551  1.0000
  S   S2        1.0  0.5543336611031721  0.6621183923879881  0.4961156366104689  1.0000
  S   S3        1.0  0.36712936161282533  0.31329604013785683  0.7054148644263663  1.0000
  S   S4        1.0  0.6328804082775862  0.8132983630625007  0.2945843913150199  1.0000
  S   S5        1.0  0.7744924040095071  0.17731773074216048  0.6653875291838034  1.0000
  S   S6        1.0  0.2255089385416298  0.6773249424401369  0.33461273402155467  1.0000
  S   S7        1.0  0.9681152791539844  0.238830456797352  0.34383818374551123  1.0000
  S   S8        1.0  0.0318840032249383  0.7388356063860753  0.6561662589192281  1.0000
  O   O1        1.0  0.9431562859208144  0.07518150590045991  0.3745125644586551  1.0000
  O   O2        1.0  0.056846080620765314  0.575169614320856  0.6254962244758531  1.0000
  O   O3        1.0  0.9162440720096968  0.35211644551219473  0.4201146875510915  1.0000
  O   O4        1.0  0.08375265990028422  0.8521028352674023  0.579889299559845  1.0000
  O   O5        1.0  0.15108520005863824  0.27236854281585465  0.2923262170468135  1.0000
  O   O6        1.0  0.8489057677242541  0.7723582729696401  0.707671982200303  1.0000
  F   F1        1.0  0.5776570130925195  0.24630454952027492  0.2847287510302223  1.0000
  F   F2        1.0  0.42233021263875514  0.7462992167765491  0.715279815223262  1.0000
  F   F3        1.0  0.7790364705771965  0.1594712547886843  0.1718669111216471  1.0000
  F   F4        1.0  0.2209477698440452  0.6594770380340123  0.8281404028542383  1.0000
  F   F5        1.0  0.7697318684943966  0.41024314533915873  0.20616780983777971  1.0000
  F   F6        1.0  0.23027199039647436  0.9102434397952521  0.7938331868305042  1.0000
