data_image0
_chemical_formula_structural       CuH36C36N4O6
_chemical_formula_sum              "Cu1 H36 C36 N4 O6"
_cell_length_a       8.482194139254316
_cell_length_b       9.12622334360756
_cell_length_c       10.834132430231062
_cell_angle_alpha    77.46485206670415
_cell_angle_beta     86.33152860456799
_cell_angle_gamma    77.64702569907116

_space_group_name_H-M_alt    "P 1"
_space_group_IT_number       1

loop_
  _space_group_symop_operation_xyz
  'x, y, z'

loop_
  _atom_site_type_symbol
  _atom_site_label
  _atom_site_symmetry_multiplicity
  _atom_site_fract_x
  _atom_site_fract_y
  _atom_site_fract_z
  _atom_site_occupancy
  Cu  Cu1       1.0  0.49999919736252  8.152216822003929e-07  1.7247928022416684e-09  1.0000
  H   H1        1.0  0.9882701929404123  0.7266292329348334  0.7615283722929007  1.0000
  H   H2        1.0  0.011716937765683607  0.2733739303481357  0.23847233238056023  1.0000
  H   H3        1.0  0.09785531961993844  0.6885361081824612  0.5508988308472881  1.0000
  H   H4        1.0  0.9021452906126797  0.31147045253099054  0.44910326272970746  1.0000
  H   H5        1.0  0.6811967651589157  0.0097693976880322  0.3778249936206067  1.0000
  H   H6        1.0  0.3188139631747261  0.990233577371882  0.6221652255245687  1.0000
  H   H7        1.0  0.574098320383449  0.0462070697474459  0.5914579593040658  1.0000
  H   H8        1.0  0.42590053832783775  0.9538016664937674  0.40852904962311964  1.0000
  H   H9        1.0  0.11054844049768059  0.752877283596348  0.2080059311810913  1.0000
  H   H10       1.0  0.88946547675058  0.2471166112913608  0.7919978315550296  1.0000
  H   H11       1.0  0.10006822051887818  0.6195943670370241  0.35518059585745493  1.0000
  H   H12       1.0  0.8999399925105751  0.3804041298968599  0.6448216848961792  1.0000
  H   H13       1.0  0.1935184479297547  0.7812824265166043  0.34680409211717494  1.0000
  H   H14       1.0  0.8064881319629296  0.21871264852578778  0.653199848598071  1.0000
  H   H15       1.0  0.16326900138710698  0.7908434302536521  0.8398981399155759  1.0000
  H   H16       1.0  0.8367299524761408  0.20916544528856212  0.16010545227019432  1.0000
  H   H17       1.0  0.32018067511798887  0.8981845328947601  0.8101172429529343  1.0000
  H   H18       1.0  0.679824670498796  0.10182201339090821  0.18988551739483486  1.0000
  H   H19       1.0  0.15441339104361862  0.9507555953323323  0.9104146578799758  1.0000
  H   H20       1.0  0.8456017383587381  0.04924410812341049  0.08959809279438963  1.0000
  H   H21       1.0  0.6482472006269547  0.7723791772992712  0.25555280078117454  1.0000
  H   H22       1.0  0.35175302131722924  0.22761250575729264  0.7444539757092062  1.0000
  H   H23       1.0  0.7001403309464679  0.5321388874604693  0.42191403433168523  1.0000
  H   H24       1.0  0.29985680669668824  0.46785048745615393  0.5780896554870056  1.0000
  H   H25       1.0  0.5736638375474855  0.31316955146959913  0.41313221735087075  1.0000
  H   H26       1.0  0.42633989705433367  0.6868162931132603  0.5868643953877424  1.0000
  H   H27       1.0  0.38697730166067856  0.32852764005599516  0.24111286556233583  1.0000
  H   H28       1.0  0.613030162487128  0.6714627235448846  0.758877149690335  1.0000
  H   H29       1.0  0.2785279407333618  0.39468927857251407  0.032601732827643594  1.0000
  H   H30       1.0  0.7214664956109971  0.6053126581221024  0.9673932661138311  1.0000
  H   H31       1.0  0.240430353050634  0.5380219794423056  0.8943042366852653  1.0000
  H   H32       1.0  0.7595595986029412  0.46198460792943047  0.10569566568837982  1.0000
  H   H33       1.0  0.9900964637226155  0.6694045280410351  0.0028874807450450265  1.0000
  H   H34       1.0  0.009902995702830682  0.33060208464775803  0.9971202042151506  1.0000
  H   H35       1.0  0.0277940775455932  0.5149698572499517  0.13545459363098195  1.0000
  H   H36       1.0  0.9722094085844262  0.4850344372656537  0.8645523867519033  1.0000
  C   C1        1.0  0.7099303431189911  0.9079882951792301  0.8194474406285934  1.0000
  C   C2        1.0  0.29006122790041644  0.0920159231911271  0.1805445140912738  1.0000
  C   C3        1.0  0.7748919767385161  0.8886448770725438  0.6908556766654927  1.0000
  C   C4        1.0  0.2251007820915945  0.1113593434950744  0.3091371357161777  1.0000
  C   C5        1.0  0.9219277090326017  0.7890321040273066  0.6768406794154205  1.0000
  C   C6        1.0  0.0780691029331706  0.21096983706184597  0.3231560348496529  1.0000
  C   C7        1.0  0.982934294886263  0.7668204724076021  0.558205275858775  1.0000
  C   C8        1.0  0.017067955857065397  0.23318375026023827  0.44179255523302174  1.0000
  C   C9        1.0  0.8951347506877879  0.8470450688625422  0.4500145487089428  1.0000
  C   C10       1.0  0.10487151618766435  0.15295682015421613  0.5499807352212472  1.0000
  C   C11       1.0  0.7474589144858825  0.9480003365927273  0.4627314503477964  1.0000
  C   C12       1.0  0.25254802935184983  0.05200380973577981  0.537259677177616  1.0000
  C   C13       1.0  0.688411342209889  0.9678332087813861  0.5815585028027358  1.0000
  C   C14       1.0  0.3115880114911676  0.032173249128511806  0.41843075631459203  1.0000
  C   C15       1.0  0.09603804795236216  0.7408592067247568  0.31045742462433173  1.0000
  C   C16       1.0  0.9039720689413429  0.2591358362147034  0.6895444826156024  1.0000
  C   C17       1.0  0.23572434180842822  0.8525266781010076  0.8813391004191475  1.0000
  C   C18       1.0  0.7642803162736345  0.1474775953950314  0.11866597374910273  1.0000
  C   C19       1.0  0.32802949979901547  0.75540233808659  0.9913564586855019  1.0000
  C   C20       1.0  0.6719751603707635  0.2445961677333984  0.008645091667020193  1.0000
  C   C21       1.0  0.4119998196458638  0.5612344885775614  0.15269442104199982  1.0000
  C   C22       1.0  0.5879906608025038  0.438764099220478  0.8473097354589215  1.0000
  C   C23       1.0  0.48496650441714445  0.6860899193034413  0.15643976563955422  1.0000
  C   C24       1.0  0.5150291958327102  0.3139063602576187  0.843565465237994  1.0000
  C   C25       1.0  0.5915670722123281  0.6768660712838611  0.2525680132425734  1.0000
  C   C26       1.0  0.4084262629885558  0.3231302193605642  0.7474373448956584  1.0000
  C   C27       1.0  0.6208780690998738  0.5412262568254178  0.3440279696556844  1.0000
  C   C28       1.0  0.3791114889790421  0.45876544515049034  0.6559756943392047  1.0000
  C   C29       1.0  0.5482669746767002  0.41713727480014745  0.33949045481244167  1.0000
  C   C30       1.0  0.4517301133027658  0.5828577981420153  0.6605084671926846  1.0000
  C   C31       1.0  0.4429320172948294  0.42464638807535243  0.24342642525633104  1.0000
  C   C32       1.0  0.5570667323402249  0.5753463777769953  0.756571919432169  1.0000
  C   C33       1.0  0.22313329161089263  0.5156701133555615  0.9975724688152569  1.0000
  C   C34       1.0  0.7768654168451976  0.48433413367626327  0.0024264744597104187  1.0000
  C   C35       1.0  0.04377148910188568  0.5464711843891196  0.03202973173029019  1.0000
  C   C36       1.0  0.956227975609785  0.4535354360386208  0.9679788745220537  1.0000
  N   N1        1.0  0.43151853712255667  0.8030370867782256  0.053734109053038985  1.0000
  N   N2        1.0  0.568483081035957  0.19695917281337932  0.9462717249649374  1.0000
  N   N3        1.0  0.3147062583197879  0.6085285249290351  0.04678289985071873  1.0000
  N   N4        1.0  0.6852950806265312  0.3914688273945545  0.9532162813193281  1.0000
  O   O1        1.0  0.5559070354637825  0.9650559642707746  0.8243343828653097  1.0000
  O   O2        1.0  0.4440876251428564  0.0349505699784629  0.1756615798183958  1.0000
  O   O3        1.0  0.7996054446153452  0.8688408224097232  0.913739820754458  1.0000
  O   O4        1.0  0.2003875849422414  0.1311565222719651  0.08625427807513122  1.0000
  O   O5        1.0  0.9418975592015428  0.8345628699812054  0.3295480356100172  1.0000
  O   O6        1.0  0.05811323994066702  0.16543443800894406  0.6704506365172805  1.0000
