data_image0
_chemical_formula_structural       Zn8H128C160N16O32
_chemical_formula_sum              "Zn8 H128 C160 N16 O32"
_cell_length_a       12.51021617421069
_cell_length_b       17.58460015504868
_cell_length_c       20.644975227569677
_cell_angle_alpha    90.00014802954095
_cell_angle_beta     96.19919642817663
_cell_angle_gamma    90.00020741583

_space_group_name_H-M_alt    "P 1"
_space_group_IT_number       1

loop_
  _space_group_symop_operation_xyz
  'x, y, z'

loop_
  _atom_site_type_symbol
  _atom_site_label
  _atom_site_symmetry_multiplicity
  _atom_site_fract_x
  _atom_site_fract_y
  _atom_site_fract_z
  _atom_site_occupancy
  Zn  Zn1       1.0  0.9536356919434681  0.04046040201721011  0.3172721897004962  1.0000
  Zn  Zn2       1.0  0.5463680301147774  0.5404591019862224  0.18272995868576913  1.0000
  Zn  Zn3       1.0  0.046370035962056  0.9595406825253292  0.6827322222762433  1.0000
  Zn  Zn4       1.0  0.4536320697812499  0.45954425725955883  0.8172697254544872  1.0000
  Zn  Zn5       1.0  0.059337120555042595  0.63838566842567  0.20209843597196198  1.0000
  Zn  Zn6       1.0  0.4406592763839328  0.1383851704054848  0.2979012296279748  1.0000
  Zn  Zn7       1.0  0.9406581550459094  0.36161598477521295  0.7979009323550343  1.0000
  Zn  Zn8       1.0  0.5593351951591501  0.8616130707178442  0.7020980860594649  1.0000
  H   H1        1.0  0.8956464650326552  0.8817299064432405  0.2860296282281425  1.0000
  H   H2        1.0  0.6043559380710876  0.3817311335699146  0.21397027934455792  1.0000
  H   H3        1.0  0.10435685083376  0.1182706094143526  0.7139731727112846  1.0000
  H   H4        1.0  0.3956417495473232  0.618276206431318  0.786031184403342  1.0000
  H   H5        1.0  0.7339204915754891  0.8000309295195722  0.2789208476410466  1.0000
  H   H6        1.0  0.7660822615449163  0.30003259364882956  0.22107744972770857  1.0000
  H   H7        1.0  0.26608362851711576  0.19996901765605912  0.721079584047736  1.0000
  H   H8        1.0  0.23391220976441227  0.6999719029531164  0.7789252566068825  1.0000
  H   H9        1.0  0.5625703129178206  0.9895318620497234  0.3539172412942548  1.0000
  H   H10       1.0  0.9374375133976757  0.4895348765198688  0.14608761819589944  1.0000
  H   H11       1.0  0.43743380713890895  0.010468085126639402  0.6460836747715533  1.0000
  H   H12       1.0  0.06256258630789799  0.5104645019737292  0.8539144878243334  1.0000
  H   H13       1.0  0.7303715636815513  0.0637379306778527  0.3577001607758988  1.0000
  H   H14       1.0  0.7696371117135  0.5637410624828123  0.142307206947109  1.0000
  H   H15       1.0  0.2696333601724277  0.936262016504763  0.6423041985642044  1.0000
  H   H16       1.0  0.23036459627297748  0.4362600220475628  0.8576925824605864  1.0000
  H   H17       1.0  0.5532095861814881  0.7799995852896302  0.3128135077216498  1.0000
  H   H18       1.0  0.9467938596774204  0.2800021796478376  0.18718430648910106  1.0000
  H   H19       1.0  0.4467985541108561  0.2199980871746661  0.6871876715171227  1.0000
  H   H20       1.0  0.0531990037002927  0.7199971988335462  0.8128158726834799  1.0000
  H   H21       1.0  0.4820967810249214  0.8541792269708355  0.3482814336204072  1.0000
  H   H22       1.0  0.0179040317517973  0.35418004339615555  0.15171754329954723  1.0000
  H   H23       1.0  0.5179041229817685  0.1458207201981452  0.651717334396615  1.0000
  H   H24       1.0  0.982090439685237  0.6458187664087733  0.8482832255196725  1.0000
  H   H25       1.0  0.5176184608308176  0.8451757206459193  0.2033418789000265  1.0000
  H   H26       1.0  0.9823805229573993  0.3451770320715681  0.296656755549094  1.0000
  H   H27       1.0  0.48238646336454133  0.15481797105586992  0.7966576366618768  1.0000
  H   H28       1.0  0.017616360582600497  0.6548195030198016  0.7033446555497562  1.0000
  H   H29       1.0  0.44002489177037046  0.9147985277459658  0.240022269356075  1.0000
  H   H30       1.0  0.05997545399736031  0.41480034893417883  0.259975841776324  1.0000
  H   H31       1.0  0.5599784245482269  0.0851968699874206  0.7599742346755535  1.0000
  H   H32       1.0  0.9400214296143901  0.5851961861557272  0.7400246005685034  1.0000
  H   H33       1.0  0.4476595782280413  0.7113283759288507  0.1861303890470154  1.0000
  H   H34       1.0  0.052338028412606305  0.21133034078161472  0.3138670945388142  1.0000
  H   H35       1.0  0.5523405218595413  0.28866645312141503  0.8138663888201875  1.0000
  H   H36       1.0  0.9476596594237633  0.7886650569469181  0.6861309785546368  1.0000
  H   H37       1.0  0.2862281792292123  0.6297670138497721  0.1750936847979858  1.0000
  H   H38       1.0  0.21376897385135857  0.12976715213636683  0.32490601131519264  1.0000
  H   H39       1.0  0.713769508582338  0.37023236463534903  0.8249048726775925  1.0000
  H   H40       1.0  0.7862311261022012  0.8702310889932791  0.6750927040644612  1.0000
  H   H41       1.0  0.10640626778326379  0.7917524021050467  0.2631247287550948  1.0000
  H   H42       1.0  0.39359258969884786  0.2917510295943586  0.2368764045367868  1.0000
  H   H43       1.0  0.893592224083001  0.20824925109882034  0.7368738813585836  1.0000
  H   H44       1.0  0.6064075099365523  0.7082489175801072  0.7631266702382149  1.0000
  H   H45       1.0  0.26255075548346696  0.8806360793337406  0.27804785248246594  1.0000
  H   H46       1.0  0.23745100840174865  0.38063482916112434  0.22195124498065874  1.0000
  H   H47       1.0  0.7374541689772657  0.11936273047758308  0.7219482724468804  1.0000
  H   H48       1.0  0.7625474830946786  0.6193628432942192  0.7780522088980818  1.0000
  H   H49       1.0  0.4857939595059761  0.9669160949569003  0.4482384057277287  1.0000
  H   H50       1.0  0.01420908797229  0.4669188737562636  0.0517619345972307  1.0000
  H   H51       1.0  0.5142085525864245  0.0330798714584546  0.5517604675545371  1.0000
  H   H52       1.0  0.9857910117364455  0.5330816420961424  0.9482401714244659  1.0000
  H   H53       1.0  0.46039571644880073  0.8798712885722679  0.5405026438955574  1.0000
  H   H54       1.0  0.0396075545993924  0.37987309326393875  0.9594982358502193  1.0000
  H   H55       1.0  0.539610815852825  0.12012581520819053  0.45949697694108244  1.0000
  H   H56       1.0  0.9603917410952505  0.620126853907216  0.040503333158547226  1.0000
  H   H57       1.0  0.2797347450712167  0.8254353723842129  0.5502759580940761  1.0000
  H   H58       1.0  0.22026741933655816  0.3254376115723119  0.9497247292885049  1.0000
  H   H59       1.0  0.7202717871507502  0.174558888000675  0.4497246314929484  1.0000
  H   H60       1.0  0.779732680589028  0.6745634729551072  0.05027447047181253  1.0000
  H   H61       1.0  0.12453780980474957  0.8597366555263619  0.4697283135815765  1.0000
  H   H62       1.0  0.3754662501045161  0.359741434622883  0.030270403772220796  1.0000
  H   H63       1.0  0.8754663103422259  0.14025703617431165  0.530271149345147  1.0000
  H   H64       1.0  0.6245362620084265  0.6402619246247666  0.969728469519538  1.0000
  H   H65       1.0  0.5969413896693964  0.3626305899525234  0.3921007418888962  1.0000
  H   H66       1.0  0.9030576913552295  0.8626299795202712  0.1078950310996021  1.0000
  H   H67       1.0  0.40305710233879916  0.6373704945689981  0.6078959307159835  1.0000
  H   H68       1.0  0.09694240850966199  0.1373750857644609  0.8921051374198613  1.0000
  H   H69       1.0  0.7334333829760453  0.4104130474269141  0.4794225572869096  1.0000
  H   H70       1.0  0.7665603350656269  0.9104118217825884  0.020576360543849103  1.0000
  H   H71       1.0  0.26656189266236646  0.5895891744526408  0.5205763266638073  1.0000
  H   H72       1.0  0.23343815670090612  0.08959267482051561  0.9794237027045298  1.0000
  H   H73       1.0  0.9159591938918652  0.3517221780733095  0.49469929559941056  1.0000
  H   H74       1.0  0.5840325894913291  0.8517232806440236  0.005303725706752994  1.0000
  H   H75       1.0  0.08403527740165372  0.6482766317345535  0.5053034107278762  1.0000
  H   H76       1.0  0.4159650982268133  0.1482812159579652  0.9946962849064463  1.0000
  H   H77       1.0  0.9624170220158063  0.24913577013860788  0.4190878847731838  1.0000
  H   H78       1.0  0.5375854477320418  0.7491392571831385  0.0809165788591386  1.0000
  H   H79       1.0  0.037586293798924  0.7508590589256414  0.5809154005359574  1.0000
  H   H80       1.0  0.46241706420467915  0.250865239426993  0.919084716319162  1.0000
  H   H81       1.0  0.1120013642797844  0.9649385714935764  0.24115306641967746  1.0000
  H   H82       1.0  0.38799765213838805  0.4649395258918716  0.2588445837659705  1.0000
  H   H83       1.0  0.8879979316021506  0.03506421907095359  0.7588460807076558  1.0000
  H   H84       1.0  0.6119992317482144  0.5350655393840142  0.7411524679506841  1.0000
  H   H85       1.0  0.15145269012477766  0.9547181405893002  0.1254598918882124  1.0000
  H   H86       1.0  0.34854385729593673  0.4547176381264393  0.37453805853277805  1.0000
  H   H87       1.0  0.8485441934996204  0.0452829439358595  0.8745405504624487  1.0000
  H   H88       1.0  0.6514522225718338  0.5452851524299618  0.6254584561687508  1.0000
  H   H89       1.0  0.8906700585501426  0.1123512664620065  0.07433002845457541  1.0000
  H   H90       1.0  0.6093316511212024  0.6123480208528349  0.4256702090483131  1.0000
  H   H91       1.0  0.1093300409776248  0.887648680714662  0.9256744994514747  1.0000
  H   H92       1.0  0.39067166498686834  0.3876490829231756  0.5743292012476076  1.0000
  H   H93       1.0  0.861546521980138  0.11554226944015508  0.19330136616417096  1.0000
  H   H94       1.0  0.6384535973066718  0.6155427189417892  0.3066992586409327  1.0000
  H   H95       1.0  0.1384543816318953  0.8844576777368971  0.8067027300000406  1.0000
  H   H96       1.0  0.36154811063919107  0.3844566595510912  0.6933010151415928  1.0000
  H   H97       1.0  0.0368107186555875  0.0831612525599681  0.9964042330242505  1.0000
  H   H98       1.0  0.4631852749397892  0.5831610492578391  0.50359261040186  1.0000
  H   H99       1.0  0.9631853608486695  0.9168398319655467  0.0035971254452676167  1.0000
  H   H100      1.0  0.536812412979394  0.4168383292250796  0.49640449394266983  1.0000
  H   H101      1.0  0.12270533156807768  0.004274374533821401  0.014848329030222403  1.0000
  H   H102      1.0  0.37729273210527475  0.504274840921262  0.4851501814795185  1.0000
  H   H103      1.0  0.8772923559174117  0.9957238665990857  0.9851545878370587  1.0000
  H   H104      1.0  0.6227065638468331  0.4957273809623857  0.514847996893046  1.0000
  H   H105      1.0  0.8673086094650203  0.6315205806635262  0.2744368017076084  1.0000
  H   H106      1.0  0.6326867744587047  0.1315213470229111  0.22556209516962866  1.0000
  H   H107      1.0  0.13268505802809472  0.36847709177927607  0.7255624613439197  1.0000
  H   H108      1.0  0.3673076971983349  0.8684791688158454  0.7744357673896829  1.0000
  H   H109      1.0  0.8228387742656764  0.5880184192312753  0.38291593920787653  1.0000
  H   H110      1.0  0.6771595840057357  0.0880212458826861  0.11708354092642281  1.0000
  H   H111      1.0  0.17715650117912674  0.4119786845372814  0.6170853666213462  1.0000
  H   H112      1.0  0.3228381038511757  0.9119815446781486  0.882914532176521  1.0000
  H   H113      1.0  0.14943305211353666  0.5062386705349908  0.4215290442301908  1.0000
  H   H114      1.0  0.3505634144580512  0.0062406883027322  0.07846839729919712  1.0000
  H   H115      1.0  0.8505630277368469  0.4937578645479306  0.5784674704633161  1.0000
  H   H116      1.0  0.6494350772958342  0.9937592588651112  0.9215316659433483  1.0000
  H   H117      1.0  0.17957331612498711  0.5500427772579924  0.3097040048199631  1.0000
  H   H118      1.0  0.32042258981341826  0.0500422130092701  0.190294465263328  1.0000
  H   H119      1.0  0.8204211556022257  0.44995716989988926  0.6902928889845796  1.0000
  H   H120      1.0  0.6795742938389466  0.9499560281181302  0.8097054927066625  1.0000
  H   H121      1.0  0.9323826409821478  0.5722748549706295  0.5046620543230915  1.0000
  H   H122      1.0  0.5676171413550436  0.0722757028502912  0.9953367477541164  1.0000
  H   H123      1.0  0.0676166548528485  0.42772395483877557  0.49533757717615157  1.0000
  H   H124      1.0  0.4323797424798741  0.9277236756322436  0.004660788332245101  1.0000
  H   H125      1.0  0.8828962215464814  0.48548573378501897  0.4717740675070702  1.0000
  H   H126      1.0  0.6171011299229647  0.9854841473580009  0.02822622231794011  1.0000
  H   H127      1.0  0.11710227020740402  0.5145142133828244  0.5282259957354755  1.0000
  H   H128      1.0  0.3828965577060401  0.014514093771971706  0.9717747570412669  1.0000
  C   C1        1.0  0.8201449761392324  0.9038235944124223  0.3000781830734951  1.0000
  C   C2        1.0  0.6798615699785697  0.40382326690268394  0.19992252876119215  1.0000
  C   C3        1.0  0.1798583398738529  0.09617805880105118  0.6999226803593217  1.0000
  C   C4        1.0  0.3201385297380739  0.5961800923467634  0.8000795772641496  1.0000
  C   C5        1.0  0.7289076863461261  0.8583353748101105  0.2965985942680618  1.0000
  C   C6        1.0  0.7710961948433167  0.3583352922218097  0.20340087414615482  1.0000
  C   C7        1.0  0.2710948256528667  0.1416657097221048  0.7034017321518249  1.0000
  C   C8        1.0  0.22890149265324314  0.641666929666954  0.7966020427262351  1.0000
  C   C9        1.0  0.6330006128123459  0.8876524098860018  0.3155855183381746  1.0000
  C   C10       1.0  0.8670058434252892  0.3876559282332011  0.1844151519925177  1.0000
  C   C11       1.0  0.3670035072771044  0.1123463999308143  0.6844149133491513  1.0000
  C   C12       1.0  0.13299184407285478  0.6123468623349667  0.8155877648805899  1.0000
  C   C13       1.0  0.6341127672920591  0.9629347940773912  0.3380938893650054  1.0000
  C   C14       1.0  0.8658933031152997  0.4629371040174703  0.16191031220631663  1.0000
  C   C15       1.0  0.36588974463201385  0.0370651530974797  0.6619074058074617  1.0000
  C   C16       1.0  0.1341051884950772  0.5370628431533079  0.8380916885442957  1.0000
  C   C17       1.0  0.7281655620643691  0.0052270459980122  0.3403577961194983  1.0000
  C   C18       1.0  0.7718419842497684  0.5052290986491883  0.1596464625164558  1.0000
  C   C19       1.0  0.2718385579206029  0.9947729011798144  0.6596440887003396  1.0000
  C   C20       1.0  0.228158115533887  0.49477255456056907  0.8403546747526603  1.0000
  C   C21       1.0  0.5320457677075224  0.8406941369369889  0.3090721126476694  1.0000
  C   C22       1.0  0.967956407363033  0.34069565964085063  0.1909267208389025  1.0000
  C   C23       1.0  0.46795754836467296  0.1593029668397534  0.6909277820252697  1.0000
  C   C24       1.0  0.0320388681208073  0.6593025814857895  0.8090741006147724  1.0000
  C   C25       1.0  0.4657453818821082  0.8549860015678237  0.242347738852402  1.0000
  C   C26       1.0  0.03425543537707651  0.35498604359928987  0.25765124013742746  1.0000
  C   C27       1.0  0.5342587383070665  0.14500996484975562  0.7576512397002234  1.0000
  C   C28       1.0  0.9657422522456046  0.6450099228130526  0.7423497392188594  1.0000
  C   C29       1.0  0.3689927071561385  0.8039468864051358  0.2330738085981139  1.0000
  C   C30       1.0  0.13100863033788807  0.3039489111288348  0.2669265451509801  1.0000
  C   C31       1.0  0.6310090007802386  0.19604908001130641  0.7669264651800277  1.0000
  C   C32       1.0  0.8689922736983532  0.6960487613217767  0.7330717384861032  1.0000
  C   C33       1.0  0.3741558623086121  0.7321055796341155  0.2041387409419499  1.0000
  C   C34       1.0  0.1258426638329624  0.23210540403697877  0.2958593329851951  1.0000
  C   C35       1.0  0.6258442376059109  0.2678915241374468  0.7958604588132588  1.0000
  C   C36       1.0  0.8741550240424443  0.7678911310496374  0.7041382557327012  1.0000
  C   C37       1.0  0.2836714076635971  0.6858644244665086  0.19736088813054664  1.0000
  C   C38       1.0  0.21632766548924562  0.18586563921465432  0.3026371197396713  1.0000
  C   C39       1.0  0.716330300282266  0.3141349540263719  0.8026393856519718  1.0000
  C   C40       1.0  0.7836700224673975  0.8141343079469365  0.6973595002285649  1.0000
  C   C41       1.0  0.18372347861662772  0.7763196552333369  0.24700564857268864  1.0000
  C   C42       1.0  0.316279313324074  0.2763192703003766  0.25299570828287443  1.0000
  C   C43       1.0  0.8162758171872326  0.2236808606150262  0.7529944673057614  1.0000
  C   C44       1.0  0.6837240027934754  0.7236812455520792  0.7470037020174303  1.0000
  C   C45       1.0  0.2712344632925934  0.8253979500381944  0.25503230364808627  1.0000
  C   C46       1.0  0.2287661894232684  0.3253978846488579  0.2449675681476862  1.0000
  C   C47       1.0  0.7287656368778102  0.17460085976644993  0.7449635054701886  1.0000
  C   C48       1.0  0.7712347142605227  0.6746020625267235  0.7550355592624883  1.0000
  C   C49       1.0  0.217735853115002  0.9324798852474603  0.41355370290636273  1.0000
  C   C50       1.0  0.2822670030148871  0.43248288908213794  0.0864455802724251  1.0000
  C   C51       1.0  0.782268267043037  0.06751778720907708  0.5864457600254696  1.0000
  C   C52       1.0  0.7177339010371638  0.5675204701625488  0.9135527033719556  1.0000
  C   C53       1.0  0.3203575911994534  0.9625136731856545  0.4073265934504918  1.0000
  C   C54       1.0  0.17964462779290358  0.4625158635774796  0.0926731985611795  1.0000
  C   C55       1.0  0.6796481369820313  0.03748343059516661  0.5926739435049981  1.0000
  C   C56       1.0  0.8203554720983776  0.5374857896300754  0.9073264855768886  1.0000
  C   C57       1.0  0.4069779157240844  0.9426407831873862  0.4530851769292568  1.0000
  C   C58       1.0  0.09302660494645922  0.4426431810984326  0.0469147219775863  1.0000
  C   C59       1.0  0.5930278124199333  0.05735575191475561  0.5469158444025268  1.0000
  C   C60       1.0  0.9069718868480477  0.5573584721068982  0.9530848568901291  1.0000
  C   C61       1.0  0.3930236739905837  0.8934364258700073  0.5043586732796116  1.0000
  C   C62       1.0  0.10697806462053448  0.3934396504982161  0.9956387453781234  1.0000
  C   C63       1.0  0.6069828584170905  0.1065601092288446  0.495639494425248  1.0000
  C   C64       1.0  0.8930220352707535  0.6065620027093388  0.004360938759944606  1.0000
  C   C65       1.0  0.2911537674761107  0.8633543002721781  0.5100077283276292  1.0000
  C   C66       1.0  0.2088518239884607  0.3633606128896929  0.9899922981788832  1.0000
  C   C67       1.0  0.7088519606615903  0.13663996011233343  0.4899932930012342  1.0000
  C   C68       1.0  0.791149884077676  0.6366433150362525  0.010006522478427423  1.0000
  C   C69       1.0  0.2043428351692143  0.8825476190640842  0.4648634532998202  1.0000
  C   C70       1.0  0.2956589393531742  0.3825505018443208  0.0351356490752366  1.0000
  C   C71       1.0  0.7956628929357664  0.11744777867997411  0.5351380524075182  1.0000
  C   C72       1.0  0.7043411607612742  0.6174539947558697  0.9648611288043725  1.0000
  C   C73       1.0  0.1198804308816221  0.9544858789299655  0.3688891428155117  1.0000
  C   C74       1.0  0.3801209394789922  0.45448983815312965  0.1311100915801333  1.0000
  C   C75       1.0  0.8801220811390281  0.04551008748685351  0.6311106992207982  1.0000
  C   C76       1.0  0.6198807684030143  0.5455123837382628  0.8688911509600742  1.0000
  C   C77       1.0  0.33964263614149104  0.014053037731166299  0.3520386463933036  1.0000
  C   C78       1.0  0.1603570899202751  0.5140559059540166  0.1479609632442234  1.0000
  C   C79       1.0  0.6603598758432765  0.9859429286863844  0.6479616800200175  1.0000
  C   C80       1.0  0.8396414018383566  0.4859457472520461  0.8520391000005034  1.0000
  C   C81       1.0  0.8065539231671438  0.2478491343112808  0.36442784154886715  1.0000
  C   C82       1.0  0.6934493437952158  0.7478509126471024  0.13557231202069184  1.0000
  C   C83       1.0  0.19344858892841904  0.7521479694628823  0.6355710317348624  1.0000
  C   C84       1.0  0.30654995194162643  0.2521513092409507  0.8644287726139837  1.0000
  C   C85       1.0  0.7020164370095615  0.2783620524528487  0.3579061969999628  1.0000
  C   C86       1.0  0.7979878037546656  0.7783629817395336  0.14209215001755382  1.0000
  C   C87       1.0  0.29798687914228583  0.7216378947194713  0.6420927289225915  1.0000
  C   C88       1.0  0.2020139041336648  0.2216415148694821  0.8579090925255742  1.0000
  C   C89       1.0  0.6779081356466248  0.3386983989384048  0.3981590710082799  1.0000
  C   C90       1.0  0.8220916164718233  0.8386998368678675  0.10183572443376221  1.0000
  C   C91       1.0  0.3220895522350986  0.6613004108658418  0.6018385177125367  1.0000
  C   C92       1.0  0.17791009152097806  0.16130352238013765  0.8981640649768536  1.0000
  C   C93       1.0  0.7546393402357408  0.3654867833010513  0.4467602907268073  1.0000
  C   C94       1.0  0.7453573442365881  0.8654873081830132  0.053239206705157506  1.0000
  C   C95       1.0  0.2453551312028708  0.6345125951832812  0.5532404780931444  1.0000
  C   C96       1.0  0.2546467759747131  0.1345166197462646  0.9467597718576855  1.0000
  C   C97       1.0  0.857238928352473  0.3332325689254104  0.45499910556635115  1.0000
  C   C98       1.0  0.6427551645777355  0.8332339426291997  0.04500160430064431  1.0000
  C   C99       1.0  0.14275875941846286  0.6667651035222165  0.5449999362840572  1.0000
  C   C100      1.0  0.35724252303277376  0.16677055397499166  0.9549998594436104  1.0000
  C   C101      1.0  0.8832384760913641  0.2756071173993462  0.4132899951458811  1.0000
  C   C102      1.0  0.6167673573790964  0.775606275977701  0.0867094188222595  1.0000
  C   C103      1.0  0.11676805600289698  0.7243928297825591  0.5867125319565076  1.0000
  C   C104      1.0  0.3832375670272654  0.22439878930857302  0.913287674869153  1.0000
  C   C105      1.0  0.8365528928311503  0.1838846168580801  0.3215918214601885  1.0000
  C   C106      1.0  0.6634476062468693  0.6838864479126131  0.17841043190196615  1.0000
  C   C107      1.0  0.1634439907463019  0.8161124869119619  0.6784091052623822  1.0000
  C   C108      1.0  0.33655490568668966  0.3161169113387032  0.821590863274878  1.0000
  C   C109      1.0  0.6092535400114302  0.24294110378252745  0.315703307038234  1.0000
  C   C110      1.0  0.8907480918184874  0.7429412618746767  0.184293338021611  1.0000
  C   C111      1.0  0.3907449518938719  0.7570616867794157  0.6842948186998825  1.0000
  C   C112      1.0  0.10925200811499282  0.25706266604977657  0.8157058617423588  1.0000
  C   C113      1.0  0.06464965883829168  0.9960304299564842  0.20243836855876654  1.0000
  C   C114      1.0  0.43534872621597737  0.49603048594059357  0.2975612463066  1.0000
  C   C115      1.0  0.9353528530641313  0.0039746353337904005  0.7975634109972846  1.0000
  C   C116      1.0  0.5646473535082775  0.5039723046187491  0.7024372059030028  1.0000
  C   C117      1.0  0.08583478157528648  0.9910999087138278  0.1377543998061626  1.0000
  C   C118      1.0  0.41416518423426396  0.49109783153758707  0.3622443389169092  1.0000
  C   C119      1.0  0.9141653182816967  0.0089023131738699  0.8622457687096557  1.0000
  C   C120      1.0  0.5858325037255412  0.5089032529828259  0.6377522810527907  1.0000
  C   C121      1.0  0.023356799166222707  0.0323347082050205  0.0896187506081105  1.0000
  C   C122      1.0  0.4766414204082707  0.5323329285580769  0.410380800679313  1.0000
  C   C123      1.0  0.9766392803786488  0.9676680823579887  0.9103821234865778  1.0000
  C   C124      1.0  0.5233562675140745  0.4676675872836568  0.5896163036666735  1.0000
  C   C125      1.0  0.9409616276335839  0.07793035725155312  0.10956509408620721  1.0000
  C   C126      1.0  0.5590390866561705  0.5779280130474974  0.39043500242951984  1.0000
  C   C127      1.0  0.0590376679175506  0.9220695899225364  0.8904384124306333  1.0000
  C   C128      1.0  0.4409610132646691  0.42207136544169543  0.6095641973286163  1.0000
  C   C129      1.0  0.9238015335470919  0.0802472341258849  0.17492184976570974  1.0000
  C   C130      1.0  0.5761991937023083  0.5802481480617417  0.32507728394722335  1.0000
  C   C131      1.0  0.07619776203834049  0.9197521443680614  0.8250811723733805  1.0000
  C   C132      1.0  0.4238001022466378  0.4197529364630909  0.6749208944238845  1.0000
  C   C133      1.0  0.0415456527042579  0.0264442433493102  0.0190437887225343  1.0000
  C   C134      1.0  0.45845333828494006  0.5264431994830544  0.48095434695004974  1.0000
  C   C135      1.0  0.9584528389077037  0.9735562725008723  0.9809582120288027  1.0000
  C   C136      1.0  0.541545153755969  0.47355674767892003  0.5190418412763549  1.0000
  C   C137      1.0  0.9275415903491933  0.6032926010879935  0.3084282581152351  1.0000
  C   C138      1.0  0.5724544406362496  0.1032919723675079  0.19157158769257882  1.0000
  C   C139      1.0  0.0724528810160834  0.3967062087184062  0.6915734794580288  1.0000
  C   C140      1.0  0.4275432471784626  0.8967085434764286  0.8084269697844633  1.0000
  C   C141      1.0  0.9037250135335169  0.5791436915113622  0.36919858652721155  1.0000
  C   C142      1.0  0.5962732954022698  0.0791452145719447  0.130800870825361  1.0000
  C   C143      1.0  0.0962694579283294  0.4208511375369781  0.6308016979098882  1.0000
  C   C144      1.0  0.4037243924171889  0.9208570073102108  0.8691976866538695  1.0000
  C   C145      1.0  0.9829039740086857  0.5443059896310986  0.4125073165522224  1.0000
  C   C146      1.0  0.517094141237763  0.044307178067818094  0.0874925357539524  1.0000
  C   C147      1.0  0.017093713684175796  0.4556894081003691  0.5874926940493026  1.0000
  C   C148      1.0  0.48290595868466096  0.9556927691007786  0.9125066640049083  1.0000
  C   C149      1.0  0.08420826077089322  0.5337387392075924  0.3909376244734162  1.0000
  C   C150      1.0  0.4157891627145958  0.033741017222325795  0.10905994027989861  1.0000
  C   C151      1.0  0.9157878190061552  0.4662572271973887  0.6090598589733958  1.0000
  C   C152      1.0  0.5842133493545703  0.9662594986290213  0.8909394173852263  1.0000
  C   C153      1.0  0.1026948536842411  0.5585256986598851  0.3291286254119044  1.0000
  C   C154      1.0  0.39730029543356676  0.058525841732276304  0.1708688450574272  1.0000
  C   C155      1.0  0.8972996180413874  0.44147367981858565  0.6708682683919066  1.0000
  C   C156      1.0  0.6026973923078174  0.9414741054337128  0.8291306811729201  1.0000
  C   C157      1.0  0.9557758909935785  0.5208821506540959  0.47896012192459375  1.0000
  C   C158      1.0  0.5442245061914334  0.0208832074452658  0.021039828161576707  1.0000
  C   C159      1.0  0.0442234047680827  0.47911609047736897  0.5210404783279543  1.0000
  C   C160      1.0  0.4557772017950441  0.9791178770851087  0.9789599612461188  1.0000
  N   N1        1.0  0.8198830900783987  0.9764775387325529  0.3213428111523555  1.0000
  N   N2        1.0  0.6801222515938221  0.4764788535090077  0.17866088816761314  1.0000
  N   N3        1.0  0.1801202256413461  0.0235218397691597  0.6786619272936747  1.0000
  N   N4        1.0  0.3198786523147135  0.5235245057386206  0.8213393329848344  1.0000
  N   N5        1.0  0.18935138816146949  0.707602673653632  0.2180235077365538  1.0000
  N   N6        1.0  0.3106470015958962  0.2076023620661687  0.2819769251803379  1.0000
  N   N7        1.0  0.8106479077468618  0.2923967048337133  0.7819751550093841  1.0000
  N   N8        1.0  0.6893498820596375  0.7923970164200398  0.718023032791109  1.0000
  N   N9        1.0  0.9845289095125905  0.039641965604488405  0.22061484028086648  1.0000
  N   N10       1.0  0.5154707878999573  0.53964144773461  0.2793851053216443  1.0000
  N   N11       1.0  0.0154727982976652  0.9603602562883679  0.779387371013371  1.0000
  N   N12       1.0  0.4845268999210787  0.4603613428269497  0.7206134521583181  1.0000
  N   N13       1.0  0.0261224026913212  0.5932530847406169  0.2888943787113618  1.0000
  N   N14       1.0  0.47387293935747726  0.0932529777492945  0.21110463402852986  1.0000
  N   N15       1.0  0.973871264803371  0.4067451563815965  0.7111048843409051  1.0000
  N   N16       1.0  0.5261247484197753  0.9067469694159699  0.7888944078247987  1.0000
  O   O1        1.0  0.09064148754766417  0.025242652530891998  0.3717965400757208  1.0000
  O   O2        1.0  0.4093639291227973  0.5252449632107882  0.128202497975316  1.0000
  O   O3        1.0  0.9093650446104462  0.974754451252508  0.6282050182689859  1.0000
  O   O4        1.0  0.5906401910447271  0.4747561213221871  0.8717969649609004  1.0000
  O   O5        1.0  0.06960709337370469  0.9052239078829772  0.334046072645414  1.0000
  O   O6        1.0  0.43039480715778206  0.4052246897486925  0.1659535723104923  1.0000
  O   O7        1.0  0.930395418576758  0.09477262721470942  0.6659547381456576  1.0000
  O   O8        1.0  0.5696069008645779  0.5947763947809436  0.8340457327201848  1.0000
  O   O9        1.0  0.2886842754382428  0.005820116550040701  0.2966281085938931  1.0000
  O   O10       1.0  0.2113137967146628  0.5058187341290575  0.2033718590122007  1.0000
  O   O11       1.0  0.7113142162438919  0.9941798306192738  0.7033729234026751  1.0000
  O   O12       1.0  0.7886887153560804  0.4941823504016938  0.796627498653649  1.0000
  O   O13       1.0  0.4132486999218443  0.06540206077455932  0.3661543321471896  1.0000
  O   O14       1.0  0.08675131150162942  0.5654046971411262  0.13384637804907132  1.0000
  O   O15       1.0  0.5867489878195329  0.9345978863914368  0.6338451940831505  1.0000
  O   O16       1.0  0.9132503963867079  0.4345997994678966  0.8661548644940567  1.0000
  O   O17       1.0  0.9159936629790336  0.14278004136406253  0.3471583982786015  1.0000
  O   O18       1.0  0.5840049993744144  0.6427832969156527  0.15284558181401312  1.0000
  O   O19       1.0  0.08400241633792403  0.8572181997680846  0.6528453820723499  1.0000
  O   O20       1.0  0.41599751270739915  0.35722176837095526  0.8471537758569526  1.0000
  O   O21       1.0  0.7868432337830951  0.17483052399663987  0.2660363365944249  1.0000
  O   O22       1.0  0.7131628432663816  0.6748315137251025  0.2339667463494663  1.0000
  O   O23       1.0  0.2131576701439286  0.825166579776763  0.733963400172982  1.0000
  O   O24       1.0  0.286840472567313  0.32517013949204454  0.7660365389684358  1.0000
  O   O25       1.0  0.5790763756789871  0.17854611852945368  0.3387503111274839  1.0000
  O   O26       1.0  0.9209281146491931  0.6785485590334874  0.16124298854492033  1.0000
  O   O27       1.0  0.4209221164025436  0.8214555346700082  0.6612453927240907  1.0000
  O   O28       1.0  0.0790743975091104  0.32145821228987603  0.8387554003741969  1.0000
  O   O29       1.0  0.5636071327610566  0.27674213882099247  0.2675405344190978  1.0000
  O   O30       1.0  0.9363898624867274  0.7767414227391923  0.23245830347566712  1.0000
  O   O31       1.0  0.4363913589944133  0.7232583770262622  0.7324595288241653  1.0000
  O   O32       1.0  0.0636110414218081  0.22326193650842902  0.7675419176767876  1.0000
