data_image0
_chemical_formula_structural       CuH16C14N8O10
_chemical_formula_sum              "Cu1 H16 C14 N8 O10"
_cell_length_a       7.0258144099784765
_cell_length_b       7.492247670305937
_cell_length_c       9.782802601018254
_cell_angle_alpha    69.87778754619397
_cell_angle_beta     88.45108086100419
_cell_angle_gamma    75.80059369195885

_space_group_name_H-M_alt    "P 1"
_space_group_IT_number       1

loop_
  _space_group_symop_operation_xyz
  'x, y, z'

loop_
  _atom_site_type_symbol
  _atom_site_label
  _atom_site_symmetry_multiplicity
  _atom_site_fract_x
  _atom_site_fract_y
  _atom_site_fract_z
  _atom_site_occupancy
  Cu  Cu1       1.0  5.583433662471041e-07  0.5000005803183001  4.4556718141111234e-07  1.0000
  H   H1        1.0  0.9428638329169767  0.8187427590508066  0.18331757040273539  1.0000
  H   H2        1.0  0.05713614398820252  0.18125265456430387  0.8166851276832503  1.0000
  H   H3        1.0  0.9156118985807923  0.8624603604533762  0.9645621504973574  1.0000
  H   H4        1.0  0.08438371559269342  0.1375408918734706  0.03543803710005729  1.0000
  H   H5        1.0  0.14315528215904297  0.8351735055825033  0.9978787054728643  1.0000
  H   H6        1.0  0.8568425403348101  0.1648247933021167  0.0021191682225420996  1.0000
  H   H7        1.0  0.31614569515946306  0.763995183829529  0.24762773090335333  1.0000
  H   H8        1.0  0.6838527600654913  0.23600609432728697  0.7523724021526732  1.0000
  H   H9        1.0  0.26444395500438134  0.549260055305453  0.2615956691854818  1.0000
  H   H10       1.0  0.7355541332777805  0.4507426719436153  0.7384020380399079  1.0000
  H   H11       1.0  0.1497922263668414  0.18899258859553916  0.4656973501185675  1.0000
  H   H12       1.0  0.8502102015431418  0.8110043291586706  0.5343059268636452  1.0000
  H   H13       1.0  0.6774963826582336  0.35769824564481933  0.48076630106868373  1.0000
  H   H14       1.0  0.3224992469178359  0.6423029872041113  0.5192318470165631  1.0000
  H   H15       1.0  0.5409495700019703  0.6785992419663315  0.030576324752253504  1.0000
  H   H16       1.0  0.459051359331653  0.321403511112706  0.9694213279317481  1.0000
  C   C1        1.0  0.4037232806126739  0.08630746721393481  0.3601828706281722  1.0000
  C   C2        1.0  0.5962816060033945  0.9136909449404127  0.6398199654941834  1.0000
  C   C3        1.0  0.6020988091138763  0.9794086727319778  0.378515527263616  1.0000
  C   C4        1.0  0.39790711568254966  0.0205912209075194  0.6214868952695767  1.0000
  C   C5        1.0  0.30400595017060533  0.10758462363909871  0.481347220051056  1.0000
  C   C6        1.0  0.6959985463987977  0.892415266824372  0.5186562495089149  1.0000
  C   C7        1.0  0.2857827542322013  0.1675141367433213  0.21607094121566922  1.0000
  C   C8        1.0  0.7142213907969861  0.8324871833344787  0.7839280630014898  1.0000
  C   C9        1.0  0.7172686979749726  0.9709295931455273  0.24931796081293095  1.0000
  C   C10       1.0  0.2827359151515054  0.0290644003833336  0.7506860615355321  1.0000
  C   C11       1.0  0.6935614098340038  0.4091422622441669  0.3636588629023905  1.0000
  C   C12       1.0  0.3064366861494463  0.5908604552659398  0.6363378245669082  1.0000
  C   C13       1.0  0.6217470653907213  0.5785746082998671  0.13199896649067716  1.0000
  C   C14       1.0  0.37825245111846323  0.42142812212522773  0.8679976937079275  1.0000
  N   N1        1.0  0.8075798687788379  0.47612629428279246  0.15020614596844692  1.0000
  N   N2        1.0  0.19242040471981187  0.5238735087409265  0.8497923066231863  1.0000
  N   N3        1.0  0.8540177964466196  0.36783038770575854  0.2958856563554875  1.0000
  N   N4        1.0  0.14597924595389597  0.6321708677971146  0.7041134842151492  1.0000
  N   N5        1.0  0.5459169613572641  0.5401612917853952  0.265373505915001  1.0000
  N   N6        1.0  0.45408113462618627  0.4598414257247114  0.7346231815542978  1.0000
  N   N7        1.0  0.35477048696048286  0.6133889506718688  0.2997810614345227  1.0000
  N   N8        1.0  0.6452272189763022  0.386615245147361  0.7002162594723912  1.0000
  O   O1        1.0  0.22573537188164752  0.3544035116192886  0.16046599429682126  1.0000
  O   O2        1.0  0.7742669471725493  0.6455992933305763  0.8395357101408224  1.0000
  O   O3        1.0  0.24731830508552116  0.045583964855431695  0.1648220285091924  1.0000
  O   O4        1.0  0.7526815552625835  0.9544173456942957  0.8351801167883081  1.0000
  O   O5        1.0  0.6689037714936745  0.09767888407915142  0.12612639725671929  1.0000
  O   O6        1.0  0.33109520573761153  0.9023149993560081  0.8738716156380165  1.0000
  O   O7        1.0  0.8743641446317625  0.8211503839622409  0.2785718064221356  1.0000
  O   O8        1.0  0.1256396961026667  0.1788465564459116  0.721432463045474  1.0000
  O   O9        1.0  0.026951028139279753  0.7919053661858017  0.04378127553480474  1.0000
  O   O10       1.0  0.9730481994777307  0.2080929650917227  0.9562186104020755  1.0000
