data_image0
_chemical_formula_structural       Zn6H16C70Br8Cl12O24
_chemical_formula_sum              "Zn6 H16 C70 Br8 Cl12 O24"
_cell_length_a       18.869995170471025
_cell_length_b       17.724384923410437
_cell_length_c       19.10664667638105
_cell_angle_alpha    108.62464617205117
_cell_angle_beta     111.00196825580497
_cell_angle_gamma    108.89711528755157

_space_group_name_H-M_alt    "P 1"
_space_group_IT_number       1

loop_
  _space_group_symop_operation_xyz
  'x, y, z'

loop_
  _atom_site_type_symbol
  _atom_site_label
  _atom_site_symmetry_multiplicity
  _atom_site_fract_x
  _atom_site_fract_y
  _atom_site_fract_z
  _atom_site_occupancy
  Zn  Zn1       1.0  0.5668875507657914  0.06856973991379078  0.009612412098270764  1.0000
  Zn  Zn2       1.0  0.44261150489279555  0.9310606537149155  0.0037386308306751443  1.0000
  Zn  Zn3       1.0  0.5508469391741144  0.5076765963525177  0.5485794437484798  1.0000
  Zn  Zn4       1.0  0.41688993110086864  0.4957810005122737  0.4175871839063915  1.0000
  Zn  Zn5       1.0  0.004333058278689469  0.9220092186618984  0.444311637518254  1.0000
  Zn  Zn6       1.0  0.008653360418762215  0.06307460474063481  0.5587784166865077  1.0000
  H   H1        1.0  0.04733309973323689  0.9706546780902486  0.8470538692044087  1.0000
  H   H2        1.0  0.24169788406511836  0.9402926672241493  0.6099214807627787  1.0000
  H   H3        1.0  0.3687187378788366  0.10588334446155293  0.15991537280078202  1.0000
  H   H4        1.0  0.6589773322276143  0.16493920556384714  0.24424822910842173  1.0000
  H   H5        1.0  0.8074216873628542  0.29299642273953447  0.35880191501605907  1.0000
  H   H6        1.0  0.8261087654832835  0.4432926648335568  0.4495803505588968  1.0000
  H   H7        1.0  0.335459628342207  0.6819023409917266  0.7238298410713924  1.0000
  H   H8        1.0  0.7569131306651755  0.026467451226025715  0.05492636110020749  1.0000
  H   H9        1.0  0.9700712225305139  0.9861572997412295  0.26358715934847504  1.0000
  H   H10       1.0  0.19798175753112446  0.35330013079823164  0.4466096060696002  1.0000
  H   H11       1.0  0.4036574008791831  0.2546550121309322  0.4335459230463171  1.0000
  H   H12       1.0  0.45037247267534747  0.15355925164880788  0.47517775316825334  1.0000
  H   H13       1.0  0.39733933772426855  0.09199155229619276  0.5585906197014338  1.0000
  H   H14       1.0  0.113142420427323  0.25404588472102324  0.48851675900606745  1.0000
  H   H15       1.0  0.6499159412510309  0.6190856614136565  0.3937985364092496  1.0000
  H   H16       1.0  0.6274143835957844  0.9688759961083875  0.6447652421049668  1.0000
  C   C1        1.0  0.40682951878748946  0.03156326528353759  0.9002950074995012  1.0000
  C   C2        1.0  0.5678544972577839  0.7589239870989034  0.7694943098424432  1.0000
  C   C3        1.0  0.5344916483488191  0.7390744678033841  0.8294392153249461  1.0000
  C   C4        1.0  0.48386270389251235  0.7941315724601237  0.8162766208605061  1.0000
  C   C5        1.0  0.26440994565797377  0.06760823647115186  0.9145924959584304  1.0000
  C   C6        1.0  0.18874589992637394  0.05110241844265315  0.9177465201716044  1.0000
  C   C7        1.0  0.10570619889079333  0.9902152465889672  0.842405918267282  1.0000
  C   C8        1.0  0.09997825501928762  0.9557144043626522  0.7637359237736587  1.0000
  C   C9        1.0  0.17562370169721217  0.9795804990609155  0.7564591863393771  1.0000
  C   C10       1.0  0.2587828870025814  0.024660151207100866  0.8338001754503919  1.0000
  C   C11       1.0  0.3314676918153124  0.02182852825713869  0.8266589025905942  1.0000
  C   C12       1.0  0.48165824753397146  0.8612855280230889  0.8851074895541513  1.0000
  C   C13       1.0  0.3210353185267535  0.9856171171570408  0.745492134460626  1.0000
  C   C14       1.0  0.24419350001230822  0.9584984373803849  0.6711136282566342  1.0000
  C   C15       1.0  0.17296022944680792  0.9573514281533305  0.6762366707197599  1.0000
  C   C16       1.0  0.6675301233440649  0.2283144442674896  0.28835477660793163  1.0000
  C   C17       1.0  0.7502064960510495  0.29986617818307343  0.3515320358078782  1.0000
  C   C18       1.0  0.7609168529232805  0.3839553234455265  0.40421082132798586  1.0000
  C   C19       1.0  0.6891262217015136  0.39334077281563384  0.39713513557681046  1.0000
  C   C20       1.0  0.6016449288662784  0.3175273861815739  0.3400682109927543  1.0000
  C   C21       1.0  0.5926873826974131  0.23557200175817875  0.280127932889087  1.0000
  C   C22       1.0  0.5069312938441257  0.1611808025958013  0.2127888559676805  1.0000
  C   C23       1.0  0.646782094272389  0.011619974086947564  0.10918367882320718  1.0000
  C   C24       1.0  0.4338334974335041  0.16251096955254243  0.21095450835942836  1.0000
  C   C25       1.0  0.4429092167595741  0.23971821519936753  0.2734118768523999  1.0000
  C   C26       1.0  0.5241272192394603  0.31721773863588953  0.33666185355780687  1.0000
  C   C27       1.0  0.8024731846745324  0.017393029167138366  0.10113307648860832  1.0000
  C   C28       1.0  0.8755093664226479  0.02214341241528918  0.09764569176819993  1.0000
  C   C29       1.0  0.9377227210106157  0.01269024054485603  0.158393624835682  1.0000
  C   C30       1.0  0.9231832972322633  0.9956392004456373  0.21894134600240278  1.0000
  C   C31       1.0  0.8476200713752745  0.9883964016878365  0.22254687229375478  1.0000
  C   C32       1.0  0.7868065325025384  0.0022211304143980267  0.1639891347817795  1.0000
  C   C33       1.0  0.7125862183317367  0.999219907040775  0.1702839300047003  1.0000
  C   C34       1.0  0.4948488812874742  0.08794624766280632  0.13582050378367674  1.0000
  C   C35       1.0  0.6983673447647618  0.978989406626617  0.23052086149351672  1.0000
  C   C36       1.0  0.7557109791165999  0.9596769812309488  0.28424979186060984  1.0000
  C   C37       1.0  0.830816315708283  0.9677713190818478  0.28306353594928857  1.0000
  C   C38       1.0  0.3427242738686046  0.36797972351952507  0.4451411501782727  1.0000
  C   C39       1.0  0.4890324909217796  0.6040103229513463  0.6186752319695826  1.0000
  C   C40       1.0  0.5656867043105862  0.6407402902346532  0.47220868039349273  1.0000
  C   C41       1.0  0.52555004411618  0.3937804118165503  0.4017522194633543  1.0000
  C   C42       1.0  0.8767199177877528  0.9151708069623224  0.5185755023949808  1.0000
  C   C43       1.0  0.10500806783736047  0.9550965068162682  0.6026655146277093  1.0000
  C   C44       1.0  0.13160553039768527  0.12826670016961828  0.5219142350989543  1.0000
  C   C45       1.0  0.40184851496365315  0.7035322455358183  0.7362256086216872  1.0000
  C   C46       1.0  0.8987523420155269  0.9658714723876968  0.35334752700387634  1.0000
  C   C47       1.0  0.37479331185951986  0.22142274400786013  0.4628012650289078  1.0000
  C   C48       1.0  0.4017336248288712  0.16580219519926928  0.4871132452525158  1.0000
  C   C49       1.0  0.3704724279175693  0.1289275596275061  0.5319959949833829  1.0000
  C   C50       1.0  0.307342650041221  0.14245789496332859  0.5453570403282411  1.0000
  C   C51       1.0  0.2687440709583411  0.189054299044983  0.5108482366327037  1.0000
  C   C52       1.0  0.31008298418520747  0.23647301825926798  0.4760005652766778  1.0000
  C   C53       1.0  0.28445505011007544  0.2982627126058475  0.4557391046554072  1.0000
  C   C54       1.0  0.21550840704853874  0.3050490285346612  0.46119579464453153  1.0000
  C   C55       1.0  0.16973021203101266  0.25155131545413667  0.48747778758245625  1.0000
  C   C56       1.0  0.4510416183488317  0.6485533991313234  0.7479544174312734  1.0000
  C   C57       1.0  0.1948611572222276  0.19431379537962104  0.5115534281997611  1.0000
  C   C58       1.0  0.6261417587767824  0.8502097372628725  0.5667607614314105  1.0000
  C   C59       1.0  0.6652372374205908  0.9413567232465849  0.6255651389737052  1.0000
  C   C60       1.0  0.7560743869207583  0.996350407713656  0.6664099972654112  1.0000
  C   C61       1.0  0.8054096737529903  0.9636915933266651  0.6405247041551334  1.0000
  C   C62       1.0  0.7614514615710846  0.8766612374347814  0.5634391240282851  1.0000
  C   C63       1.0  0.6728020304881142  0.814062019723636  0.5358180508005077  1.0000
  C   C64       1.0  0.6367000204259767  0.7190164245384807  0.47897626641178437  1.0000
  C   C65       1.0  0.6772882102890064  0.6914321879685302  0.43734987285120747  1.0000
  C   C66       1.0  0.7544211330065522  0.7554817312541148  0.44950347765629317  1.0000
  C   C67       1.0  0.4845905290752554  0.6688850435787754  0.6872537283594864  1.0000
  C   C68       1.0  0.7995678149550046  0.8480753478371811  0.5133663908545003  1.0000
  C   C69       1.0  0.43426294603517573  0.7239077874597014  0.6764344898880307  1.0000
  C   C70       1.0  0.5188719699565639  0.8143469925575247  0.7572915011861383  1.0000
  Br  Br1       1.0  0.9893998738065761  0.8609091531160898  0.6654709530677392  1.0000
  Br  Br2       1.0  0.7162975663598417  0.5166748761100592  0.4606057493277902  1.0000
  Br  Br3       1.0  0.6075399552260237  0.9843637603519539  0.24947588801366993  1.0000
  Br  Br4       1.0  0.7287674242414467  0.9199831814162848  0.3570731717403957  1.0000
  Br  Br5       1.0  0.5751947163943427  0.9280960802646661  0.7630293856953897  1.0000
  Br  Br6       1.0  0.6043518163578977  0.751605455919744  0.9368876758945813  1.0000
  Br  Br7       1.0  0.4073073327775276  0.9649083190422942  0.7279072138998117  1.0000
  Br  Br8       1.0  0.1931761179298803  0.1055597878721173  0.023214191919201706  1.0000
  Cl  Cl1       1.0  0.4085927381999638  0.5429081606478404  0.7415088611029218  1.0000
  Cl  Cl2       1.0  0.34644498933148077  0.2314323191224759  0.2667689398278767  1.0000
  Cl  Cl3       1.0  0.8905082518517844  0.03959106850606278  0.01925506825028831  1.0000
  Cl  Cl4       1.0  0.030499963491060114  0.021502173331718742  0.1564907449856321  1.0000
  Cl  Cl5       1.0  0.2836308951528181  0.11025212843070875  0.6142343534651643  1.0000
  Cl  Cl6       1.0  0.36584279379589885  0.7160180802272433  0.5822179462696935  1.0000
  Cl  Cl7       1.0  0.5178376095295151  0.7827870256880232  0.5303757434178421  1.0000
  Cl  Cl8       1.0  0.8041267047216393  0.10327934843099486  0.7529968395834458  1.0000
  Cl  Cl9       1.0  0.9164659397656648  0.02352728721763243  0.7106503676540044  1.0000
  Cl  Cl10      1.0  0.7839879952794817  0.7071422843667392  0.37896044504623194  1.0000
  Cl  Cl11      1.0  0.6733203501369543  0.795343531602576  0.7914081974682786  1.0000
  Cl  Cl12      1.0  0.36493652023597173  0.14436386340853596  0.006706691283198974  1.0000
  O   O1        1.0  0.48583947297415614  0.08969624444055307  0.9293231702313064  1.0000
  O   O2        1.0  0.31133554187984197  0.3942990978276199  0.3915132700974552  1.0000
  O   O3        1.0  0.5466172803598255  0.580333749360605  0.6459765468321308  1.0000
  O   O4        1.0  0.4386186509510138  0.5798173683241004  0.5413669082962327  1.0000
  O   O5        1.0  0.5957661907872378  0.618938377718557  0.5288557494708498  1.0000
  O   O6        1.0  0.48668380313043963  0.598379483928113  0.41000237847448767  1.0000
  O   O7        1.0  0.5686997066101752  0.415101242610838  0.48134323755978403  1.0000
  O   O8        1.0  0.48107329777975144  0.42888960391764647  0.3743160452678822  1.0000
  O   O9        1.0  0.9139011627111843  0.8843491626632628  0.4829810088651669  1.0000
  O   O10       1.0  0.9008217825445113  0.0011829512037024874  0.5560345944566973  1.0000
  O   O11       1.0  0.08023387013277979  0.8988448466151978  0.5254344002520313  1.0000
  O   O12       1.0  0.38307009860969965  0.9726693707820144  0.9233035305414458  1.0000
  O   O13       1.0  0.08459824975366098  0.016902439102928213  0.6238372486536932  1.0000
  O   O14       1.0  0.10183859109134367  0.043739781136523014  0.473436226351012  1.0000
  O   O15       1.0  0.10643238009281202  0.16110768682948853  0.5727294034762449  1.0000
  O   O16       1.0  0.9175726579205306  0.9013554966343024  0.33427749391954353  1.0000
  O   O17       1.0  0.9338998814733868  0.03161494953469902  0.4279956820063758  1.0000
  O   O18       1.0  0.5344828275610852  0.9448943188131552  0.915747795189681  1.0000
  O   O19       1.0  0.4270787265434989  0.8289039504599742  0.9070734808699112  1.0000
  O   O20       1.0  0.6732989318253857  0.07782897041894184  0.0936845918590591  1.0000
  O   O21       1.0  0.567440798014566  0.9540619278763103  0.07578407557743826  1.0000
  O   O22       1.0  0.5403342092429781  0.11662885057943843  0.1050398486352435  1.0000
  O   O23       1.0  0.4385339014193832  0.003600902186100426  0.10341519018777481  1.0000
  O   O24       1.0  0.42403016536988497  0.4024946360145378  0.49504237655516187  1.0000
