data_image0
_chemical_formula_structural       Al4H66C78I6N4O26
_chemical_formula_sum              "Al4 H66 C78 I6 N4 O26"
_cell_length_a       6.697837324048484
_cell_length_b       19.736159037543064
_cell_length_c       22.5538658545792
_cell_angle_alpha    89.99934180562919
_cell_angle_beta     89.99948871162313
_cell_angle_gamma    88.18862989339651

_space_group_name_H-M_alt    "P 1"
_space_group_IT_number       1

loop_
  _space_group_symop_operation_xyz
  'x, y, z'

loop_
  _atom_site_type_symbol
  _atom_site_label
  _atom_site_symmetry_multiplicity
  _atom_site_fract_x
  _atom_site_fract_y
  _atom_site_fract_z
  _atom_site_occupancy
  Al  Al1       1.0  0.9856013615319911  0.6843432068417598  0.49620419004181576  1.0000
  Al  Al2       1.0  0.0143836407403271  0.31565512459532397  0.9962027628736366  1.0000
  Al  Al3       1.0  0.4852531784468327  0.6845822351524689  0.49560139730196795  1.0000
  Al  Al4       1.0  0.5147288484431698  0.3154186687087233  0.9956013274610954  1.0000
  H   H1        1.0  0.5376428724761199  0.5152363597693252  0.055759188498278406  1.0000
  H   H2        1.0  0.462356560563812  0.4847594411831651  0.5557588680858387  1.0000
  H   H3        1.0  0.5262699383829244  0.6615171369746662  0.224818614054449  1.0000
  H   H4        1.0  0.4737080953935902  0.33848074311990917  0.7248237379279773  1.0000
  H   H5        1.0  0.4850008076612086  0.6129152649593265  0.12560133387719932  1.0000
  H   H6        1.0  0.5150040399982885  0.38708210442210583  0.6256040836256885  1.0000
  H   H7        1.0  0.8310276295676857  0.4613031405140972  0.4522871094426861  1.0000
  H   H8        1.0  0.16899597084699278  0.538711064860365  0.9522861206079298  1.0000
  H   H9        1.0  0.7841616236055915  0.3609208009100228  0.38841392910389766  1.0000
  H   H10       1.0  0.2158504154012562  0.6390903027809713  0.8884064794146127  1.0000
  H   H11       1.0  0.6358144183109148  0.6504230824253341  0.3289230749504953  1.0000
  H   H12       1.0  0.3641919033042599  0.3495858146049997  0.828929258784349  1.0000
  H   H13       1.0  0.4381444364719655  0.8102926722369829  0.34140109242849803  1.0000
  H   H14       1.0  0.5618406461428478  0.18969804441856294  0.8414052782926191  1.0000
  H   H15       1.0  0.45714554512704814  0.9064902652285269  0.2685208345067025  1.0000
  H   H16       1.0  0.5428312090013918  0.09350604660866679  0.7685229418247773  1.0000
  H   H17       1.0  0.4948757824429819  0.0158307851097916  0.11925288760687638  1.0000
  H   H18       1.0  0.505130761722306  0.9841590487825581  0.6192567020037246  1.0000
  H   H19       1.0  6.850775022799766e-06  0.8664532839398547  0.41637699583415616  1.0000
  H   H20       1.0  0.999962575481277  0.13354270194771087  0.9163814949248703  1.0000
  H   H21       1.0  0.271244687351107  0.08893613758467467  0.9914243524088348  1.0000
  H   H22       1.0  0.3044986993987777  0.04075369761726929  0.05692400535228611  1.0000
  H   H23       1.0  0.5759598453678622  0.03982927798309529  0.9471063026590371  1.0000
  H   H24       1.0  0.6395803482695117  0.9956479944033846  0.0125857499755  1.0000
  H   H25       1.0  0.3432122279461538  0.9215520890814302  0.0006080780145936  1.0000
  H   H26       1.0  0.49318738753876806  0.9186447083610714  0.9358790447140563  1.0000
  H   H27       1.0  0.2670555519321738  0.9675360687735619  0.9364359807929716  1.0000
  H   H28       1.0  0.7287404661217496  0.911057187569412  0.49142503725661163  1.0000
  H   H29       1.0  0.6955007038732292  0.9592400617570358  0.5569244721261697  1.0000
  H   H30       1.0  0.4240176432197273  0.9601657171439723  0.4471103881641838  1.0000
  H   H31       1.0  0.3604084042681351  0.004346959798148495  0.5125905675828193  1.0000
  H   H32       1.0  0.6567649193285163  0.07844618263417398  0.5006033900790285  1.0000
  H   H33       1.0  0.5067754927879095  0.08135058584525007  0.43587852522570364  1.0000
  H   H34       1.0  0.7329117857146629  0.032462718317560785  0.43643004654522605  1.0000
  H   H35       1.0  0.3253372161910946  0.029576739331687897  0.22343783892134184  1.0000
  H   H36       1.0  0.2272408420951919  0.045876405126932696  0.1514537724862919  1.0000
  H   H37       1.0  0.12243718120576122  0.9289349780941049  0.2344901843121434  1.0000
  H   H38       1.0  0.9826748592014384  0.9488738241812698  0.17050347805606236  1.0000
  H   H39       1.0  0.27349092794243296  0.9276674115442842  0.1049436880217911  1.0000
  H   H40       1.0  0.23457757643489432  0.8560506375639674  0.1501634007687116  1.0000
  H   H41       1.0  0.4321869698619666  0.9112122469328409  0.166823421718739  1.0000
  H   H42       1.0  0.6746438577315674  0.9704155533334099  0.723444010721778  1.0000
  H   H43       1.0  0.772728920355533  0.9541073151372925  0.6514607404835502  1.0000
  H   H44       1.0  0.8775420716817949  0.0710587100777218  0.7344805614483363  1.0000
  H   H45       1.0  0.017306293725660303  0.05111003580830699  0.6704945282363397  1.0000
  H   H46       1.0  0.7264846858081029  0.07231431892717667  0.6049348898437118  1.0000
  H   H47       1.0  0.7654041797965265  0.14393044053393567  0.6501502277039606  1.0000
  H   H48       1.0  0.5677972752337369  0.088773148570553  0.6668144272799594  1.0000
  H   H49       1.0  0.5166662894213943  0.2846124115312064  0.2663628616325155  1.0000
  H   H50       1.0  0.5568802670631996  0.3116848298952347  0.34049098368383574  1.0000
  H   H51       1.0  0.8758191783884186  0.24959894791228968  0.2566054850576052  1.0000
  H   H52       1.0  0.9212462031568762  0.27327516860906087  0.3305216804706674  1.0000
  H   H53       1.0  0.6802493085913569  0.18644905317522387  0.3670696064664796  1.0000
  H   H54       1.0  0.8636368256242194  0.14665542116594565  0.3206424949786495  1.0000
  H   H55       1.0  0.6215079509101002  0.16515997831341167  0.29267810977460584  1.0000
  H   H56       1.0  0.4834031150650802  0.7153951181520739  0.7663597041074084  1.0000
  H   H57       1.0  0.4431540914066971  0.6883261564535131  0.8404873188898988  1.0000
  H   H58       1.0  0.12426843219563471  0.7504110514364013  0.7565873910198277  1.0000
  H   H59       1.0  0.07878546600534972  0.726733442262663  0.8304986245445536  1.0000
  H   H60       1.0  0.31975738916050034  0.8135588372531898  0.8670618898403504  1.0000
  H   H61       1.0  0.1363981284794065  0.8533497369316475  0.8206255421732465  1.0000
  H   H62       1.0  0.3785442447655711  0.8348499228799398  0.7926740143709098  1.0000
  H   H63       1.0  0.2381287789805953  0.6500566186783202  0.4254334362477508  1.0000
  H   H64       1.0  0.7618642609502119  0.3499486290578631  0.9254359185596003  1.0000
  H   H65       1.0  0.7393435891514458  0.6631323523422378  0.5711225956866031  1.0000
  H   H66       1.0  0.2606299739143125  0.3368751736135278  0.07111924031102028  1.0000
  C   C1        1.0  0.2523910552234341  0.5968482922685324  0.5710220323120581  1.0000
  C   C2        1.0  0.7476109143033085  0.4031488036642512  0.07102427181216342  1.0000
  C   C3        1.0  0.22183427018313043  0.7813436957868587  0.560262005530305  1.0000
  C   C4        1.0  0.7781306763898004  0.21865139455086796  0.0602611591984896  1.0000
  C   C5        1.0  0.7186482236736964  0.7738199830640297  0.42392246284494217  1.0000
  C   C6        1.0  0.28133143982923775  0.2261747840839944  0.9239261238666572  1.0000
  C   C7        1.0  0.7516313443509832  0.5912063769136112  0.42581836460754374  1.0000
  C   C8        1.0  0.2483497375094572  0.40879747106097836  0.9258184861414877  1.0000
  C   C9        1.0  0.5618413040502618  0.5661548765716873  0.13990234502396956  1.0000
  C   C10       1.0  0.4381556575461546  0.43384137610647844  0.6399021607476526  1.0000
  C   C11       1.0  0.7224344396315274  0.45758290880641533  0.116983333647724  1.0000
  C   C12       1.0  0.27757065976627626  0.5424150767161463  0.616982467259284  1.0000
  C   C13       1.0  0.7943542225820794  0.468169675909678  0.40548538981070686  1.0000
  C   C14       1.0  0.205660308631245  0.5318386462087685  0.9054839315917603  1.0000
  C   C15       1.0  0.7724099509168668  0.4113831353436408  0.36906489917912216  1.0000
  C   C16       1.0  0.2276056464323517  0.5886266626108848  0.8690610342722422  1.0000
  C   C17       1.0  0.7319184417170065  0.41977079788377125  0.3088069470948298  1.0000
  C   C18       1.0  0.26811834651105226  0.5802375349317258  0.80880306158997  1.0000
  C   C19       1.0  0.730070370899135  0.48598863672431486  0.282972905058017  1.0000
  C   C20       1.0  0.26996269707724  0.5140185509480801  0.7829719031993817  1.0000
  C   C21       1.0  0.7149210495010863  0.5426479741056055  0.32232021569932096  1.0000
  C   C22       1.0  0.2850989119504916  0.45735985254891887  0.8223219658510742  1.0000
  C   C23       1.0  0.7156422234033714  0.49748892436866016  0.21966841881291543  1.0000
  C   C24       1.0  0.2843837487539247  0.5025146006986673  0.7196697128837145  1.0000
  C   C25       1.0  0.6195524317867864  0.5591945194293328  0.19989601115882746  1.0000
  C   C26       1.0  0.38045321535175  0.4408059289137611  0.6998972369766533  1.0000
  C   C27       1.0  0.5908926146896435  0.6136418411146634  0.24125719608498034  1.0000
  C   C28       1.0  0.4091073345699883  0.3863596490848806  0.7412615596032381  1.0000
  C   C29       1.0  0.649949836217232  0.607272377503186  0.29892487041338  1.0000
  C   C30       1.0  0.3500633437162649  0.39273531773679327  0.7989293233651438  1.0000
  C   C31       1.0  0.7957671034443197  0.4533383892379063  0.17490370687138324  1.0000
  C   C32       1.0  0.2042616733591487  0.5466667019564964  0.6749034320751265  1.0000
  C   C33       1.0  0.596770725922582  0.513561175686206  0.1007505198535696  1.0000
  C   C34       1.0  0.4032229039361752  0.4864351143681914  0.600748119804507  1.0000
  C   C35       1.0  0.7552541809440712  0.5328999966578463  0.3836063799925924  1.0000
  C   C36       1.0  0.24475800444577095  0.4671086345308024  0.8836090232854019  1.0000
  C   C37       1.0  0.7751948124664167  0.15624623446789337  0.09828644625266492  1.0000
  C   C38       1.0  0.2247764820306415  0.8437508282908223  0.5982879821792578  1.0000
  C   C39       1.0  0.9164779947348125  0.14216349908572565  0.14336596656404774  1.0000
  C   C40       1.0  0.08349047597112502  0.8578365538175631  0.6433681716446671  1.0000
  C   C41       1.0  0.8952924691678704  0.0876430224056719  0.18275464007260922  1.0000
  C   C42       1.0  0.1046868084150816  0.9123508315266446  0.682757123749937  1.0000
  C   C43       1.0  0.7278305993661577  0.04634708483779088  0.1765481497422172  1.0000
  C   C44       1.0  0.27214586830133675  0.9536489059697428  0.6765524380108303  1.0000
  C   C45       1.0  0.6059270277571046  0.05362573324295989  0.1265391068051187  1.0000
  C   C46       1.0  0.39405987486619415  0.9463682651302108  0.626546254525941  1.0000
  C   C47       1.0  0.6241557977026916  0.1084431896353735  0.0881919422413588  1.0000
  C   C48       1.0  0.37583372245306634  0.8915517866972633  0.5881957029914133  1.0000
  C   C49       1.0  0.5727297525066675  0.8976702226150337  0.3018014974738108  1.0000
  C   C50       1.0  0.4272370660828174  0.10232424044951215  0.8018069206012228  1.0000
  C   C51       1.0  0.5637937762536467  0.8440818983108612  0.3415617052042919  1.0000
  C   C52       1.0  0.43618532436727975  0.15590989228936536  0.8415670049374884  1.0000
  C   C53       1.0  0.7292882965594316  0.9433720274754119  0.3050164747960693  1.0000
  C   C54       1.0  0.2706754380104428  0.056623439468694386  0.8050205529423594  1.0000
  C   C55       1.0  0.719891015937826  0.8324422665714123  0.38208853747929084  1.0000
  C   C56       1.0  0.28009137276303164  0.1675509892743889  0.8820972300898049  1.0000
  C   C57       1.0  0.8790577996055691  0.8766884044198588  0.384990933787428  1.0000
  C   C58       1.0  0.1209230091125093  0.12330533692866648  0.8849982734597434  1.0000
  C   C59       1.0  0.8776674511757392  0.9337583960694644  0.34882522760085527  1.0000
  C   C60       1.0  0.12230096897221195  0.06623847880003808  0.8488326990333022  1.0000
  C   C61       1.0  0.3845944377434662  0.0641677478432143  0.0198512019741983  1.0000
  C   C62       1.0  0.5121458535202095  0.012942580680103802  0.9850024645797716  1.0000
  C   C63       1.0  0.3971778207020904  0.9520893426851342  0.9634507702825559  1.0000
  C   C64       1.0  0.6153955943997861  0.9358276051801366  0.5198521151698046  1.0000
  C   C65       1.0  0.48783799230896824  0.9870518550351475  0.48500611092266877  1.0000
  C   C66       1.0  0.60279470283335  0.04790751868441839  0.4634494526989386  1.0000
  C   C67       1.0  0.192880607994752  0.024958401043313903  0.195387411605779  1.0000
  C   C68       1.0  0.13259881691328707  0.9513002573353471  0.18993317296634873  1.0000
  C   C69       1.0  0.2772570065527731  0.9093343239462608  0.151064915867039  1.0000
  C   C70       1.0  0.8070938342651885  0.9750277389955779  0.6953909741215583  1.0000
  C   C71       1.0  0.8673757777718692  0.048689498894994195  0.6899260203701019  1.0000
  C   C72       1.0  0.7227187382012873  0.09065136554641377  0.6510550548049423  1.0000
  C   C73       1.0  0.6295231129254618  0.3038745520052259  0.297017228436836  1.0000
  C   C74       1.0  0.806262921791465  0.25372470366265526  0.30069023669233996  1.0000
  C   C75       1.0  0.7396035388881972  0.18431961675985056  0.321555391325937  1.0000
  C   C76       1.0  0.37053045255111533  0.6961337583592735  0.797012787180094  1.0000
  C   C77       1.0  0.1937860548269086  0.7462836070915982  0.8006737766172949  1.0000
  C   C78       1.0  0.26043286998186943  0.8156910877119755  0.8215447042229727  1.0000
  I   I1        1.0  0.10503728830085633  0.003937204291098299  0.35909127560884  1.0000
  I   I2        1.0  0.8949188707679526  0.9960642257341801  0.8590921787923308  1.0000
  I   I3        1.0  0.1744507381639693  0.19897993812243436  0.1561440568167001  1.0000
  I   I4        1.0  0.8255143669288998  0.8010215039425077  0.6561435720295351  1.0000
  I   I5        1.0  0.0571197178316964  0.39431109417073873  0.19452377933287582  1.0000
  I   I6        1.0  0.942945781223884  0.6057146378646293  0.6945276294114892  1.0000
  N   N1        1.0  0.69152858482677  0.9911969093106519  0.21455418457390607  1.0000
  N   N2        1.0  0.3084557339432052  0.008796984957065499  0.7145573190507905  1.0000
  N   N3        1.0  0.7450820175894607  0.00028396563082109887  0.2677854912130471  1.0000
  N   N4        1.0  0.25488878195149317  0.9997129248410342  0.7677871404328231  1.0000
  O   O1        1.0  0.38770657759361177  0.7493923517109875  0.5530720529476555  1.0000
  O   O2        1.0  0.6122630678606953  0.2505997428226577  0.053066438133797106  1.0000
  O   O3        1.0  0.08240351978894718  0.6241205743387609  0.5594781967918293  1.0000
  O   O4        1.0  0.9175942994139845  0.37588026202100616  0.059474948772468415  1.0000
  O   O5        1.0  0.918510725123504  0.60696534016936  0.44831753575932953  1.0000
  O   O6        1.0  0.0814756863153789  0.39303157254956733  0.9483080547119513  1.0000
  O   O7        1.0  0.055365319693784415  0.7643628623944989  0.5389453424166178  1.0000
  O   O8        1.0  0.9445987451238838  0.2356385945872432  0.03894654983204761  1.0000
  O   O9        1.0  0.8871583954913762  0.7458862446244864  0.436091917015368  1.0000
  O   O10       1.0  0.1128388362182093  0.2541081802042483  0.9360966211296429  1.0000
  O   O11       1.0  0.4178780685289567  0.6116457657339253  0.5468533791587477  1.0000
  O   O12       1.0  0.5821141590415451  0.38834921311841697  0.04685841741239471  1.0000
  O   O13       1.0  0.23452705423132875  0.6808736884017178  0.45900624307849813  1.0000
  O   O14       1.0  0.7654605306953499  0.31912611307063793  0.9590059248761094  1.0000
  O   O15       1.0  0.5495017461316252  0.756913044020038  0.4434728544655187  1.0000
  O   O16       1.0  0.4504982424003856  0.24308784289586066  0.9434688085465978  1.0000
  O   O17       1.0  0.5826370627134381  0.6204254318519277  0.43621532413060754  1.0000
  O   O18       1.0  0.4173556609353072  0.37957967897777667  0.9362192915137797  1.0000
  O   O19       1.0  0.7359187642657546  0.6845343511102938  0.5322972185860665  1.0000
  O   O20       1.0  0.2640634207662984  0.31546700249531767  0.03229673163958321  1.0000
  O   O21       1.0  0.5037985007758081  0.1190178189812912  0.04043615282161281  1.0000
  O   O22       1.0  0.4961998967401372  0.8809741385906663  0.5404388200444429  1.0000
  O   O23       1.0  0.0430547229970273  0.07015394302769809  0.22238984405912285  1.0000
  O   O24       1.0  0.9569293648556397  0.9298403584578875  0.7223912570637552  1.0000
  O   O25       1.0  0.6796753282110259  0.36847544550542466  0.2722587738481792  1.0000
  O   O26       1.0  0.32038942758417477  0.631529522802168  0.7722533450508777  1.0000
