data_image0
_chemical_formula_structural       Zn4H32C40N16O16
_chemical_formula_sum              "Zn4 H32 C40 N16 O16"
_cell_length_a       7.92974562
_cell_length_b       7.929756345
_cell_length_c       17.7528
_cell_angle_alpha    90.0
_cell_angle_beta     90.0
_cell_angle_gamma    90.0

_space_group_name_H-M_alt    "P 1"
_space_group_IT_number       1

loop_
  _space_group_symop_operation_xyz
  'x, y, z'

loop_
  _atom_site_type_symbol
  _atom_site_label
  _atom_site_symmetry_multiplicity
  _atom_site_fract_x
  _atom_site_fract_y
  _atom_site_fract_z
  _atom_site_occupancy
  Zn  Zn1       1.0  0.2537004459419236  0.2537013638847156  0.0  1.0000
  Zn  Zn2       1.0  0.2462991996961463  0.7537003332729739  0.25  1.0000
  Zn  Zn3       1.0  0.7537000915799865  0.2463013887219248  0.75  1.0000
  Zn  Zn4       1.0  0.7463001064087109  0.746300358110183  0.5  1.0000
  H   H1        1.0  0.5782707566853844  0.316459912615386  0.0820281871028783  1.0000
  H   H2        1.0  0.1835367828608838  0.0782697441128022  0.3320270605200335  1.0000
  H   H3        1.0  0.8164587251917439  0.9217307168093072  0.8320287503943007  1.0000
  H   H4        1.0  0.0782711110473144  0.1835415789184651  0.6679718128971217  1.0000
  H   H5        1.0  0.9217281802288113  0.8164601430764407  0.167969559731425  1.0000
  H   H6        1.0  0.4217297956652502  0.6835405483067234  0.5820293136857302  1.0000
  H   H7        1.0  0.3164628627771791  0.578273757792239  0.9179718128971218  1.0000
  H   H8        1.0  0.6835389506479501  0.4217304863482525  0.4179718128971217  1.0000
  H   H9        1.0  0.8129743763457569  0.5277829252142041  0.082292370780948  1.0000
  H   H10       1.0  0.9722102535743105  0.3129717852635991  0.3322918074895256  1.0000
  H   H11       1.0  0.0277852544783173  0.6870261535129176  0.8322929340723704  1.0000
  H   H12       1.0  0.312974730707694  0.9722165050961564  0.667707629219052  1.0000
  H   H13       1.0  0.6870245605684389  0.0277839558259458  0.1677053760533553  1.0000
  H   H14       1.0  0.1870274370793723  0.4722162746351088  0.5822940606552223  1.0000
  H   H15       1.0  0.5277874222653836  0.8129745378702395  0.9177070659276296  1.0000
  H   H16       1.0  0.4722143911597527  0.18702844519745557  0.4177070659276296  1.0000
  H   H17       1.0  0.0302746155430924  0.6460778587768843  0.989817944211616  1.0000
  H   H18       1.0  0.8539265096879589  0.5302785882760972  0.2398185075030383  1.0000
  H   H19       1.0  0.1460727815881668  0.4697206115732158  0.7398190707944678  1.0000
  H   H20       1.0  0.530275522255657  0.8539228326062798  0.7601814924969545  1.0000
  H   H21       1.0  0.4697250300949776  0.1460801504614224  0.2601814924969617  1.0000
  H   H22       1.0  0.9697234146585387  0.3539238632180215  0.48981963408589013  1.0000
  H   H23       1.0  0.6460736883007385  0.030279618887838908  0.0101814924969617  1.0000
  H   H24       1.0  0.3539281251243978  0.9697208420342707  0.5101814924969545  1.0000
  H   H25       1.0  0.2446724135899814  0.8773232993957762  0.990265197602632  1.0000
  H   H26       1.0  0.6226744509365503  0.744676096349842  0.24026576089405438  1.0000
  H   H27       1.0  0.377327362488586  0.255323103499471  0.740265197602632  1.0000
  H   H28       1.0  0.7446758424515494  0.6226761309145843  0.759734802397368  1.0000
  H   H29       1.0  0.2553284931225832  0.377324330007518  0.259734802397368  1.0000
  H   H30       1.0  0.7553230944626463  0.1226759004535367  0.4902657608940543  1.0000
  H   H31       1.0  0.8773270081266489  0.2446783880343801  0.0097342391059456  1.0000
  H   H32       1.0  0.1226735442239857  0.755320811814933  0.5097353656887904  1.0000
  C   C1        1.0  0.575116809358633  0.4264708589857662  0.0452627191203661  1.0000
  C   C2        1.0  0.0735269487749335  0.07511327890617282  0.2952632824117885  1.0000
  C   C3        1.0  0.9264748646501957  0.924885920943133  0.7952644089946403  1.0000
  C   C4        1.0  0.0751171637205701  0.0735293714752814  0.7047372808796339  1.0000
  C   C5        1.0  0.9248821275555628  0.9264710894468209  0.2047350277139373  1.0000
  C   C6        1.0  0.4248837429919945  0.5735283408635397  0.5452638457032108  1.0000
  C   C7        1.0  0.4264739579376311  0.5751160315128203  0.9547361542967892  1.0000
  C   C8        1.0  0.5735253333385018  0.4248856904820855  0.45473671758821144  1.0000
  C   C9        1.0  0.7036190399257691  0.5455413523175565  0.0457820738137116  1.0000
  C   C10       1.0  0.9544543246016488  0.20361533567397325  0.295782637105134  1.0000
  C   C11       1.0  0.0455437055999752  0.7963863863209255  0.7957843269794083  1.0000
  C   C12       1.0  0.2036168721387028  0.9544593390656075  0.704217362894866  1.0000
  C   C13       1.0  0.7963798969884266  0.0455398607837054  0.2042151097291693  1.0000
  C   C14       1.0  0.29638277349936  0.45445658645896  0.5457832003965564  1.0000
  C   C15       1.0  0.5455458733870486  0.7036168272078243  0.9542162363120212  1.0000
  C   C16       1.0  0.4544546789635859  0.2963848947870815  0.4542167996034435  1.0000
  C   C17       1.0  0.68869674535663  0.6886945528210902  1.6898742743e-06  1.0000
  C   C18       1.0  0.8113047137065692  0.1886955834328319  0.24999887341714808  1.0000
  C   C19       1.0  0.1886958386440654  0.8113023553436849  0.7499988734171481  1.0000
  C   C20       1.0  0.3113025459195029  0.3113033859554264  0.5000005632914224  1.0000
  C   C21       1.0  0.8201334962873617  0.8201374313475185  2.8164571191e-06  1.0000
  C   C22       1.0  0.6798654406268341  0.3201346787408781  0.25  1.0000
  C   C23       1.0  0.3201325895747971  0.6798632600356385  0.7499966202514514  1.0000
  C   C24       1.0  0.1798670560632658  0.1798630295745838  0.5000011265828519  1.0000
  C   C25       1.0  0.991159159024825  0.7771979026677158  0.9952644089946361  1.0000
  C   C26       1.0  0.7228050273824564  0.4911626323116209  0.24526384570321372  1.0000
  C   C27       1.0  0.2771942638936764  0.5088353064648956  0.745261592537517  1.0000
  C   C28       1.0  0.4911607744612638  0.7228027887154482  0.7547327745482377  1.0000
  C   C29       1.0  0.508838516814869  0.2771989332794575  0.2547372808796382  1.0000
  C   C30       1.0  0.0088388711768062  0.22280255825439355  0.495265535577488  1.0000
  C   C31       1.0  0.777195170606241  0.991164123845472  0.0047378441710606  1.0000
  C   C32       1.0  0.2228053817443865  0.0088338149310445  0.5047367175882087  1.0000
  C   C33       1.0  0.1107399962219731  0.9050744673290438  0.9948447568834241  1.0000
  C   C34       1.0  0.5949245065442597  0.6107438601255026  0.24484644675769118  1.0000
  C   C35       1.0  0.4050760458063749  0.3892553397238103  0.7448453201748464  1.0000
  C   C36       1.0  0.6107421640090394  0.5949249629813167  0.7551541165337312  1.0000
  C   C37       1.0  0.3892583883415952  0.405076759013582  0.255155243116576  1.0000
  C   C38       1.0  0.8892580339796581  0.094924732520262  0.4948464467576911  1.0000
  C   C39       1.0  0.9050756914444378  0.1107448907372444  0.0051535532423088  1.0000
  C   C40       1.0  0.0949248609061968  0.8892543091120686  0.5051541165337312  1.0000
  N   N1        1.0  0.5055294573245064  0.1879011075717969  0.8777511153170181  1.0000
  N   N2        1.0  0.312098283929565  0.0055298042073701  0.1277516786084476  1.0000
  N   N3        1.0  0.687901007346561  0.9944706567147392  0.6277511153170181  1.0000
  N   N4        1.0  0.0055310727609452  0.3120978618164614  0.8722488846829819  1.0000
  N   N5        1.0  0.994470740664191  0.6879013380328518  0.3722488846829819  1.0000
  N   N6        1.0  0.4944698339516194  0.8120993533503054  0.3777511153170181  1.0000
  N   N7        1.0  0.1879013617084979  0.5055287735956284  0.1222488846829819  1.0000
  N   N8        1.0  0.8120991906421295  0.494471687326481  0.6222488846829819  1.0000
  N   N9        1.0  0.4394327595088754  0.4394334262486126  0.9999994367085776  1.0000
  N   N10       1.0  0.0605643639801912  0.9394323956368709  0.2499983101257257  1.0000
  N   N11       1.0  0.9394311440724366  0.0605680652852385  0.7500005632914224  1.0000
  N   N12       1.0  0.5605677928417592  0.5605682957462932  0.5000005632914224  1.0000
  N   N13       1.0  0.0690917497552732  0.0690903952358468  0.0  1.0000
  N   N14       1.0  0.4309104180317931  0.5690906256969016  0.2500005632914224  1.0000
  N   N15       1.0  0.5690926564678378  0.4309085741524115  0.7500005632914224  1.0000
  N   N16       1.0  0.9309075415208596  0.9309075435406698  0.5  1.0000
  O   O1        1.0  0.6003105557376003  0.0986348086840252  0.8354834167004626  1.0000
  O   O2        1.0  0.4013659646247234  0.1003095133561729  0.0854834167004626  1.0000
  O   O3        1.0  0.5986358488004058  0.899689686493133  0.5854834167004626  1.0000
  O   O4        1.0  0.1003121711740391  0.4013641607042331  0.9145165832995374  1.0000
  O   O5        1.0  0.8996896422510972  0.5986350391450799  0.4145165832995374  1.0000
  O   O6        1.0  0.3996874744640309  0.9013656522380842  0.3354834167004626  1.0000
  O   O7        1.0  0.0986349420878412  0.6003097438172276  0.1645165832995374  1.0000
  O   O8        1.0  0.9013643491882917  0.3996907171048747  0.6645165832995374  1.0000
  O   O9        1.0  0.4044984736849599  0.1012010918224533  0.9178225406696399  1.0000
  O   O10       1.0  0.3987984169408989  0.904498157061596  0.1678225406696399  1.0000
  O   O11       1.0  0.6012021354097357  0.095501042787717  0.6678225406696399  1.0000
  O   O12       1.0  0.9044993803975245  0.398797877565805  0.8321774593303601  1.0000
  O   O13       1.0  0.0955024330276046  0.6012025833562973  0.3321774593303601  1.0000
  O   O14       1.0  0.5955008175911729  0.8987981080268597  0.4178225406696399  1.0000
  O   O15       1.0  0.1012024897716728  0.4044979266005413  0.0821774593303601  1.0000
  O   O16       1.0  0.8987980625789618  0.5955025343215612  0.5821774593303601  1.0000
