data_image0
_chemical_formula_structural       Cd4H42C52N10O30
_chemical_formula_sum              "Cd4 H42 C52 N10 O30"
_cell_length_a       10.14884479077059
_cell_length_b       12.719702905093774
_cell_length_c       13.464604392866843
_cell_angle_alpha    114.42226821948265
_cell_angle_beta     103.69842706896593
_cell_angle_gamma    98.85416336055663

_space_group_name_H-M_alt    "P 1"
_space_group_IT_number       1

loop_
  _space_group_symop_operation_xyz
  'x, y, z'

loop_
  _atom_site_type_symbol
  _atom_site_label
  _atom_site_symmetry_multiplicity
  _atom_site_fract_x
  _atom_site_fract_y
  _atom_site_fract_z
  _atom_site_occupancy
  Cd  Cd1       1.0  0.10798378748634715  0.8257418031147236  0.5294749501628997  1.0000
  Cd  Cd2       1.0  0.8920143539123015  0.17425676608294077  0.47052458682199466  1.0000
  Cd  Cd3       1.0  0.5935731409287399  0.665979938417266  0.1534616448954439  1.0000
  Cd  Cd4       1.0  0.4064295433972944  0.33402313135809447  0.8465389644535576  1.0000
  H   H1        1.0  0.8897452692310281  0.8242208216684547  0.2847972131358816  1.0000
  H   H2        1.0  0.11025609767079907  0.1757813504346899  0.7152035533688232  1.0000
  H   H3        1.0  0.37614959806381887  0.8993632776311244  0.5166274185619315  1.0000
  H   H4        1.0  0.623847830318276  0.10063618285763447  0.4833715866375312  1.0000
  H   H5        1.0  0.9109596413982073  0.991231581254546  0.5740212693484351  1.0000
  H   H6        1.0  0.0890408234764308  0.008767901204386398  0.42597978631054173  1.0000
  H   H7        1.0  0.3663013560926133  0.785918201060376  0.8894462012378169  1.0000
  H   H8        1.0  0.6336951840151883  0.21407855118643937  0.11055086034354385  1.0000
  H   H9        1.0  0.41262742860966745  0.05548985529963352  0.22978585459994597  1.0000
  H   H10       1.0  0.5873710104085035  0.9445096145789266  0.7702140821718328  1.0000
  H   H11       1.0  0.23241579859233502  0.10324138683514411  0.9332261328816497  1.0000
  H   H12       1.0  0.7675840710432453  0.8967562942619837  0.06677412320356534  1.0000
  H   H13       1.0  0.6065859665469304  0.2977432459473873  0.375840586064207  1.0000
  H   H14       1.0  0.3934124724712404  0.7022562239311796  0.6241593507075719  1.0000
  H   H15       1.0  0.023344509942198527  0.837096517289261  0.1588421215819267  1.0000
  H   H16       1.0  0.976656672533295  0.16290206767932602  0.8411587216050332  1.0000
  H   H17       1.0  0.23847413417553304  0.5778050869353493  0.1845514706990912  1.0000
  H   H18       1.0  0.7615280681046386  0.4221934950245583  0.8154488155452808  1.0000
  H   H19       1.0  0.6894355325560609  0.41154072882863363  0.28547988386341666  1.0000
  H   H20       1.0  0.3105657631126277  0.5884551696862985  0.7145214357926829  1.0000
  H   H21       1.0  0.1255962314904906  0.6041982911868189  0.8674787150630789  1.0000
  H   H22       1.0  0.874405130827043  0.3958038871155623  0.13252279569908149  1.0000
  H   H23       1.0  0.5398919441653476  0.5307911177410248  0.7930353257578415  1.0000
  H   H24       1.0  0.460111155557712  0.4692101600623388  0.206965415589714  1.0000
  H   H25       1.0  0.37724119511980087  0.1615331588519808  0.5796844516695712  1.0000
  H   H26       1.0  0.6227561109005036  0.8384690004889208  0.42031556557566313  1.0000
  H   H27       1.0  0.8375427658069016  0.545817268579775  0.6566272287458118  1.0000
  H   H28       1.0  0.16245739686391403  0.45418131939749873  0.3433741713837363  1.0000
  H   H29       1.0  0.4627934872372281  0.1758239652791431  0.42697664001683217  1.0000
  H   H30       1.0  0.5371991626624891  0.8241763799377041  0.5730218283951628  1.0000
  H   H31       1.0  0.6343573810722773  0.5600894599499284  0.6527278405023081  1.0000
  H   H32       1.0  0.36564441039516987  0.4399109077827319  0.34727156948604687  1.0000
  H   H33       1.0  0.017435136211602864  0.7078913088251896  0.6702435838782036  1.0000
  H   H34       1.0  0.9825650356278073  0.2921072667535967  0.3297563277364332  1.0000
  H   H35       1.0  0.8776120960621371  0.5805351084054635  0.31412793706443404  1.0000
  H   H36       1.0  0.12238993096029564  0.4194598740214063  0.6858709373472891  1.0000
  H   H37       1.0  0.79998128198217  0.911944592727693  0.2683011494962458  1.0000
  H   H38       1.0  0.2000203871234874  0.08805847385710308  0.7316992725378879  1.0000
  H   H39       1.0  0.3956390839930818  0.006768293659980898  0.6393642916665596  1.0000
  H   H40       1.0  0.6043583443890199  0.9932311668287782  0.360634713532896  1.0000
  H   H41       1.0  0.8577608171229445  0.8926093875343853  0.44372262617083885  1.0000
  H   H42       1.0  0.14223924152327067  0.107391874498056  0.5562768089746583  1.0000
  C   C1        1.0  0.32245110313910885  0.08910655859921948  0.08734485883074676  1.0000
  C   C2        1.0  0.677547940286729  0.9108947002426576  0.9126543889998827  1.0000
  C   C3        1.0  0.3520438654191267  0.8709806412228644  0.9452863021101121  1.0000
  C   C4        1.0  0.6479535629629679  0.1290188192658945  0.054712703089343485  1.0000
  C   C5        1.0  0.378366351314618  0.022000160145715597  0.13671702421540735  1.0000
  C   C6        1.0  0.621632394491691  0.9780001980152593  0.8632818238283447  1.0000
  C   C7        1.0  0.3948056380607099  0.9120352797087107  0.0650133318801239  1.0000
  C   C8        1.0  0.6051932209387942  0.08796239199861591  0.9349859926327679  1.0000
  C   C9        1.0  0.27716088907818903  0.0488638222252717  0.9685625640434946  1.0000
  C   C10       1.0  0.7228375545242898  0.9511356414540444  0.03143662847082856  1.0000
  C   C11       1.0  0.2920789685605101  0.9383106399800311  0.8967266377441373  1.0000
  C   C12       1.0  0.7079180398402655  0.06169061867996821  0.10327297971421245  1.0000
  C   C13       1.0  0.465438640804159  0.8437420000721474  0.11936677179880911  1.0000
  C   C14       1.0  0.5345597982140191  0.1562574698064196  0.8806331649729766  1.0000
  C   C15       1.0  0.12082824249505103  0.7462578676598779  0.30322644733247717  1.0000
  C   C16       1.0  0.879171929344352  0.25374070791890807  0.6967734642821595  1.0000
  C   C17       1.0  0.06722787515795403  0.7633696425334193  0.1205374005574598  1.0000
  C   C18       1.0  0.9327725897166842  0.2366298399255058  0.8794636551015099  1.0000
  C   C19       1.0  0.5705605888670177  0.36775409196672376  0.5307923872881303  1.0000
  C   C20       1.0  0.4294378547354612  0.6322453717125995  0.4692068052261931  1.0000
  C   C21       1.0  0.06952264106529074  0.7247573819450821  0.008326598801133503  1.0000
  C   C22       1.0  0.9304788344454307  0.2752421099036511  0.9916753884301667  1.0000
  C   C23       1.0  0.2692177203361084  0.4930562044302463  0.9693136710814085  1.0000
  C   C24       1.0  0.7307849639899259  0.5069468653451138  0.03068693826758564  1.0000
  C   C25       1.0  0.1887740538806071  0.6176930397822318  0.13352382706362684  1.0000
  C   C26       1.0  0.8112280306220683  0.3823082348305745  0.8664767269690684  1.0000
  C   C27       1.0  0.7595313927771983  0.47634242454706305  0.3724675760501198  1.0000
  C   C28       1.0  0.24046919445923723  0.5236543590597265  0.6275324675630856  1.0000
  C   C29       1.0  0.19052306485754397  0.5806687679191355  0.020406038964900126  1.0000
  C   C30       1.0  0.809481645324958  0.41933431443659  0.979595689271292  1.0000
  C   C31       1.0  0.12611774081137384  0.6321242145084511  0.955578600393444  1.0000
  C   C32       1.0  0.8738833284709244  0.36787705691379097  0.04442176632438321  1.0000
  C   C33       1.0  0.7411084006280149  0.46700234456463363  0.4692449735810839  1.0000
  C   C34       1.0  0.2588927772631777  0.5329962466031972  0.5307566138633318  1.0000
  C   C35       1.0  0.5258662920645563  0.45346755611299017  0.7114217795462989  1.0000
  C   C36       1.0  0.4741357924381262  0.5465337184998162  0.288578774486396  1.0000
  C   C37       1.0  0.2466340647054325  0.8939671532376182  0.7683974422248027  1.0000
  C   C38       1.0  0.7533630706414342  0.10603140037100188  0.23160041893031993  1.0000
  C   C39       1.0  0.43597047041157566  0.24827067598432956  0.5932751596082183  1.0000
  C   C40       1.0  0.5640275577938781  0.7517305796669833  0.40672390090754373  1.0000
  C   C41       1.0  0.8385729932318428  0.5512756666173714  0.5784633677551125  1.0000
  C   C42       1.0  0.16142657878420866  0.44872111379885393  0.42153648854322506  1.0000
  C   C43       1.0  0.48750645418186184  0.2559735940760817  0.5093344484542398  1.0000
  C   C44       1.0  0.5124892413790008  0.7440267607124579  0.49066458190235795  1.0000
  C   C45       1.0  0.12425988708658052  0.7069479607188285  0.1827450987432897  1.0000
  C   C46       1.0  0.8757401623910397  0.2930533137121004  0.8172558249171187  1.0000
  C   C47       1.0  0.5824171470526095  0.4691662456131524  0.6330983427765701  1.0000
  C   C48       1.0  0.41758362919446057  0.5308341189289437  0.3669008798969172  1.0000
  C   C49       1.0  0.9417378067326039  0.6419143431820801  0.5862763625841223  1.0000
  C   C50       1.0  0.05826206748727712  0.3580833317158039  0.4137231492436299  1.0000
  C   C51       1.0  0.8654771154826265  0.5703501140253665  0.38828636198309846  1.0000
  C   C52       1.0  0.1345228765147439  0.42964486821962566  0.6117128820563449  1.0000
  N   N1        1.0  0.3158281405763503  0.2083917760797505  0.16322937075525348  1.0000
  N   N2        1.0  0.6841706052299585  0.7916085820812243  0.8367694772884988  1.0000
  N   N3        1.0  0.4573303545212326  0.3448311140371628  0.6951930716240041  1.0000
  N   N4        1.0  0.5426717253971417  0.6551701667748799  0.3048082266661395  1.0000
  N   N5        1.0  0.9550985443173801  0.6538626947623456  0.49404272560767737  1.0000
  N   N6        1.0  0.0449036533784977  0.3461358933968057  0.5059583048941575  1.0000
  N   N7        1.0  0.016395165154598584  0.7883891926926268  0.945579741358017  1.0000
  N   N8        1.0  0.9836045821191846  0.21161118725664346  0.05442152677296968  1.0000
  N   N9        1.0  0.6320813089562662  0.3743197649464634  0.45224257494557196  1.0000
  N   N10       1.0  0.3679191559183721  0.6256797175124689  0.5477584807133978  1.0000
  O   O1        1.0  0.2899582329383534  0.2756901055882254  0.12044601692635842  1.0000
  O   O2        1.0  0.7100412304688036  0.7243093550824115  0.8795526186453768  1.0000
  O   O3        1.0  0.7960845571377819  0.8405041201078732  0.28180938674603356  1.0000
  O   O4        1.0  0.20391680976404564  0.1594980519952713  0.7181913797586714  1.0000
  O   O5        1.0  0.33965997073189413  0.23712650463930623  0.2674740478212739  1.0000
  O   O6        1.0  0.6603387750744075  0.7628738535216752  0.732524800222478  1.0000
  O   O7        1.0  0.3290025909217533  0.9552032863490467  0.558392132926187  1.0000
  O   O8        1.0  0.6709948374603485  0.0447961741397123  0.4416068722732687  1.0000
  O   O9        1.0  0.49894067173965334  0.8826762402970374  0.22748869387218215  1.0000
  O   O10       1.0  0.5010570496776694  0.11732412707186769  0.7725114553716138  1.0000
  O   O11       1.0  0.3755432992162612  0.4864231826806531  0.03645889376073803  1.0000
  O   O12       1.0  0.6244630351785717  0.5135816856297027  0.9635415885917167  1.0000
  O   O13       1.0  0.1785674135652329  0.7003665093985845  0.3624157154735668  1.0000
  O   O14       1.0  0.8214320360890284  0.29963296986978355  0.6375851528705424  1.0000
  O   O15       1.0  0.22844380370477071  0.4304651266200921  0.8593509552578024  1.0000
  O   O16       1.0  0.7715612132658548  0.5695388440180479  0.14064968425036284  1.0000
  O   O17       1.0  0.05860608645442511  0.8282658073788625  0.343477617799806  1.0000
  O   O18       1.0  0.941393787765456  0.17173186751902142  0.6565218940279535  1.0000
  O   O19       1.0  0.28153439419691056  0.805472787214342  0.7054075069235424  1.0000
  O   O20       1.0  0.7184627411499491  0.1945257663942712  0.2945903542315804  1.0000
  O   O21       1.0  0.16952206884182167  0.9481408949785431  0.7273210604578961  1.0000
  O   O22       1.0  0.8304766723801861  0.05185946938167518  0.2726785318433115  1.0000
  O   O23       1.0  0.9060107816045715  0.90785059429939  0.5233599257960434  1.0000
  O   O24       1.0  0.09398867263398358  0.09214887876973417  0.47664019829061016  1.0000
  O   O25       1.0  0.48866536616753115  0.7484976149764577  0.05042722726351205  1.0000
  O   O26       1.0  0.5113340972396258  0.2515018456941789  0.9495714083082231  1.0000
  O   O27       1.0  0.9944070728254815  0.7404360221098683  0.8397029689301828  1.0000
  O   O28       1.0  0.005594587111573928  0.25956705687342213  0.16029894161885488  1.0000
  O   O29       1.0  0.9980091348333674  0.8869096002756863  0.0016996240788033266  1.0000
  O   O30       1.0  0.0019872599911537137  0.1130898818194837  0.9983021708356075  1.0000
