data_image0
_chemical_formula_structural       Zn2H22C38N6O12
_chemical_formula_sum              "Zn2 H22 C38 N6 O12"
_cell_length_a       10.879608439099009
_cell_length_b       15.850735848187375
_cell_length_c       17.278473635533064
_cell_angle_alpha    85.27820812927817
_cell_angle_beta     88.50241593440884
_cell_angle_gamma    86.08839481738147

_space_group_name_H-M_alt    "P 1"
_space_group_IT_number       1

loop_
  _space_group_symop_operation_xyz
  'x, y, z'

loop_
  _atom_site_type_symbol
  _atom_site_label
  _atom_site_symmetry_multiplicity
  _atom_site_fract_x
  _atom_site_fract_y
  _atom_site_fract_z
  _atom_site_occupancy
  Zn  Zn1       1.0  0.4939974609499983  0.5875880123766422  0.5014626096281702  1.0000
  Zn  Zn2       1.0  0.5060084982349481  0.4124119045306641  0.49854094727054826  1.0000
  H   H1        1.0  0.09466766434354672  0.447902164395849  0.38128417106304363  1.0000
  H   H2        1.0  0.6489454619891647  0.4442746429106278  0.10480128742144497  1.0000
  H   H3        1.0  0.3195575685993717  0.6110477445825495  0.10727763834618288  1.0000
  H   H4        1.0  0.6804339834214658  0.38894912569139  0.8927228032239607  1.0000
  H   H5        1.0  0.6410030965497384  0.28792163430078677  0.40330445701805917  1.0000
  H   H6        1.0  0.35898195181409426  0.7120772323755059  0.5966895487591939  1.0000
  H   H7        1.0  0.049260906799268915  0.6482096220915565  0.5077101328355909  1.0000
  H   H8        1.0  0.9507464707091062  0.3517966815122619  0.4922860274042191  1.0000
  H   H9        1.0  0.2943972105602484  0.6111435549162607  0.3245708631761629  1.0000
  H   H10       1.0  0.7056028219669557  0.3888507182445408  0.6754302467788094  1.0000
  H   H11       1.0  0.611713158184564  0.7313232119403353  0.4134450466365464  1.0000
  H   H12       1.0  0.9053387493434003  0.5521047842912451  0.6187113762883028  1.0000
  H   H13       1.0  0.38828612659037276  0.26867927150386345  0.5865601404410867  1.0000
  H   H14       1.0  0.5663018478917294  0.959362291469425  0.3617231995031459  1.0000
  H   H15       1.0  0.4336963784486087  0.04064144849609621  0.6382842278727878  1.0000
  H   H16       1.0  0.6665823947287279  0.12795978016093557  0.4001535930207395  1.0000
  H   H17       1.0  0.3334036359298621  0.8720377886905338  0.599843385243254  1.0000
  H   H18       1.0  0.9154395937643471  0.5871873603060962  0.3875233463888748  1.0000
  H   H19       1.0  0.08456779220401239  0.41281894788699697  0.6124722346525927  1.0000
  H   H20       1.0  0.3428120628880151  0.5570376497745427  0.7502794236705768  1.0000
  H   H21       1.0  0.6571781892491232  0.44295289805278054  0.24972030578175003  1.0000
  H   H22       1.0  0.3510437655533067  0.555717179795124  0.8951983655358332  1.0000
  C   C1        1.0  0.5010977332969732  0.5196193891607306  0.3465694710524047  1.0000
  C   C2        1.0  0.5526880457203093  0.7647248991226049  0.4546122569356754  1.0000
  C   C3        1.0  0.45374345028785257  0.14666702444755228  0.5482809327002798  1.0000
  C   C4        1.0  0.5462522846209766  0.8533342284338941  0.45172263885139313  1.0000
  C   C5        1.0  0.5333124056931311  0.10775731016673971  0.4937727221959918  1.0000
  C   C6        1.0  0.4666786601417527  0.8922445984684374  0.5062320105214438  1.0000
  C   C7        1.0  0.604054299587702  0.15777095442435035  0.4416522128934516  1.0000
  C   C8        1.0  0.3959324602593241  0.8422284931137368  0.5583469446343159  1.0000
  C   C9        1.0  0.5902280802805747  0.24536133803397314  0.44313401368824384  1.0000
  C   C10       1.0  0.40975966030784156  0.7546374735993878  0.556864598331309  1.0000
  C   C11       1.0  0.7397834505891723  0.49358956533174597  0.4988967200998926  1.0000
  C   C12       1.0  0.49889808776504213  0.4803812476933941  0.6534318265108536  1.0000
  C   C13       1.0  0.260220960868473  0.5064179702983156  0.5011063322545154  1.0000
  C   C14       1.0  0.9544213338942384  0.5485310268273479  0.4374965040928415  1.0000
  C   C15       1.0  0.0455860436141435  0.4514752767764634  0.5624996561469614  1.0000
  C   C16       1.0  0.05083175573697221  0.47084071443614306  0.4340141838492285  1.0000
  C   C17       1.0  0.9491793185639427  0.5291655739079388  0.5659807815346979  1.0000
  C   C18       1.0  0.1239139227308925  0.5055776315556103  0.5011615191229948  1.0000
  C   C19       1.0  0.8760907487396848  0.49442739407238884  0.4988382292610964  1.0000
  C   C20       1.0  0.02655865434238788  0.5824578222999364  0.5044750389128223  1.0000
  C   C21       1.0  0.9734494338810791  0.41755101273203366  0.4955209409924846  1.0000
  C   C22       1.0  0.49347117361741505  0.525833108111378  0.2595351589108005  1.0000
  C   C23       1.0  0.48207365417820824  0.5262232785077855  0.09752462770107677  1.0000
  C   C24       1.0  0.50652782430177  0.47416309725867467  0.7404629357525038  1.0000
  C   C25       1.0  0.5835771866745673  0.47946817055100865  0.21774861047252608  1.0000
  C   C26       1.0  0.416412751582996  0.5205261835829089  0.7822508621502421  1.0000
  C   C27       1.0  0.5793742738980541  0.47989748322659403  0.13765267573806736  1.0000
  C   C28       1.0  0.4206156289662032  0.5200975144703079  0.8623455956831022  1.0000
  C   C29       1.0  0.29847426994444953  0.6232047235359912  0.260307685157258  1.0000
  C   C30       1.0  0.7015237133934135  0.3767920993816746  0.7396932718076172  1.0000
  C   C31       1.0  0.6148617342303028  0.9000487856846177  0.3878135631787813  1.0000
  C   C32       1.0  0.3851398765763746  0.099958083407671  0.6121959305066653  1.0000
  C   C33       1.0  0.5179189916705269  0.4737716916818471  0.902474774772372  1.0000
  C   C34       1.0  0.39428685394887  0.5745940341915413  0.1382923123680584  1.0000
  C   C35       1.0  0.6057058626864631  0.4253996488721156  0.8617094925085808  1.0000
  C   C36       1.0  0.3986959087224875  0.574869090636831  0.21927910627269398  1.0000
  C   C37       1.0  0.6013003646855565  0.4251264894989503  0.780720216936622  1.0000
  C   C38       1.0  0.4473077584217435  0.23527572855296336  0.5453901990242471  1.0000
  N   N1        1.0  0.46519385766416826  0.5270027922260281  0.0166233527032631  1.0000
  N   N2        1.0  0.5347978766764002  0.47299218866245246  0.9833754796866429  1.0000
  N   N3        1.0  0.5130566359219414  0.28286618356054294  0.49413004305202424  1.0000
  N   N4        1.0  0.4869355575807575  0.7171338433474403  0.5058713337753602  1.0000
  N   N5        1.0  0.5465391234476868  0.019494616929961205  0.4882069874536368  1.0000
  N   N6        1.0  0.4534530631484087  0.9805047434686429  0.5117984865670377  1.0000
  O   O1        1.0  0.49527558142953154  0.5882011155555064  0.3801963641340364  1.0000
  O   O2        1.0  0.7771385867745265  0.32683675187092126  0.7734728975606655  1.0000
  O   O3        1.0  0.7138644434988847  0.873036441012452  0.361676001848842  1.0000
  O   O4        1.0  0.2861396402659651  0.12697356790545197  0.6383349880625885  1.0000
  O   O5        1.0  0.5047515302066331  0.4117885580938179  0.6198024643328421  1.0000
  O   O6        1.0  0.5131551429710016  0.44456198719563383  0.37897456126619733  1.0000
  O   O7        1.0  0.4868204873957466  0.5554267231065851  0.6210294968260897  1.0000
  O   O8        1.0  0.679999257551543  0.5657207615530736  0.4999778464486082  1.0000
  O   O9        1.0  0.3200112130744515  0.4342770885640234  0.5000425900426675  1.0000
  O   O10       1.0  0.6925255014176769  0.42211038706078335  0.49878755303997474  1.0000
  O   O11       1.0  0.3074723425934707  0.577891662378498  0.5011939479403507  1.0000
  O   O12       1.0  0.22286177180159683  0.6731651461506019  0.2265253728270409  1.0000
