data_image0
_chemical_formula_structural       Cu6H84C76N4O30
_chemical_formula_sum              "Cu6 H84 C76 N4 O30"
_cell_length_a       8.824099593425796
_cell_length_b       8.825219735154336
_cell_length_c       31.57342129369803
_cell_angle_alpha    98.67951491232246
_cell_angle_beta     94.34543239158816
_cell_angle_gamma    100.87361027226325

_space_group_name_H-M_alt    "P 1"
_space_group_IT_number       1

loop_
  _space_group_symop_operation_xyz
  'x, y, z'

loop_
  _atom_site_type_symbol
  _atom_site_label
  _atom_site_symmetry_multiplicity
  _atom_site_fract_x
  _atom_site_fract_y
  _atom_site_fract_z
  _atom_site_occupancy
  Cu  Cu1       1.0  0.32951754895226054  0.08125229673964884  0.7501462049589518  1.0000
  Cu  Cu2       1.0  0.6705274947120898  0.9187196157750822  0.2498549737487892  1.0000
  Cu  Cu3       1.0  0.34171345356435257  0.4203533651628886  0.7820691745414761  1.0000
  Cu  Cu4       1.0  0.6389751564348812  0.058450521908596724  0.7176099131089086  1.0000
  Cu  Cu5       1.0  0.6583275811718041  0.5796466813844532  0.21793816339425115  1.0000
  Cu  Cu6       1.0  0.36105982284589555  0.9415615551305552  0.28238210551702986  1.0000
  H   H1        1.0  0.09213749060823771  0.2567331727949879  0.12446678839047817  1.0000
  H   H2        1.0  0.1329130568870553  0.4678918424323299  0.3757491997591273  1.0000
  H   H3        1.0  0.9078335563853415  0.7432284642262417  0.8755353537121734  1.0000
  H   H4        1.0  0.8670723135125583  0.5321378580458713  0.6242501320788774  1.0000
  H   H5        1.0  0.03257323188255161  0.0817236100457421  0.052336226496812785  1.0000
  H   H6        1.0  0.029623407995757058  0.48010238729112603  0.4478244100540535  1.0000
  H   H7        1.0  0.9674151464324511  0.9182301573715536  0.9476654189007617  1.0000
  H   H8        1.0  0.9703629038864534  0.5199085746875196  0.5521754009522936  1.0000
  H   H9        1.0  0.518556248376683  0.14932258206639654  0.0369986913061524  1.0000
  H   H10       1.0  0.11106853945651811  0.981221375262109  0.463070150770548  1.0000
  H   H11       1.0  0.4814248485365126  0.8506768673013737  0.9629955583174448  1.0000
  H   H12       1.0  0.8889199835322259  0.01880302780495662  0.5369369850267915  1.0000
  H   H13       1.0  0.5794958449557086  0.315182625088525  0.1109039666756644  1.0000
  H   H14       1.0  0.20354018255199693  0.9686694497117615  0.38923314145345955  1.0000
  H   H15       1.0  0.4204931279962311  0.6848205213805088  0.8890912105150688  1.0000
  H   H16       1.0  0.7964379963806039  0.03135553600810659  0.6107706800917183  1.0000
  H   H17       1.0  0.20730620523183055  0.8189687683204454  0.9314055545904265  1.0000
  H   H18       1.0  0.8870926438072291  0.7762756477844166  0.568755735522103  1.0000
  H   H19       1.0  0.7926679128932934  0.1810248851762069  0.06859456019871149  1.0000
  H   H20       1.0  0.11292028134712233  0.22373834119115799  0.4312472966626969  1.0000
  H   H21       1.0  0.23584590592076896  0.8932196099508617  0.858817894008709  1.0000
  H   H22       1.0  0.034515423686101956  0.8779895271296425  0.6412481498132008  1.0000
  H   H23       1.0  0.7641530213904418  0.10676508627573612  0.1411797530487462  1.0000
  H   H24       1.0  0.9655172556550866  0.12203263340418143  0.3587524880715519  1.0000
  H   H25       1.0  0.33909639196789226  0.37999133782385996  0.9160436630760243  1.0000
  H   H26       1.0  0.4635073764205232  0.9228740092030635  0.5837642760247803  1.0000
  H   H27       1.0  0.6609121027716185  0.6200021337656949  0.08394962270121908  1.0000
  H   H28       1.0  0.5365126097178319  0.07712797150968954  0.416236088425002  1.0000
  H   H29       1.0  0.3103376433629492  0.30682984421193965  0.9889623672808339  1.0000
  H   H30       1.0  0.31686711753803815  0.820893087472406  0.5109448281757237  1.0000
  H   H31       1.0  0.6896539729659422  0.6931721426393621  0.01103070152000639  1.0000
  H   H32       1.0  0.683143080015867  0.1791142818124313  0.4890564678876144  1.0000
  H   H33       1.0  0.10945869213479403  0.1945303149041066  0.6791126162036888  1.0000
  H   H34       1.0  0.5134318052533543  0.9287342275535408  0.8202410234244082  1.0000
  H   H35       1.0  0.8905444325473654  0.8054540154258945  0.32089163968630163  1.0000
  H   H36       1.0  0.48657745662298885  0.07125017712131408  0.17975756013649397  1.0000
  H   H37       1.0  0.31012805209660843  0.2868375266994575  0.6857758637011029  1.0000
  H   H38       1.0  0.6009671627271587  0.12362208419646935  0.8148624756559852  1.0000
  H   H39       1.0  0.6898623644558556  0.7131783728963724  0.31422465741812994  1.0000
  H   H40       1.0  0.399061262109619  0.8763692430248112  0.18513783551178878  1.0000
  H   H41       1.0  0.14736669485836984  0.48587864546948384  0.67504943478  1.0000
  H   H42       1.0  0.8094837233838917  0.9693448385201789  0.8244844186445233  1.0000
  H   H43       1.0  0.8526162886122464  0.5141082659999086  0.3249606585670007  1.0000
  H   H44       1.0  0.19053379169571374  0.030623046783041726  0.1755125884989965  1.0000
  H   H45       1.0  0.03973903581938732  0.4286890098738141  0.7175143232199729  1.0000
  H   H46       1.0  0.7083977900968889  0.8211411633569907  0.7818091635841709  1.0000
  H   H47       1.0  0.9602716781346957  0.5712950651055877  0.2824916584777313  1.0000
  H   H48       1.0  0.29161625189960466  0.17885720725535492  0.21818985269405286  1.0000
  H   H49       1.0  0.17888512093524878  0.7559576534087924  0.7381510129517534  1.0000
  H   H50       1.0  0.017126384179469826  0.9407359723567481  0.7621560573703545  1.0000
  H   H51       1.0  0.8211175800474423  0.2440446677128492  0.2618544560235064  1.0000
  H   H52       1.0  0.9828867696881929  0.05925445104807647  0.23784186084508008  1.0000
  H   H53       1.0  0.30230508322325267  0.752041938063499  0.7846175955801937  1.0000
  H   H54       1.0  0.9679502781537082  0.01737042892018767  0.7155420731129636  1.0000
  H   H55       1.0  0.6976937628120654  0.2479568811104897  0.21538745189106112  1.0000
  H   H56       1.0  0.03205186671269196  0.9826240494372841  0.2844555095350074  1.0000
  H   H57       1.0  0.029975981200479427  0.7439753340449542  0.7975511843557752  1.0000
  H   H58       1.0  0.9476538876419982  0.7324623600877445  0.7025914177004181  1.0000
  H   H59       1.0  0.970035011318636  0.256019058177138  0.2024589022757866  1.0000
  H   H60       1.0  0.052346593112346726  0.267536565922839  0.2974010318139689  1.0000
  H   H61       1.0  0.9672342184086559  0.5624273166688453  0.7624709311558175  1.0000
  H   H62       1.0  0.8008259972694133  0.7040320308930533  0.7375797940325625  1.0000
  H   H63       1.0  0.0327581938992338  0.43757448484090844  0.23753125175365844  1.0000
  H   H64       1.0  0.19918700879164672  0.29595808025882053  0.26241915465960364  1.0000
  H   H65       1.0  0.45407311099407355  0.5200954168707524  0.7008827483955569  1.0000
  H   H66       1.0  0.81651482795845  0.25243578946493256  0.7986227407015034  1.0000
  H   H67       1.0  0.5459105473755841  0.47991395898179684  0.2991131527903761  1.0000
  H   H68       1.0  0.18349233652163124  0.7475548718479885  0.201379819366295  1.0000
  H   H69       1.0  0.4929507935409065  0.6916113987223299  0.7414034007454404  1.0000
  H   H70       1.0  0.9498317154210268  0.2507030732801851  0.7586825561045882  1.0000
  H   H71       1.0  0.5070381987621957  0.3084009204209011  0.2585932150215484  1.0000
  H   H72       1.0  0.050181651770174106  0.749289305856749  0.24132037803078524  1.0000
  H   H73       1.0  0.370975387362229  0.6863821879831988  0.6935390602252978  1.0000
  H   H74       1.0  0.9897935368869424  0.17671882895383811  0.8067480814976377  1.0000
  H   H75       1.0  0.6289931946553012  0.31362210395568724  0.3064616658135576  1.0000
  H   H76       1.0  0.0102209294536308  0.8232645877117549  0.19325336215688788  1.0000
  H   H77       1.0  0.6170141705907425  0.3574589738104803  0.7240576074377569  1.0000
  H   H78       1.0  0.6326835871233953  0.3942422245040901  0.775639585120288  1.0000
  H   H79       1.0  0.3829481255059548  0.6425486127171354  0.2759392235625881  1.0000
  H   H80       1.0  0.36731897628203564  0.6057790030161669  0.22436265823808543  1.0000
  H   H81       1.0  0.0044362243229442485  0.5140537479870914  0.8295184069334096  1.0000
  H   H82       1.0  0.6856230073413061  0.6737391723390759  0.6705075005491423  1.0000
  H   H83       1.0  0.9955730028124493  0.48594700531641166  0.17048886794052712  1.0000
  H   H84       1.0  0.31438606056266855  0.3262524492778809  0.3294875056680908  1.0000
  C   C1        1.0  0.37990162792246446  0.40017621222160227  0.16511703596810887  1.0000
  C   C2        1.0  0.2352121700815886  0.7150181150500998  0.3350948022084878  1.0000
  C   C3        1.0  0.6201168159221452  0.5998270761721897  0.8348948677754462  1.0000
  C   C4        1.0  0.7647622810698637  0.2849884346111011  0.6648988478565485  1.0000
  C   C5        1.0  0.33989855588892237  0.29703599436664513  0.12187376053342547  1.0000
  C   C6        1.0  0.17511308949742235  0.7181200782122303  0.3783048833611104  1.0000
  C   C7        1.0  0.6601017252697049  0.7029886607564036  0.8781345766580344  1.0000
  C   C8        1.0  0.8248939377745756  0.281899244375623  0.6216911341686212  1.0000
  C   C9        1.0  0.1855325585680134  0.232375752422378  0.10543865985047768  1.0000
  C   C10       1.0  0.12709637845455996  0.5801803339893612  0.3947444134396035  1.0000
  C   C11       1.0  0.8144610184061847  0.7676187300951796  0.8945680789748207  1.0000
  C   C12       1.0  0.872885035081403  0.4198447411246065  0.605253177808784  1.0000
  C   C13       1.0  0.151339060195582  0.1361167930487142  0.06527044764673208  1.0000
  C   C14       1.0  0.07071535700239197  0.5859629293993506  0.4348698563445551  1.0000
  C   C15       1.0  0.84864137988054  0.8638632909203351  0.9347321517910243  1.0000
  C   C16       1.0  0.9292659260505757  0.414045422693469  0.5651295568759945  1.0000
  C   C17       1.0  0.2721989748644873  0.10877190620793438  0.04117303617748289  1.0000
  C   C18       1.0  0.06679312111648268  0.7308070567107735  0.4588942701842028  1.0000
  C   C19       1.0  0.7277770652973459  0.8912123705143172  0.9588275971796774  1.0000
  C   C20       1.0  0.9332063171590335  0.2692058031962503  0.5411069789205525  1.0000
  C   C21       1.0  0.42672003927441443  0.1736901908272799  0.056569379024246295  1.0000
  C   C22       1.0  0.11620412616359486  0.8699547535537634  0.4435049208048766  1.0000
  C   C23       1.0  0.5732690617637815  0.8262943403441981  0.9434266460346662  1.0000
  C   C24       1.0  0.8837738866250221  0.13007353896014706  0.5564988161811897  1.0000
  C   C25       1.0  0.45998365111059775  0.2657712020947827  0.09730650377254338  1.0000
  C   C26       1.0  0.16785849692852392  0.8626835839117819  0.40280822740729144  1.0000
  C   C27       1.0  0.5400011906319266  0.7342369905948871  0.902691751443889  1.0000
  C   C28       1.0  0.8321322617720811  0.13733516587123515  0.5971915236577203  1.0000
  C   C29       1.0  0.2579567234711605  0.05821068192432924  0.9641213056190165  1.0000
  C   C30       1.0  0.09335084896349582  0.7937565245833297  0.5359170108449474  1.0000
  C   C31       1.0  0.7420203247977355  0.9417857644064538  0.035875902539643796  1.0000
  C   C32       1.0  0.9066569909664892  0.20624316504989776  0.4640852718272723  1.0000
  C   C33       1.0  0.23613586710249715  0.9414504852841004  0.9275570869649596  1.0000
  C   C34       1.0  0.01340815328646268  0.8090009981361065  0.5725219632228543  1.0000
  C   C35       1.0  0.763855878971043  0.05854871483573013  0.07244079370605047  1.0000
  C   C36       1.0  0.9866059654701046  0.19103102632816152  0.4274791668988199  1.0000
  C   C37       1.0  0.2512349269903708  0.9832893157106283  0.8873249311974758  1.0000
  C   C38       1.0  0.09580032258696751  0.8647088664123573  0.612697316348324  1.0000
  C   C39       1.0  0.7487591848151212  0.016694726362246042  0.11267733399412087  1.0000
  C   C40       1.0  0.9042119085046563  0.13530643132133935  0.38729792081345227  1.0000
  C   C41       1.0  0.2883719226592732  0.14167399308954032  0.8829029921420498  1.0000
  C   C42       1.0  0.25862335444207923  0.9059154180304531  0.6170423692226661  1.0000
  C   C43       1.0  0.7116164776790795  0.858317567289241  0.11710437937418308  1.0000
  C   C44       1.0  0.7413907698440882  0.09408162135569845  0.3829495701821627  1.0000
  C   C45       1.0  0.31000063738387945  0.257352802543259  0.9197273042332552  1.0000
  C   C46       1.0  0.3371625324974519  0.8903822745118363  0.5801683758430656  1.0000
  C   C47       1.0  0.6899939378372012  0.7426443858075729  0.08027694856599506  1.0000
  C   C48       1.0  0.6628494838876761  0.10960852089225157  0.4198248387795329  1.0000
  C   C49       1.0  0.29473703559769143  0.2168581216328247  0.9604078448958331  1.0000
  C   C50       1.0  0.25569657328627216  0.8342358124331355  0.5395403597308358  1.0000
  C   C51       1.0  0.7052702295094447  0.7831275894069164  0.03958875333441371  1.0000
  C   C52       1.0  0.7443003307165554  0.1657601739961691  0.460459090134563  1.0000
  C   C53       1.0  0.3051584324228215  0.18259783573667202  0.8392840787172415  1.0000
  C   C54       1.0  0.3435500000446441  0.9659404934224444  0.6606306778848392  1.0000
  C   C55       1.0  0.6948488879719007  0.8173703001306477  0.16072282200329366  1.0000
  C   C56       1.0  0.6564817898784979  0.03406764621409039  0.33936158101397496  1.0000
  C   C57       1.0  0.19979540301198268  0.28229346268667393  0.7003495891030125  1.0000
  C   C58       1.0  0.581010876475915  0.9994346604904578  0.7995364628443011  1.0000
  C   C59       1.0  0.8001992925564992  0.717717702941485  0.2996468235137826  1.0000
  C   C60       1.0  0.41899332054101984  0.0005574092374515279  0.20046313332069585  1.0000
  C   C61       1.0  0.15421503791512237  0.4406375930361577  0.7057201051973363  1.0000
  C   C62       1.0  0.7331461446948281  0.9471639618874406  0.7939180809928883  1.0000
  C   C63       1.0  0.845779453727076  0.5593548528511009  0.294283943552152  1.0000
  C   C64       1.0  0.26686606667644963  0.05283240829574958  0.20607903451379875  1.0000
  C   C65       1.0  0.20739031672794536  0.6811430947468721  0.7613888717315687  1.0000
  C   C66       1.0  0.9196392011416988  0.9455580785682969  0.7386705920128872  1.0000
  C   C67       1.0  0.7926029184672744  0.3188582924598222  0.23861532022677065  1.0000
  C   C68       1.0  0.08037440563676772  0.054432990494348084  0.26132661252107425  1.0000
  C   C69       1.0  0.06594298098334407  0.6343754109191834  0.7845657733472675  1.0000
  C   C70       1.0  0.8505398376233303  0.7807733422585486  0.7154939039775667  1.0000
  C   C71       1.0  0.9340484973053764  0.36561925454667943  0.21543766106175605  1.0000
  C   C72       1.0  0.14946216828285228  0.21921749590001835  0.2845034464342645  1.0000
  C   C73       1.0  0.40561576841424346  0.6158471763577323  0.7171330690542559  1.0000
  C   C74       1.0  0.8968210890686378  0.18776039538193587  0.7827761702495335  1.0000
  C   C75       1.0  0.5943710606064911  0.3841600010681105  0.2828647937441175  1.0000
  C   C76       1.0  0.10319191763703368  0.8122327526148183  0.21722641890420386  1.0000
  N   N1        1.0  0.2699085785107441  0.5509558245214308  0.7382327355223735  1.0000
  N   N2        1.0  0.8115805524554177  0.03082847997460887  0.7614994557802885  1.0000
  N   N3        1.0  0.7300758660714806  0.449060375122052  0.2617629446407364  1.0000
  N   N4        1.0  0.18843232450559802  0.969167454753617  0.23849832150327888  1.0000
  O   O1        1.0  0.5139180338230959  0.39731345652520395  0.18400158902363017  1.0000
  O   O2        1.0  0.21300960069567051  0.8298957431391402  0.3161553276243296  1.0000
  O   O3        1.0  0.48611473324362464  0.6026559147965783  0.8159930555748003  1.0000
  O   O4        1.0  0.7869842123637554  0.17015799782463867  0.6838555193972197  1.0000
  O   O5        1.0  0.2840042889461857  0.47908946177012984  0.17987718610149264  1.0000
  O   O6        1.0  0.2998715266426473  0.6047334936477498  0.3203746931489349  1.0000
  O   O7        1.0  0.7159466176679318  0.5209107390508619  0.8201138853119188  1.0000
  O   O8        1.0  0.7001043844191415  0.39525660665086093  0.6796247687996341  1.0000
  O   O9        1.0  0.5704969053612814  0.32225877220697907  0.7499040009412639  1.0000
  O   O10       1.0  0.4294866717324908  0.6777647265929546  0.2500993006584763  1.0000
  O   O11       1.0  0.23505496468936837  0.004587322619045212  0.002277958227558893  1.0000
  O   O12       1.0  0.0014449276612963705  0.7324455259120697  0.49778447456941405  1.0000
  O   O13       1.0  0.7649237926618683  0.9954075460815448  0.9977114356580258  1.0000
  O   O14       1.0  0.9985616105759976  0.26756695304910494  0.5022239413355862  1.0000
  O   O15       1.0  0.3526906104263147  0.32482877280212097  0.8356493647906118  1.0000
  O   O16       1.0  0.4898472062083741  0.014927432507363192  0.6641731964621795  1.0000
  O   O17       1.0  0.6473018880424563  0.6751208838372591  0.16433258652664046  1.0000
  O   O18       1.0  0.5101681233802607  0.9850897437696562  0.33583709739571777  1.0000
  O   O19       1.0  0.2706836039437945  0.06750164442273378  0.8078371677600485  1.0000
  O   O20       1.0  0.2600661440870126  0.9646824373124044  0.6921166584519225  1.0000
  O   O21       1.0  0.7293620631996518  0.9325285287168797  0.19216135906581394  1.0000
  O   O22       1.0  0.739998795765743  0.03533966212306424  0.3078833288131476  1.0000
  O   O23       1.0  0.21310667229475655  0.24195262660125386  0.7424178066227183  1.0000
  O   O24       1.0  0.49935461618172644  0.9746568120466177  0.757417740932439  1.0000
  O   O25       1.0  0.786890102332592  0.7580559014358386  0.2575735144513445  1.0000
  O   O26       1.0  0.5006453388631372  0.025342508431286628  0.24258487688552313  1.0000
  O   O27       1.0  0.10271651194174304  0.5534545790629082  0.8187816116630413  1.0000
  O   O28       1.0  0.7354882279250249  0.7828428873462131  0.6812150756404876  1.0000
  O   O29       1.0  0.8972825261321162  0.4465279126343304  0.18121609176716186  1.0000
  O   O30       1.0  0.26449608644963263  0.21714987124468615  0.3187893838775365  1.0000
