data_image0
_chemical_formula_structural       Ag2H8C10N8
_chemical_formula_sum              "Ag2 H8 C10 N8"
_cell_length_a       4.905018886884248
_cell_length_b       5.205796832655811
_cell_length_c       11.913255367361424
_cell_angle_alpha    86.20650817454329
_cell_angle_beta     79.56899459191658
_cell_angle_gamma    76.42753477184007

_space_group_name_H-M_alt    "P 1"
_space_group_IT_number       1

loop_
  _space_group_symop_operation_xyz
  'x, y, z'

loop_
  _atom_site_type_symbol
  _atom_site_label
  _atom_site_symmetry_multiplicity
  _atom_site_fract_x
  _atom_site_fract_y
  _atom_site_fract_z
  _atom_site_occupancy
  Ag  Ag1       1.0  0.6818075312634521  0.15912387027228184  0.4211147857266155  1.0000
  Ag  Ag2       1.0  0.31817575752227606  0.8408887092749849  0.5788879449650253  1.0000
  H   H1        1.0  0.29942188650192497  0.5777989478755784  0.059331014827833393  1.0000
  H   H2        1.0  0.7005835367336388  0.4221806163061002  0.9406735379880685  1.0000
  H   H3        1.0  0.5185938323229138  0.17057646448451175  0.1122415975339877  1.0000
  H   H4        1.0  0.4814148698859952  0.8294272592598514  0.8877620330243728  1.0000
  H   H5        1.0  0.5770526374316062  0.8162275373384347  0.24112133777892808  1.0000
  H   H6        1.0  0.42291834928787597  0.18378447762421496  0.7588848313289064  1.0000
  H   H7        1.0  0.7496817012636611  0.5156698382687778  0.17093720483230607  1.0000
  H   H8        1.0  0.2503208513916988  0.48436158774889987  0.8290795271033103  1.0000
  C   C1        1.0  0.8975775330626946  0.8573026156214778  0.09690398729827618  1.0000
  C   C2        1.0  0.1024434540006567  0.1427156569623946  0.9031050452408138  1.0000
  C   C3        1.0  0.16788900527114234  0.763343185856293  0.033046370117119694  1.0000
  C   C4        1.0  0.8320957063799809  0.23665744916865344  0.9669582715949545  1.0000
  C   C5        1.0  0.7301981333558273  0.09617741556326818  0.062942555228112  1.0000
  C   C6        1.0  0.2697836099280976  0.9037910858556796  0.9370564955203307  1.0000
  C   C7        1.0  0.7835587644860382  0.7009854800837657  0.19922956928579788  1.0000
  C   C8        1.0  0.21640824030799166  0.299054383698639  0.8007685526226851  1.0000
  C   C9        1.0  0.9789082766883507  0.6326395785885807  0.28434023221701926  1.0000
  C   C10       1.0  0.021107387215323608  0.36731246723310557  0.7156517527161482  1.0000
  N   N1        1.0  0.18664981668769806  0.4123259790275424  0.2851223939925092  1.0000
  N   N2        1.0  0.8133852614219776  0.5876589724466041  0.7148630389997804  1.0000
  N   N3        1.0  0.3148666353876094  0.4405304742597665  0.372523371436813  1.0000
  N   N4        1.0  0.6851567504660137  0.5594939272520417  0.6274777573175071  1.0000
  N   N5        1.0  0.1919816729284349  0.6669040899167837  0.4236252345907587  1.0000
  N   N6        1.0  0.8080267952677643  0.3331076421233091  0.5763714721228297  1.0000
  N   N7        1.0  0.9790726748790488  0.7909696318160897  0.369556564296211  1.0000
  N   N8        1.0  0.020938064683917915  0.20899220436052696  0.6304313095264575  1.0000
