data_image0
_chemical_formula_structural       Cd4H60C84N8O24
_chemical_formula_sum              "Cd4 H60 C84 N8 O24"
_cell_length_a       9.129119680787674
_cell_length_b       12.188088546791674
_cell_length_c       21.791154209252866
_cell_angle_alpha    105.61670298056687
_cell_angle_beta     90.01773861214005
_cell_angle_gamma    112.02561047257879

_space_group_name_H-M_alt    "P 1"
_space_group_IT_number       1

loop_
  _space_group_symop_operation_xyz
  'x, y, z'

loop_
  _atom_site_type_symbol
  _atom_site_label
  _atom_site_symmetry_multiplicity
  _atom_site_fract_x
  _atom_site_fract_y
  _atom_site_fract_z
  _atom_site_occupancy
  Cd  Cd1       1.0  0.013846494915824755  0.53183875211662  0.8349919457694737  1.0000
  Cd  Cd2       1.0  0.48208471284973325  0.4680069640139096  0.6649802987292686  1.0000
  Cd  Cd3       1.0  0.9861526011360978  0.46816172851172416  0.16500729913788348  1.0000
  Cd  Cd4       1.0  0.5179154787531599  0.5319935169241744  0.3350189462943262  1.0000
  H   H1        1.0  0.70234107746316  0.39708949639773305  0.7619724849606937  1.0000
  H   H2        1.0  0.3054928895910435  0.6026688820099295  0.7380486476541605  1.0000
  H   H3        1.0  0.29765674488224647  0.6029128173036042  0.23802656125894112  1.0000
  H   H4        1.0  0.6945049817072328  0.3973335274448644  0.2619531659901354  1.0000
  H   H5        1.0  0.8258731174151066  0.45817326279892984  0.7208535513949597  1.0000
  H   H6        1.0  0.3677318693124575  0.5415031900649724  0.7791576382120053  1.0000
  H   H7        1.0  0.17412498955184216  0.541831809110832  0.2791454276442876  1.0000
  H   H8        1.0  0.6322672512159072  0.45849733844009694  0.22084299040768937  1.0000
  H   H9        1.0  0.8852000554355114  0.7507248891824858  0.565303035678255  1.0000
  H   H10       1.0  0.1342150520392948  0.24923609947067865  0.9347627850139586  1.0000
  H   H11       1.0  0.11480059078567706  0.24927650062237922  0.43469587949898864  1.0000
  H   H12       1.0  0.8657898961359363  0.7507673164627917  0.06524146690605895  1.0000
  H   H13       1.0  0.38602861671787975  0.9178015273112761  0.6304303241542468  1.0000
  H   H14       1.0  0.4675711207246349  0.08213806970214678  0.8694769485434929  1.0000
  H   H15       1.0  0.6139750087979509  0.0822036259417374  0.3695709616533874  1.0000
  H   H16       1.0  0.53242789333774  0.917857867211758  0.1305239458280808  1.0000
  H   H17       1.0  0.3327447374014838  0.8262187447811088  0.7218461944821397  1.0000
  H   H18       1.0  0.505221685029035  0.1734279099678702  0.7779647388466767  1.0000
  H   H19       1.0  0.6672513892543462  0.173784556962076  0.2781548278458884  1.0000
  H   H20       1.0  0.4947812094057654  0.8265735921688419  0.22203740522513724  1.0000
  H   H21       1.0  0.08477765491732471  0.054855443916913806  0.6169840814224654  1.0000
  H   H22       1.0  0.029794059018918493  0.9451289962016035  0.8830258632808917  1.0000
  H   H23       1.0  0.9152286145789927  0.9451440502182749  0.38301318795768663  1.0000
  H   H24       1.0  0.9701979515958141  0.05486607786380661  0.11697674395193046  1.0000
  H   H25       1.0  0.0641102477767176  0.8378646401106877  0.42240971174017955  1.0000
  H   H26       1.0  0.226429241981748  0.16216867379971941  0.07760364439517527  1.0000
  H   H27       1.0  0.9358941542935423  0.16213112280391334  0.577586109600702  1.0000
  H   H28       1.0  0.7735663480662395  0.837829175362245  0.9223993572434137  1.0000
  H   H29       1.0  0.884128771090914  0.4247704731433046  0.9490586202445496  1.0000
  H   H30       1.0  0.45957043642723516  0.575087384375543  0.5507830734163048  1.0000
  H   H31       1.0  0.11586848201139323  0.5752263241411769  0.05094056033587439  1.0000
  H   H32       1.0  0.5404286351482596  0.4249130483760695  0.44921478777872875  1.0000
  H   H33       1.0  0.6733757874245255  0.40720617852623053  0.022037210493124265  1.0000
  H   H34       1.0  0.26620477372100027  0.5926418534190178  0.477837953782341  1.0000
  H   H35       1.0  0.32662294415747073  0.5927979529086684  0.9779611760338154  1.0000
  H   H36       1.0  0.7337955470845757  0.407356698382877  0.5221587223880845  1.0000
  H   H37       1.0  0.4954350620041551  0.6011356039519882  0.9205364486449239  1.0000
  H   H38       1.0  0.8944923091242457  0.39929832609853133  0.5796255693147784  1.0000
  H   H39       1.0  0.5045635304766095  0.3988638720561113  0.07946035868413046  1.0000
  H   H40       1.0  0.10550781894787774  0.6007085957723534  0.4203736726228866  1.0000
  H   H41       1.0  0.7192677046734913  0.6154735947228575  0.8547960267137992  1.0000
  H   H42       1.0  0.10415303984006387  0.3849918038747688  0.6453129104799726  1.0000
  H   H43       1.0  0.28073354984510956  0.3845268226893239  0.14520137347626155  1.0000
  H   H44       1.0  0.895844442511844  0.6150142085098551  0.35468666107156815  1.0000
  H   H45       1.0  0.3475669661577213  0.7248877642671943  0.8351310711708418  1.0000
  H   H46       1.0  0.6224150644184974  0.2750403228791711  0.6648878041401429  1.0000
  H   H47       1.0  0.6524320805399099  0.2751082364823532  0.16487166815049645  1.0000
  H   H48       1.0  0.3775817748595783  0.7249556453330825  0.3351140124738377  1.0000
  H   H49       1.0  0.557571594280894  0.9227463581507181  0.8947548616174428  1.0000
  H   H50       1.0  0.6346593931684694  0.0773518298430318  0.6053294500207611  1.0000
  H   H51       1.0  0.4424272334671144  0.077251396187016  0.10524537294519827  1.0000
  H   H52       1.0  0.36534714423034137  0.9226460064574272  0.39467309154274227  1.0000
  H   H53       1.0  0.27941019675247236  0.9146303881496038  0.055975647113349694  1.0000
  H   H54       1.0  0.3649225702556791  0.0852478114309818  0.443881579466108  1.0000
  H   H55       1.0  0.7205906765771458  0.08536926402597798  0.9440262340600394  1.0000
  H   H56       1.0  0.6350957503012393  0.9147516861113586  0.5561156911926373  1.0000
  H   H57       1.0  0.07893837189784123  0.7192020796871573  0.9884765936047796  1.0000
  H   H58       1.0  0.35981018440163837  0.28053711509722495  0.5112982107516401  1.0000
  H   H59       1.0  0.9210594010932596  0.28079575413538294  0.011525947028836494  1.0000
  H   H60       1.0  0.6401955403280225  0.7194569104978399  0.4887005767016246  1.0000
  C   C1        1.0  0.05171772402123049  0.6825530371743015  0.7502918659423655  1.0000
  C   C2        1.0  0.36833585309125977  0.3172125876779148  0.7496529838316304  1.0000
  C   C3        1.0  0.9482793281888178  0.3174521142202665  0.24970941916784983  1.0000
  C   C4        1.0  0.63166281281881  0.6827870319603733  0.2503479746344012  1.0000
  C   C5        1.0  0.7866521120178334  0.6266482517762455  0.6509237531037754  1.0000
  C   C6        1.0  0.15946525570317496  0.37316746557132763  0.8490716211398417  1.0000
  C   C7        1.0  0.21334692050333356  0.37335866978489923  0.349075488717652  1.0000
  C   C8        1.0  0.840535480264947  0.62683409978154  0.15093236764927545  1.0000
  C   C9        1.0  0.07922185777247386  0.7370094303212511  0.6950665864283463  1.0000
  C   C10       1.0  0.3412542430243447  0.26275561189868313  0.8048580137653897  1.0000
  C   C11       1.0  0.9207758108938079  0.2629947646395507  0.30493364493212727  1.0000
  C   C12       1.0  0.6587502178973352  0.7372468313323708  0.19514472305120015  1.0000
  C   C13       1.0  0.9529517217027388  0.7153087017808062  0.6502269356247223  1.0000
  C   C14       1.0  0.23694896113080688  0.28452168393902616  0.8497420772161984  1.0000
  C   C15       1.0  0.04704794359228257  0.2846972952643867  0.3497721749218527  1.0000
  C   C16       1.0  0.7630544287163517  0.7154808068590128  0.15026204319648426  1.0000
  C   C17       1.0  0.9834572190499455  0.768714843623755  0.5999408210730975  1.0000
  C   C18       1.0  0.21427888655262708  0.2311878754011403  0.9000610130995808  1.0000
  C   C19       1.0  0.016543881789537796  0.23128745504789092  0.40005776425780226  1.0000
  C   C20       1.0  0.7857240486762364  0.7688137065301175  0.09994343715944602  1.0000
  C   C21       1.0  0.139029640830337  0.839843992755803  0.5929374551565018  1.0000
  C   C22       1.0  0.2988492501463682  0.1601819992436049  0.9070487649028676  1.0000
  C   C23       1.0  0.860972100941815  0.16015739735880172  0.40706146013698674  1.0000
  C   C24       1.0  0.7011474191349546  0.8398158183102848  0.0929533143770697  1.0000
  C   C25       1.0  0.26541606237184096  0.8614077620136837  0.6366826010868107  1.0000
  C   C26       1.0  0.4033977248989445  0.13852459974079787  0.8632559791243677  1.0000
  C   C27       1.0  0.7345813216728915  0.1385936747386936  0.3633176974540574  1.0000
  C   C28       1.0  0.59660271013  0.8614741754858246  0.136747154370255  1.0000
  C   C29       1.0  0.23445384625721732  0.8099366626491716  0.6875299328389911  1.0000
  C   C30       1.0  0.42345756349727987  0.189796708280582  0.8123567156567116  1.0000
  C   C31       1.0  0.7655433841083905  0.19006665536266354  0.3124715508427157  1.0000
  C   C32       1.0  0.576546450964919  0.8102048420426015  0.1876468122436704  1.0000
  C   C33       1.0  0.08156088572513188  0.9393033089637725  0.5214600051370366  1.0000
  C   C34       1.0  0.1422906553538823  0.06074649557996989  0.9785471530493691  1.0000
  C   C35       1.0  0.9184460247038543  0.060695276614374905  0.4785375942056972  1.0000
  C   C36       1.0  0.8577016317235857  0.939251320734961  0.021454925765624498  1.0000
  C   C37       1.0  0.04558834677788331  0.02945112860037819  0.5660239194999546  1.0000
  C   C38       1.0  0.016031810982454344  0.9705571619880687  0.9339854622510441  1.0000
  C   C39       1.0  0.9544181090328077  0.970546548110988  0.43397400968912325  1.0000
  C   C40       1.0  0.9839569048205803  0.0294378951892114  0.06601668339563818  1.0000
  C   C41       1.0  0.036182284720744945  0.9096490044668432  0.45589993912746957  1.0000
  C   C42       1.0  0.12665842765097318  0.09034331100127702  0.044091370630027896  1.0000
  C   C43       1.0  0.9638226209206878  0.09034776306800302  0.5440983197917219  1.0000
  C   C44       1.0  0.873333859426495  0.9096545053136468  0.9559107081849657  1.0000
  C   C45       1.0  0.7968767600166727  0.46496961439491696  0.9460798836523306  1.0000
  C   C46       1.0  0.3320936855244695  0.5350098279339051  0.5538218326380215  1.0000
  C   C47       1.0  0.2031217032613952  0.535031790749379  0.053919492529885774  1.0000
  C   C48       1.0  0.6679038195641381  0.4649896637233654  0.4461754358122432  1.0000
  C   C49       1.0  0.6769572306777717  0.45432157992360794  0.985878334330152  1.0000
  C   C50       1.0  0.22270372014717313  0.5456220162151484  0.5140389692843994  1.0000
  C   C51       1.0  0.32304150906303863  0.5456825674702017  0.014120513434228588  1.0000
  C   C52       1.0  0.7772928430695882  0.4543755938729247  0.48595711390878166  1.0000
  C   C53       1.0  0.5644260786441533  0.5044660986784208  0.9789920084980535  1.0000
  C   C54       1.0  0.060004823828791055  0.4955611079449015  0.5209874087000584  1.0000
  C   C55       1.0  0.43557360122875355  0.4955333616805149  0.021004337709790395  1.0000
  C   C56       1.0  0.9399962688518784  0.5044411747678339  0.4790107153934  1.0000
  C   C57       1.0  0.5797398327887605  0.5627077173292321  0.9304266922708846  1.0000
  C   C58       1.0  0.01719256584124198  0.43752586258843007  0.5696224498017342  1.0000
  C   C59       1.0  0.4202597015638361  0.4372936402480719  0.06957130031524629  1.0000
  C   C60       1.0  0.9828088586741117  0.5624727054821079  0.43037468772237725  1.0000
  C   C61       1.0  0.7042347841615423  0.5708209551158916  0.892858473775959  1.0000
  C   C62       1.0  0.13366807125785124  0.4294822508605947  0.6071797299954793  1.0000
  C   C63       1.0  0.2957647501910543  0.4291804024614124  0.10713951881017177  1.0000
  C   C64       1.0  0.8663313012568067  0.5705209720172633  0.39281898649404196  1.0000
  C   C65       1.0  0.33615684693805986  0.770709193218515  0.8841287898972253  1.0000
  C   C66       1.0  0.5652508675495653  0.22924669677991724  0.6158638103185509  1.0000
  C   C67       1.0  0.6638400004988299  0.2292867909526421  0.11587348795420377  1.0000
  C   C68       1.0  0.4347472209585986  0.7707473904826115  0.38413682127082877  1.0000
  C   C69       1.0  0.4542192297735425  0.8822208500145122  0.9182700396986686  1.0000
  C   C70       1.0  0.571859199633643  0.11781028880682243  0.5817483541447996  1.0000
  C   C71       1.0  0.5457774150313452  0.11777691966264571  0.08173065586893807  1.0000
  C   C72       1.0  0.4281464040521428  0.8821856818833426  0.41825346339907526  1.0000
  C   C73       1.0  0.43886373825892366  0.939917757709715  0.981502972239525  1.0000
  C   C74       1.0  0.4989432022520077  0.060058482438606106  0.5184650856052215  1.0000
  C   C75       1.0  0.5611316165218198  0.060081813122622  0.018496602165477296  1.0000
  C   C76       1.0  0.5010687884251938  0.939939307533834  0.48153607282714  1.0000
  C   C77       1.0  0.3016510848921357  0.8779021080056496  0.0072425829686366995  1.0000
  C   C78       1.0  0.42386171883880747  0.12200502224204261  0.4926364981288101  1.0000
  C   C79       1.0  0.6983471345584463  0.12209661872476832  0.9927591665811942  1.0000
  C   C80       1.0  0.5761519512103347  0.8779917477707286  0.5073617617202684  1.0000
  C   C81       1.0  0.1877080936441827  0.7669654234468624  0.969517007358554  1.0000
  C   C82       1.0  0.42077044453355933  0.2328558619278454  0.5303306768475194  1.0000
  C   C83       1.0  0.8122917086109138  0.23303427629571166  0.03048625741092788  1.0000
  C   C84       1.0  0.579235110199356  0.7671400130088699  0.46966837327169475  1.0000
  N   N1        1.0  0.8120008196825024  0.5235521353430812  0.900747310826304  1.0000
  N   N2        1.0  0.2887411647344962  0.4765824880327685  0.5992131391888477  1.0000
  N   N3        1.0  0.18800091393083557  0.476449238812613  0.09925114322974339  1.0000
  N   N4        1.0  0.7112577368442459  0.5234197940604872  0.40078498467213547  1.0000
  N   N5        1.0  0.20362317280026326  0.7135397549871102  0.9088831801950759  1.0000
  N   N6        1.0  0.4898958650242874  0.28630005882907034  0.5910269018587966  1.0000
  N   N7        1.0  0.7963766294548262  0.2864599447554639  0.09112008457440617  1.0000
  N   N8        1.0  0.5101012979296584  0.7136921787820684  0.4089734669483958  1.0000
  O   O1        1.0  0.9694175477898881  0.7106075915942469  0.7930279211225011  1.0000
  O   O2        1.0  0.2580249333795236  0.2892301857051294  0.7068785254370551  1.0000
  O   O3        1.0  0.030577475156171402  0.2893956938802873  0.20697263985184822  1.0000
  O   O4        1.0  0.7419652342855939  0.7107612050164249  0.2931240174688411  1.0000
  O   O5        1.0  0.11999921191818434  0.6063851655058914  0.7500715694015978  1.0000
  O   O6        1.0  0.512978969811968  0.3932806233222124  0.7498979246171442  1.0000
  O   O7        1.0  0.8800005104885215  0.3936209432516691  0.24993076980707224  1.0000
  O   O8        1.0  0.48701759340480055  0.6067169867658535  0.2500981585760441  1.0000
  O   O9        1.0  0.1741022632656595  0.8829262245964105  0.5397472987252738  1.0000
  O   O10       1.0  0.2911730262760485  0.11722561948824513  0.9602778804199159  1.0000
  O   O11       1.0  0.8259051180992428  0.11707330176634662  0.4602508932459911  1.0000
  O   O12       1.0  0.7088211591229904  0.8827694232788302  0.03972380457049944  1.0000
  O   O13       1.0  0.6697971737198072  0.6438495399420462  0.6298962756674695  1.0000
  O   O14       1.0  0.02544324913412044  0.356013115948592  0.8701282351142579  1.0000
  O   O15       1.0  0.3302015759195454  0.3561611920147527  0.37010672014796586  1.0000
  O   O16       1.0  0.974555148472028  0.643983777399086  0.12987371300705763  1.0000
  O   O17       1.0  0.768586275129067  0.5329300334106507  0.6707807658024477  1.0000
  O   O18       1.0  0.23515152089088073  0.4668077340353848  0.8291563904214382  1.0000
  O   O19       1.0  0.23141239934123797  0.467073986311881  0.32921439206239705  1.0000
  O   O20       1.0  0.7648437128459804  0.5331937818920522  0.17084621407416722  1.0000
  O   O21       1.0  0.8108292765425061  0.4060157923045439  0.750163193312879  1.0000
  O   O22       1.0  0.4050132037887622  0.5936953906028677  0.7498745903275645  1.0000
  O   O23       1.0  0.1891704050701364  0.5939902366584706  0.2498368397085783  1.0000
  O   O24       1.0  0.5949854539624937  0.4063042130765099  0.2501259069010259  1.0000
