data_image0
_chemical_formula_structural       Zn8H56C68N8O26
_chemical_formula_sum              "Zn8 H56 C68 N8 O26"
_cell_length_a       18.622432195146395
_cell_length_b       18.633693550748966
_cell_length_c       25.093274901316548
_cell_angle_alpha    111.71932721176833
_cell_angle_beta     111.7067432297206
_cell_angle_gamma    90.17538971893809

_space_group_name_H-M_alt    "P 1"
_space_group_IT_number       1

loop_
  _space_group_symop_operation_xyz
  'x, y, z'

loop_
  _atom_site_type_symbol
  _atom_site_label
  _atom_site_symmetry_multiplicity
  _atom_site_fract_x
  _atom_site_fract_y
  _atom_site_fract_z
  _atom_site_occupancy
  Zn  Zn1       1.0  0.4725684300758389  0.05911504899175669  0.9465596814569965  1.0000
  Zn  Zn2       1.0  0.8876226073797043  0.47380918656131116  0.9466678453732484  1.0000
  Zn  Zn3       1.0  0.4739960041301075  0.8874215817797406  0.9465380256219903  1.0000
  Zn  Zn4       1.0  0.05897146024273069  0.47286165739127733  0.9466287961939702  1.0000
  Zn  Zn5       1.0  0.6124102187569846  0.026552109014140488  0.053399879704244334  1.0000
  Zn  Zn6       1.0  0.026753819232695295  0.6124680563454489  0.053696022160160256  1.0000
  Zn  Zn7       1.0  0.4410022237093827  0.02684950191597579  0.05337803085704002  1.0000
  Zn  Zn8       1.0  0.026890959986495502  0.44126659738771673  0.053709205555946896  1.0000
  H   H1        1.0  0.2283904696047614  0.32154077320296165  0.9359085047450154  1.0000
  H   H2        1.0  0.6135280599280434  0.22904221710579253  0.936276610204182  1.0000
  H   H3        1.0  0.7075167950355306  0.614427110046236  0.9357962185128416  1.0000
  H   H4        1.0  0.3228350912446487  0.7072253272398326  0.9362968608289324  1.0000
  H   H5        1.0  0.22050668626824424  0.6156107645229693  0.9291797947629022  1.0000
  H   H6        1.0  0.6163235228106032  0.7091545898051235  0.9299278438110934  1.0000
  H   H7        1.0  0.7087702254299161  0.3135383576768333  0.9291858685612768  1.0000
  H   H8        1.0  0.3137256062627074  0.2209292081644917  0.9300538755452339  1.0000
  H   H9        1.0  0.1905408397446919  0.27290712437810766  0.02869622947795137  1.0000
  H   H10       1.0  0.755631692472811  0.1895362151154599  0.02676608292680535  1.0000
  H   H11       1.0  0.8381531924967619  0.7557813667768156  0.02862442961316694  1.0000
  H   H12       1.0  0.27117987195146753  0.8371975665016078  0.02676310969986416  1.0000
  H   H13       1.0  0.2068069345353152  0.7511109252234571  0.04003770070187315  1.0000
  H   H14       1.0  0.752413199239598  0.8344327414650577  0.039969887877248284  1.0000
  H   H15       1.0  0.8332824498239972  0.2888437133434891  0.040051379149879586  1.0000
  H   H16       1.0  0.287649750594241  0.20567959471383548  0.0401024288645431  1.0000
  H   H17       1.0  0.4169737744184018  0.8782329543544093  0.6363640428018301  1.0000
  H   H18       1.0  0.7370438564258137  0.23592683063820624  0.6361974596028334  1.0000
  H   H19       1.0  0.21954624592905964  0.7582129364840638  0.6363255881938061  1.0000
  H   H20       1.0  0.8991854878910389  0.40022835001189344  0.63618211575033  1.0000
  H   H21       1.0  0.21615972656934454  0.7924259505757545  0.363942413866603  1.0000
  H   H22       1.0  0.5689716019405111  0.15628369094375927  0.3636294331398773  1.0000
  H   H23       1.0  0.14793689035695928  0.5715530460355963  0.3639820850157919  1.0000
  H   H24       1.0  0.794554653877512  0.20728867445607335  0.3636268913899628  1.0000
  H   H25       1.0  0.1550650016941404  0.7343500704652328  0.24673845998839997  1.0000
  H   H26       1.0  0.5101829816355306  0.09944035168849297  0.24641231655878226  1.0000
  H   H27       1.0  0.09174688219851389  0.5123699605496979  0.24679096410326207  1.0000
  H   H28       1.0  0.7361580818724323  0.14679577976468036  0.24640156434030305  1.0000
  H   H29       1.0  0.6042378323047685  0.08911924211270868  0.8469142050342386  1.0000
  H   H30       1.0  0.6122664962621087  0.06376391590740838  0.7740067802430205  1.0000
  H   H31       1.0  0.5698382597180895  0.14689944824558407  0.8028456469515677  1.0000
  H   H32       1.0  0.464008635855322  0.0346035357404659  0.7188215881687727  1.0000
  H   H33       1.0  0.4566867127328963  0.05998824092403509  0.7916095971283003  1.0000
  H   H34       1.0  0.530199340704577  0.9517573209569857  0.8078690883975526  1.0000
  H   H35       1.0  0.5356658530886449  0.9260012398737059  0.7345522546344301  1.0000
  H   H36       1.0  0.7913669581255008  0.23913876178288246  0.85859688172107  1.0000
  H   H37       1.0  0.7508904053320649  0.15386911747133064  0.7879918441581711  1.0000
  H   H38       1.0  0.8460081582202293  0.16135883688324526  0.8442128855241793  1.0000
  H   H39       1.0  0.855966790966839  0.18742473361243836  0.7554373712851757  1.0000
  H   H40       1.0  0.8961812914462186  0.27128360382445743  0.8258692747051698  1.0000
  H   H41       1.0  0.7691124348758863  0.3239803207011604  0.7951050028587333  1.0000
  H   H42       1.0  0.7300665078273455  0.2392171059921465  0.724629101118417  1.0000
  H   H43       1.0  0.2426546307603203  0.7578506892038914  0.8468811743625153  1.0000
  H   H44       1.0  0.16169299594682937  0.7103022007156807  0.7739953393783097  1.0000
  H   H45       1.0  0.23297484139929026  0.6560223370001309  0.8028259485077529  1.0000
  H   H46       1.0  0.2547470438071429  0.6842238479324292  0.7187665387281613  1.0000
  H   H47       1.0  0.3348627011432512  0.7315845418355095  0.7915451514006551  1.0000
  H   H48       1.0  0.2776659452237524  0.8561123390049513  0.8078102752946849  1.0000
  H   H49       1.0  0.19895060138352247  0.8086124658284601  0.7344610357071631  1.0000
  H   H50       1.0  0.06708634525718789  0.6194177821119664  0.858597230469805  1.0000
  H   H51       1.0  0.0370394341476867  0.634152969245079  0.7880215626555229  1.0000
  H   H52       1.0  0.9981051897243844  0.6828555222406149  0.8442218588157717  1.0000
  H   H53       1.0  0.8993824879036437  0.5680474606482729  0.7553660465472164  1.0000
  H   H54       1.0  0.9294919593484252  0.554605654577223  0.82579969908452  1.0000
  H   H55       1.0  0.025912323861945155  0.4712070536440575  0.7951377450943867  1.0000
  H   H56       1.0  0.9945003773028988  0.4854349601625854  0.724637916540175  1.0000
  C   C1        1.0  0.5848770565962198  0.08478809228386547  0.1697239958801902  1.0000
  C   C2        1.0  0.08500924253730348  0.5850726040665177  0.1700819958680171  1.0000
  C   C3        1.0  0.21991086706213983  0.7198819612605118  0.4397258971059728  1.0000
  C   C4        1.0  0.7196629060251425  0.21967866176729692  0.43938721085061166  1.0000
  C   C5        1.0  0.2804730656100459  0.7804335967153402  0.560806459605054  1.0000
  C   C6        1.0  0.780249945631702  0.2802117076059928  0.5604866042215165  1.0000
  C   C7        1.0  0.18814289906695336  0.7313989479133624  0.33790213568757826  1.0000
  C   C8        1.0  0.6049785971523463  0.15442640341260727  0.33756576513232533  1.0000
  C   C9        1.0  0.1498656164999943  0.6065257716957645  0.3379172281669227  1.0000
  C   C10       1.0  0.7324962916687879  0.18303613217658207  0.3375711046238621  1.0000
  C   C11       1.0  0.15462013202857605  0.6990701295062178  0.272902608726909  1.0000
  C   C12       1.0  0.5724682391309628  0.12260943557909337  0.2725697461029953  1.0000
  C   C13       1.0  0.11831831096986889  0.5738254425528593  0.27290943048515703  1.0000
  C   C14       1.0  0.7000386549330173  0.14977561029842684  0.2725736211966493  1.0000
  C   C15       1.0  0.11996031485698917  0.6199797021289725  0.23996475326104164  1.0000
  C   C16       1.0  0.619785400090322  0.11968054285703289  0.23960824858737348  1.0000
  C   C17       1.0  0.18552800029747368  0.6854920300354975  0.3709572828199867  1.0000
  C   C18       1.0  0.685261858413952  0.18526127589351657  0.37062567610757224  1.0000
  C   C19       1.0  0.41505774940556256  0.91500938804689  0.8300639272122086  1.0000
  C   C20       1.0  0.9150404946729226  0.4151079193803324  0.8302307491339747  1.0000
  C   C21       1.0  0.6367334639594662  0.1348704975883095  0.9976952931487735  1.0000
  C   C22       1.0  0.8627308328943712  0.6367926800069481  0.9991351851038818  1.0000
  C   C23       1.0  0.361069997529512  0.8627719209051674  0.9977186922842307  1.0000
  C   C24       1.0  0.1363332924284606  0.36234329531239945  0.9991983095186259  1.0000
  C   C25       1.0  0.636360073597757  0.8619894354001469  0.0006099805814656316  1.0000
  C   C26       1.0  0.8620176984025248  0.36369295783622135  0.9995948052499986  1.0000
  C   C27       1.0  0.3642650202951785  0.13868018554428824  0.0007212112376677754  1.0000
  C   C28       1.0  0.13754682563553897  0.6358469835932536  0.9995308723326702  1.0000
  C   C29       1.0  0.23387760652635592  0.2890948592679904  0.9653026479970068  1.0000
  C   C30       1.0  0.6755149336839423  0.2341924133528152  0.9649655965453122  1.0000
  C   C31       1.0  0.7314140321877219  0.6762645338194841  0.9651877629076184  1.0000
  C   C32       1.0  0.2895238634240371  0.7307340120212727  0.9649770819817152  1.0000
  C   C33       1.0  0.23324960532009703  0.675727551022291  0.9639911056690453  1.0000
  C   C34       1.0  0.6766129110898047  0.7314862696546242  0.9644369062605733  1.0000
  C   C35       1.0  0.7308129304225375  0.2882279274565747  0.9639962371349144  1.0000
  C   C36       1.0  0.2879424652198422  0.23313254315479523  0.9645671754795304  1.0000
  C   C37       1.0  0.18950791924672217  0.3037552376666355  0.9990761082017773  1.0000
  C   C38       1.0  0.6949902273262439  0.18885464712173666  0.9978544723156947  1.0000
  C   C39       1.0  0.8095277736749437  0.6953321531366183  0.9989968691877708  1.0000
  C   C40       1.0  0.3029317789356583  0.8089588699883946  0.9978784234589286  1.0000
  C   C41       1.0  0.19588746442420293  0.6930367595209359  0.0030679434649840487  1.0000
  C   C42       1.0  0.694057654630619  0.8079202176660513  0.0034856537512694455  1.0000
  C   C43       1.0  0.8072379001569062  0.30997176528024534  0.003093472819834543  1.0000
  C   C44       1.0  0.30952197492779737  0.19572145888098183  0.0036203506319623  1.0000
  C   C45       1.0  0.4206549939804491  0.8982133469853365  0.7277256291303903  1.0000
  C   C46       1.0  0.8169834038422294  0.31661912425317945  0.7274796640597503  1.0000
  C   C47       1.0  0.307198497399888  0.8295528414236982  0.7277013747099659  1.0000
  C   C48       1.0  0.910462850168166  0.4108426495750094  0.7274810320176786  1.0000
  C   C49       1.0  0.38680106021995186  0.8653041951109796  0.6624280453375705  1.0000
  C   C50       1.0  0.7853684495700934  0.28487887669479756  0.6621982156498021  1.0000
  C   C51       1.0  0.2757772096802071  0.797196105575338  0.6624016626878346  1.0000
  C   C52       1.0  0.8768649180043226  0.37725813971715627  0.6621860269662961  1.0000
  C   C53       1.0  0.31481473103598745  0.8147708915101503  0.6294510463347083  1.0000
  C   C54       1.0  0.8145948018456082  0.31452207379921754  0.6291211234876287  1.0000
  C   C55       1.0  0.38002063772436395  0.8799817508522307  0.7599187909128207  1.0000
  C   C56       1.0  0.8799849940819585  0.3800203954737924  0.7600311790295963  1.0000
  C   C57       1.0  0.49922286726766885  0.9508787219235726  0.7607788917377578  1.0000
  C   C58       1.0  0.49380287339500484  0.035441465252752394  0.7660942268263613  1.0000
  C   C59       1.0  0.5743975940206668  0.08658674410340689  0.799224677818984  1.0000
  C   C60       1.0  0.7846238218495002  0.2792136382987493  0.7598219393605491  1.0000
  C   C61       1.0  0.8407374357974291  0.23249264831400035  0.7909612015863134  1.0000
  C   C62       1.0  0.80539451752896  0.19458328030941624  0.8221768910366837  1.0000
  C   C63       1.0  0.26160070687770093  0.8099255407529852  0.7607116362943602  1.0000
  C   C64       1.0  0.2722441761637882  0.7306729532664845  0.7660324365571827  1.0000
  C   C65       1.0  0.2247797571808618  0.7127037079083818  0.7991874993458694  1.0000
  C   C66       1.0  0.9751074828024215  0.48062564801523394  0.7598191017105693  1.0000
  C   C67       1.0  0.9500799199343106  0.5584794842110693  0.7909099818828623  1.0000
  C   C68       1.0  0.0166604562920227  0.6275909593056425  0.8221798800470668  1.0000
  N   N1        1.0  0.22708496650116666  0.7139100355462484  0.5310320504770943  1.0000
  N   N2        1.0  0.822193858489257  0.29550707040921503  0.5306547762318772  1.0000
  N   N3        1.0  0.3040389484174781  0.8171775283396983  0.5310036460874843  1.0000
  N   N4        1.0  0.7084436843956539  0.2351580563756243  0.5306890744346121  1.0000
  N   N5        1.0  0.1956911364333394  0.6835969039514324  0.4694363468774157  1.0000
  N   N6        1.0  0.7909751325204583  0.26543799232470633  0.46909329860156407  1.0000
  N   N7        1.0  0.2738183815119015  0.7858901368952899  0.4694099011211891  1.0000
  N   N8        1.0  0.6780724534584904  0.20368070648884637  0.4691255682094138  1.0000
  O   O1        1.0  0.49987541044319517  0.9998336036391746  0.9997010822995734  1.0000
  O   O2        1.0  0.9999965045794569  0.5000292852302903  2.5852284629480317e-05  1.0000
  O   O3        1.0  0.5102647930085098  0.06797342100384898  0.14264990202963196  1.0000
  O   O4        1.0  0.0687275766456494  0.5104811807355603  0.143041132311339  1.0000
  O   O5        1.0  0.6324387898966465  0.0746082275821536  0.14267285067799662  1.0000
  O   O6        1.0  0.0742534488312145  0.632630562335372  0.14304395734495762  1.0000
  O   O7        1.0  0.42568878230770923  0.9894488423668403  0.8569467185776818  1.0000
  O   O8        1.0  0.8680577153328599  0.4361227492331635  0.8573599887635056  1.0000
  O   O9        1.0  0.4312537928050019  0.8674074916891424  0.8569049480091807  1.0000
  O   O10       1.0  0.9891438144850326  0.42119059895897226  0.8573604101415742  1.0000
  O   O11       1.0  0.6643281167772414  0.10175952807155399  0.035884897710964474  1.0000
  O   O12       1.0  0.9344218021746046  0.664397516882147  0.03677165838961831  1.0000
  O   O13       1.0  0.3715630721993222  0.9340979628599297  0.03581233313143866  1.0000
  O   O14       1.0  0.10240396600335087  0.3724615203864657  0.036934492142286474  1.0000
  O   O15       1.0  0.6633925267856357  0.9332109074204807  0.03948623241294763  1.0000
  O   O16       1.0  0.9328431435287925  0.37615946492996233  0.039087820133509886  1.0000
  O   O17       1.0  0.3759524475270482  0.10622127676674607  0.039520944492664994  1.0000
  O   O18       1.0  0.10611140348409258  0.662875079301777  0.03895602070477368  1.0000
  O   O19       1.0  0.395271966191082  0.8348299893376206  0.9604144094961315  1.0000
  O   O20       1.0  0.1284843692175386  0.3976128180724172  0.9628209972181241  1.0000
  O   O21       1.0  0.565240480841183  0.12536852260438985  0.9603001730502216  1.0000
  O   O22       1.0  0.8341309375011293  0.5651260521310417  0.962896070602959  1.0000
  O   O23       1.0  0.39503197872365103  0.12633277170091617  0.9608947843483054  1.0000
  O   O24       1.0  0.12303031131754948  0.5657620473068403  0.9583990500816244  1.0000
  O   O25       1.0  0.5658061728990589  0.8344531055982426  0.9607495367595507  1.0000
  O   O26       1.0  0.8354156577907759  0.39261967718533697  0.9584366516569534  1.0000
