data_image0
_chemical_formula_structural       Ba2H32C28S4O26
_chemical_formula_sum              "Ba2 H32 C28 S4 O26"
_cell_length_a       7.158838760330353
_cell_length_b       11.226684295889736
_cell_length_c       12.438358024683563
_cell_angle_alpha    102.85508456072371
_cell_angle_beta     92.27197551766085
_cell_angle_gamma    106.70984900150664

_space_group_name_H-M_alt    "P 1"
_space_group_IT_number       1

loop_
  _space_group_symop_operation_xyz
  'x, y, z'

loop_
  _atom_site_type_symbol
  _atom_site_label
  _atom_site_symmetry_multiplicity
  _atom_site_fract_x
  _atom_site_fract_y
  _atom_site_fract_z
  _atom_site_occupancy
  Ba  Ba1       1.0  0.13524568952676927  0.30346800143583147  0.060066905315686404  1.0000
  Ba  Ba2       1.0  0.8647548409993105  0.6965326194505792  0.9399339184391452  1.0000
  H   H1        1.0  0.20852380117570135  0.2934007983958863  0.46394594051483307  1.0000
  H   H2        1.0  0.7914762800045666  0.7065988634048919  0.5360546811729208  1.0000
  H   H3        1.0  0.21469455432793436  0.30505107148907473  0.6684124656212874  1.0000
  H   H4        1.0  0.7853055268523335  0.6949485903117106  0.33158815606646636  1.0000
  H   H5        1.0  0.3266681372801585  0.7140243185380868  0.7353012600276899  1.0000
  H   H6        1.0  0.673330532899257  0.28597534342521413  0.2646977253593263  1.0000
  H   H7        1.0  0.307598804020941  0.7004089126462387  0.5327315552990513  1.0000
  H   H8        1.0  0.6924008138325919  0.2995897882223559  0.4672672557209837  1.0000
  H   H9        1.0  0.9200111012806217  0.19315948274730488  0.5340776964101153  1.0000
  H   H10       1.0  0.07998523818568487  0.8068411441663482  0.4659230442444198  1.0000
  H   H11       1.0  0.9338312281994092  0.1945032940961084  0.3328287401386092  1.0000
  H   H12       1.0  0.06616651527728822  0.8054973317317432  0.667172832516343  1.0000
  H   H13       1.0  0.5623231250363715  0.8015201448115902  0.24349585239890814  1.0000
  H   H14       1.0  0.4376773984992468  0.1984804751515341  0.7565041670556099  1.0000
  H   H15       1.0  0.5546297374409689  0.8004712141265596  0.4419792390117721  1.0000
  H   H16       1.0  0.44536849038309617  0.19952748967439496  0.5580203486084798  1.0000
  H   H17       1.0  0.2907964298822493  0.5880602022565213  0.2545066499287998  1.0000
  H   H18       1.0  0.7092041006438308  0.4119404186298894  0.745494173826039  1.0000
  H   H19       1.0  0.672370830538938  0.8972054528293326  0.7278828239799182  1.0000
  H   H20       1.0  0.32762834495923704  0.1027922898769162  0.2721165892733524  1.0000
  H   H21       1.0  0.8154207739041937  0.17617665050011058  0.8244212082348454  1.0000
  H   H22       1.0  0.18458115364180822  0.823823968377219  0.17557964322008954  1.0000
  H   H23       1.0  0.6736149574288818  0.17226560971629812  0.917812901598552  1.0000
  H   H24       1.0  0.32638697011712015  0.8277350091610242  0.08218794985637594  1.0000
  H   H25       1.0  0.4582341214827608  0.5975815058363522  0.12230457538128547  1.0000
  H   H26       1.0  0.5417677990727796  0.4024191121176912  0.877695471773329  1.0000
  H   H27       1.0  0.2661752600855962  0.6456803721058434  0.11339974858046992  1.0000
  H   H28       1.0  0.7338280574898661  0.35432024383911903  0.8866003262742481  1.0000
  H   H29       1.0  0.150850838944848  0.033475045132306  0.12354875591519493  1.0000
  H   H30       1.0  0.8491501829190682  0.9665236546504871  0.8764508871052501  1.0000
  H   H31       1.0  0.36714401045073697  0.08833184756480959  0.0931205249944185  1.0000
  H   H32       1.0  0.6328556143932574  0.9116668542270645  0.9068790903259373  1.0000
  C   C1        1.0  0.2521285019174186  0.49523919148764156  0.4859451486083658  1.0000
  C   C2        1.0  0.7478734186381217  0.5047614264664018  0.514054898546256  1.0000
  C   C3        1.0  0.2287316470871517  0.3841816830427831  0.5240616251623038  1.0000
  C   C4        1.0  0.7712674794285377  0.6158189389294221  0.47593836659211064  1.0000
  C   C5        1.0  0.23598262930736522  0.3908590194604358  0.6374613356582017  1.0000
  C   C6        1.0  0.7640174448824409  0.6091406414170705  0.3625384817292315  1.0000
  C   C7        1.0  0.2719393112563893  0.5098156304506885  0.7122571122118871  1.0000
  C   C8        1.0  0.7280612122792219  0.49018498951243566  0.287742907242631  1.0000
  C   C9        1.0  0.2983183816298762  0.6219853539788003  0.6755403924225547  1.0000
  C   C10       1.0  0.701682141905735  0.37801526598432383  0.32445962703196335  1.0000
  C   C11       1.0  0.2872994190077946  0.6139943846907981  0.56229976335608  1.0000
  C   C12       1.0  0.7126992581620898  0.386005278195789  0.43770002633125676  1.0000
  C   C13       1.0  0.2414968381506385  0.48615974261134914  0.3645821387063962  1.0000
  C   C14       1.0  0.7585069217801746  0.5138418314959595  0.6354173339150933  1.0000
  C   C15       1.0  0.741343280691602  0.9970507229381339  0.5004446619802039  1.0000
  C   C16       1.0  0.2586540064488219  0.0029489428808133996  0.4995559043073428  1.0000
  C   C17       1.0  0.8450620810834266  0.10782235287977929  0.4691076140630273  1.0000
  C   C18       1.0  0.15493564841234075  0.8921782711015068  0.5308923499912908  1.0000
  C   C19       1.0  0.8512311392335904  0.10881710486044227  0.3576055927135684  1.0000
  C   C20       1.0  0.14876659725264574  0.8911835200441303  0.6423951756410632  1.0000
  C   C21       1.0  0.7491467985105305  0.9978058111937641  0.27709773805729304  1.0000
  C   C22       1.0  0.2508541813613618  0.0021957687782716995  0.7229032877646233  1.0000
  C   C23       1.0  0.6421701931065655  0.8870211493608124  0.30701844794809563  1.0000
  C   C24       1.0  0.3578289334091309  0.11297947261139998  0.6929815438063187  1.0000
  C   C25       1.0  0.6387158307815357  0.8866081164114803  0.4188529546565435  1.0000
  C   C26       1.0  0.36128190570469343  0.11339250849309221  0.5811478136980881  1.0000
  C   C27       1.0  0.7464457884589565  0.0020800524309833993  0.6212873991581915  1.0000
  C   C28       1.0  0.25355429971177307  0.9979196102930813  0.37871402682986854  1.0000
  S   S1        1.0  0.2835787587332134  0.5232766059527022  0.8575673373556685  1.0000
  S   S2        1.0  0.7164227054860463  0.47672305199242976  0.14243170343155503  1.0000
  S   S3        1.0  0.7637396300887858  0.99718919153905  0.13455621769306694  1.0000
  S   S4        1.0  0.23626134279264477  0.0028123875096995  0.8654440038285358  1.0000
  O   O1        1.0  0.2843790677066735  0.5990492093799135  0.3396445415507047  1.0000
  O   O2        1.0  0.715621455828945  0.40095141058321093  0.6603554779038134  1.0000
  O   O3        1.0  0.1968620456232628  0.38198377718784826  0.294077933271744  1.0000
  O   O4        1.0  0.8031445083473941  0.6180177929012984  0.7059215947499383  1.0000
  O   O5        1.0  0.2950367831604055  0.3987447241837855  0.8750731911487648  1.0000
  O   O6        1.0  0.7049651373951347  0.6012558937702577  0.12492685600584957  1.0000
  O   O7        1.0  0.10196071681902208  0.5474596602358873  0.8914960809975554  1.0000
  O   O8        1.0  0.8980412107269798  0.45254095864144256  0.10850477045737249  1.0000
  O   O9        1.0  0.46070547227341063  0.6299101660507488  0.9066315677603711  1.0000
  O   O10       1.0  0.5392959919458561  0.3700894918943902  0.093367473026845  1.0000
  O   O11       1.0  0.6520363616727922  0.8917181136683467  0.6444870282913797  1.0000
  O   O12       1.0  0.3479600197855391  0.10827963305606401  0.3555123295616909  1.0000
  O   O13       1.0  0.83481087255624  0.10170264305893538  0.6918409500252594  1.0000
  O   O14       1.0  0.16518506654674053  0.8982941455031361  0.30815901006103985  1.0000
  O   O15       1.0  0.8267892919565936  0.13192338156598987  0.129572627156783  1.0000
  O   O16       1.0  0.17321262859894654  0.8680772363880535  0.8704274199978386  1.0000
  O   O17       1.0  0.9124303044170008  0.9317360841968566  0.09910698436267043  1.0000
  O   O18       1.0  0.08756837974333818  0.06826357961300997  0.9008936096249798  1.0000
  O   O19       1.0  0.5700554497355128  0.9237948556496958  0.07370701296595432  1.0000
  O   O20       1.0  0.42994507380010566  0.07620576431342839  0.9262930064885638  1.0000
  O   O21       1.0  0.797901548291385  0.2250573556966629  0.8987012558816048  1.0000
  O   O22       1.0  0.20210037925462385  0.7749432631806669  0.10129959557333018  1.0000
  O   O23       1.0  0.31730197480860045  0.5781995233015064  0.13426252820279663  1.0000
  O   O24       1.0  0.6826985487270106  0.42180109666162474  0.8657374912517213  1.0000
  O   O25       1.0  0.27586043883657396  0.10534332766031439  0.147169603472534  1.0000
  O   O26       1.0  0.7241401336815231  0.8946544130368536  0.8528298374808331  1.0000
