data_image0
_chemical_formula_structural       K6Cd2H36C28N6O20
_chemical_formula_sum              "K6 Cd2 H36 C28 N6 O20"
_cell_length_a       8.758410333578139
_cell_length_b       9.0602105500762
_cell_length_c       15.283811523654842
_cell_angle_alpha    97.64744828335078
_cell_angle_beta     96.22021774456037
_cell_angle_gamma    104.51861644998117

_space_group_name_H-M_alt    "P 1"
_space_group_IT_number       1

loop_
  _space_group_symop_operation_xyz
  'x, y, z'

loop_
  _atom_site_type_symbol
  _atom_site_label
  _atom_site_symmetry_multiplicity
  _atom_site_fract_x
  _atom_site_fract_y
  _atom_site_fract_z
  _atom_site_occupancy
  K   K1        1.0  0.8346323142001565  0.3300942806725971  0.5388948342307531  1.0000
  K   K2        1.0  0.16536116839480292  0.6699018566103306  0.4611054723537935  1.0000
  K   K3        1.0  0.36894012527384495  0.2891604973543309  0.5244814262780865  1.0000
  K   K4        1.0  0.6310593494988126  0.71084151906701  0.4755163971752126  1.0000
  K   K5        1.0  0.7018796422698799  0.6200374868867867  0.09847257150548931  1.0000
  K   K6        1.0  0.29811525747059153  0.3799595394521305  0.9015174170443958  1.0000
  Cd  Cd1       1.0  0.7755432826148551  0.9515911334635235  0.7418913200160164  1.0000
  Cd  Cd2       1.0  0.2244580585354683  0.04840416476320541  0.2581081260833217  1.0000
  H   H1        1.0  0.4689226883539419  0.0661027104726202  0.9186744627935685  1.0000
  H   H2        1.0  0.5310771384039654  0.9338959115590553  0.08132380495905518  1.0000
  H   H3        1.0  0.6349891024656457  0.9936519130678929  0.9473320383279573  1.0000
  H   H4        1.0  0.36501332015324556  0.006348024919972802  0.05266844990594423  1.0000
  H   H5        1.0  0.38566097302598484  0.7883336688337437  0.8795312167222423  1.0000
  H   H6        1.0  0.6143423391413801  0.21166512536147045  0.1204679415649395  1.0000
  H   H7        1.0  0.3819706899334889  0.8704780849910775  0.7807278934214567  1.0000
  H   H8        1.0  0.6180323511872244  0.1295195344173692  0.21927051247922694  1.0000
  H   H9        1.0  0.5715014806797996  0.5966448437426308  0.8853153556712103  1.0000
  H   H10       1.0  0.42849540819806015  0.40335607447086375  0.11468746114269385  1.0000
  H   H11       1.0  0.6939739600807538  0.7850514500318155  0.9235629617471093  1.0000
  H   H12       1.0  0.3060243568148238  0.21495059478132822  0.07643740667783312  1.0000
  H   H13       1.0  0.842169044209946  0.5892250625745207  0.8771718420985837  1.0000
  H   H14       1.0  0.1578324933905506  0.4107761181825325  0.12283325510108513  1.0000
  H   H15       1.0  0.7435760288443589  0.5607469391770364  0.7663265858547279  1.0000
  H   H16       1.0  0.2564270222425407  0.4392508979797611  0.23367903388785297  1.0000
  H   H17       1.0  0.5285026728731382  0.27137976551205867  0.8058268285431612  1.0000
  H   H18       1.0  0.4715000171683388  0.7286212680813549  0.19417178886200764  1.0000
  H   H19       1.0  0.4558291443239852  0.0814467314195397  0.7423521043860648  1.0000
  H   H20       1.0  0.5441700657441261  0.9185542487821651  0.2576495573073886  1.0000
  H   H21       1.0  0.8531628458272991  0.3058434343489012  0.8584997495659794  1.0000
  H   H22       1.0  0.1468336874412373  0.6941607990730319  0.14149999973336955  1.0000
  H   H23       1.0  0.8614648864571636  0.17607063103761786  0.9338289013690687  1.0000
  H   H24       1.0  0.1385369131298192  0.823931526553146  0.06617039017901763  1.0000
  H   H25       1.0  0.3458670214355166  0.5911927154349925  0.7393391615333443  1.0000
  H   H26       1.0  0.6541345898554455  0.40880373778319523  0.2606603811486822  1.0000
  H   H27       1.0  0.5226590221337589  0.5447056264315292  0.7151106849023281  1.0000
  H   H28       1.0  0.4773413476234722  0.45529536496897544  0.28488974342709383  1.0000
  H   H29       1.0  0.02632165304513023  0.6174927936546979  0.7512059175391814  1.0000
  H   H30       1.0  0.97367988817944  0.3825084662835748  0.24880180287571824  1.0000
  H   H31       1.0  0.11945641322159872  0.8149959993922096  0.7524606195479396  1.0000
  H   H32       1.0  0.8805477202398749  0.18500649732104082  0.24754669813301436  1.0000
  H   H33       1.0  0.09303573825144446  0.8083183147530519  0.9154494467133535  1.0000
  H   H34       1.0  0.906960995091332  0.1916918803804251  0.08455857690155714  1.0000
  H   H35       1.0  0.9322299460295724  0.8840447369024885  0.940812362212853  1.0000
  H   H36       1.0  0.0677626716237043  0.1159673473079081  0.059188327751201114  1.0000
  C   C1        1.0  0.554894114773589  0.009525279537292916  0.89083871786184  1.0000
  C   C2        1.0  0.44511000872169865  0.9904769994275991  0.10916138597721668  1.0000
  C   C3        1.0  0.4620678776243849  0.8534324228274243  0.8367234534810211  1.0000
  C   C4        1.0  0.537934815135138  0.14656867015190042  0.16327713133557614  1.0000
  C   C5        1.0  0.6491950389532306  0.6967413975717207  0.8635917579529819  1.0000
  C   C6        1.0  0.35080184811259585  0.30325948105117106  0.13640974725330327  1.0000
  C   C7        1.0  0.7871401842224443  0.6462796614059414  0.8277704925772513  1.0000
  C   C8        1.0  0.21285992083024746  0.35372029377493414  0.17223377399233905  1.0000
  C   C9        1.0  0.5642013518301069  0.1723837494105638  0.773215677284931  1.0000
  C   C10       1.0  0.4357990152090708  0.8276171826040297  0.22678278363306967  1.0000
  C   C11       1.0  0.6515927124462593  0.22201924643109552  0.6959479503963097  1.0000
  C   C12       1.0  0.34839817066365714  0.7779754957144219  0.30404751249172085  1.0000
  C   C13       1.0  0.7814131536760414  0.2321571918503054  0.8991599937738075  1.0000
  C   C14       1.0  0.21858721426915656  0.7678437599595894  0.10083912294799555  1.0000
  C   C15       1.0  0.7271782595528081  0.3375440104991441  0.9706021497699883  1.0000
  C   C16       1.0  0.2728178116550026  0.6624532843775413  0.029395130865374614  1.0000
  C   C17       1.0  0.46751134214606094  0.6410461743485314  0.724365246342913  1.0000
  C   C18       1.0  0.5324890230810837  0.35895471807545215  0.2756319029674757  1.0000
  C   C19       1.0  0.44965313950627467  0.6936797732838899  0.6335410503189323  1.0000
  C   C20       1.0  0.5503642162202453  0.3063298643426363  0.3664577922368864  1.0000
  C   C21       1.0  0.0028119550048302205  0.7288673420223757  0.7419767641326447  1.0000
  C   C22       1.0  0.9971907440968124  0.2711338895240871  0.25802841131061177  1.0000
  C   C23       1.0  0.9359181351191951  0.7204657990499255  0.6437370140645129  1.0000
  C   C24       1.0  0.06408526161083472  0.2795285051500755  0.35626445935072587  1.0000
  C   C25       1.0  0.008634768050058106  0.8696920980711483  0.8893217495205481  1.0000
  C   C26       1.0  0.9913623118418683  0.13031458390084075  0.11068278357083731  1.0000
  C   C27       1.0  0.09772167132840788  0.032044154459114814  0.8783921658524394  1.0000
  C   C28       1.0  0.9022788840067905  0.9679624819280546  0.12160604393161381  1.0000
  N   N1        1.0  0.655741438328981  0.11016406927758031  0.8385193519190326  1.0000
  N   N2        1.0  0.3442612517124958  0.8898369643158331  0.16147926548614325  1.0000
  N   N3        1.0  0.5621851060093234  0.7612975416255379  0.7972838625184411  1.0000
  N   N4        1.0  0.437812398652305  0.23870099862261895  0.20271490455081684  1.0000
  N   N5        1.0  0.9073188424642283  0.7782122744995448  0.8073907913458955  1.0000
  N   N6        1.0  0.09268242408961672  0.22178773147074082  0.19261355346727535  1.0000
  O   O1        1.0  0.7653274429968349  0.16517715392163274  0.6755807897894146  1.0000
  O   O2        1.0  0.23466987155673996  0.8348156423633383  0.3244169168061718  1.0000
  O   O3        1.0  0.6024871959807714  0.31744279007192944  0.6545497423517548  1.0000
  O   O4        1.0  0.39750582727151607  0.6825464680516544  0.3454500629802412  1.0000
  O   O5        1.0  0.8201823370527774  0.3841041300336769  0.04421460758207729  1.0000
  O   O6        1.0  0.17980328336275872  0.6158927671242295  0.9557839362724468  1.0000
  O   O7        1.0  0.5976855890266392  0.37421448409075  0.9516349786158786  1.0000
  O   O8        1.0  0.4023041298640777  0.6257801478794393  0.04835843861714302  1.0000
  O   O9        1.0  0.5076334484859332  0.8341603012006615  0.6269904047359136  1.0000
  O   O10       1.0  0.4923744278414048  0.1658432455333099  0.3730087188089756  1.0000
  O   O11       1.0  0.3789911202903157  0.5863899044543999  0.5683827745729391  1.0000
  O   O12       1.0  0.6210141610820515  0.4136123461186755  0.43161478429447453  1.0000
  O   O13       1.0  0.847168272385595  0.8072984790073862  0.6240209143692115  1.0000
  O   O14       1.0  0.1528291222005649  0.19268972830585798  0.3759758283353919  1.0000
  O   O15       1.0  0.979567105928254  0.6314779900928614  0.5867869837987529  1.0000
  O   O16       1.0  0.02043915589738534  0.36851876525949484  0.4132161508766573  1.0000
  O   O17       1.0  0.0495461854209225  0.09151047142516688  0.8128796506562282  1.0000
  O   O18       1.0  0.9504513911191312  0.9084833016935222  0.18711225028777542  1.0000
  O   O19       1.0  0.21431560819625867  0.10001917929552921  0.9388607256045064  1.0000
  O   O20       1.0  0.7856828106206352  0.8999930202947864  0.06113576495081222  1.0000
