data_image0
_chemical_formula_structural       Cu4H28C28I4N4O8
_chemical_formula_sum              "Cu4 H28 C28 I4 N4 O8"
_cell_length_a       4.036710364922108
_cell_length_b       9.178805465063085
_cell_length_c       24.041134631808625
_cell_angle_alpha    90.00091248096153
_cell_angle_beta     89.99880297465526
_cell_angle_gamma    96.22453420571408

_space_group_name_H-M_alt    "P 1"
_space_group_IT_number       1

loop_
  _space_group_symop_operation_xyz
  'x, y, z'

loop_
  _atom_site_type_symbol
  _atom_site_label
  _atom_site_symmetry_multiplicity
  _atom_site_fract_x
  _atom_site_fract_y
  _atom_site_fract_z
  _atom_site_occupancy
  Cu  Cu1       1.0  0.7636346289278039  0.5414795601089323  0.9682715191105228  1.0000
  Cu  Cu2       1.0  0.2363903511700301  0.9585328764609788  0.468271957386463  1.0000
  Cu  Cu3       1.0  0.23635258886370997  0.45851007593952187  0.031729489486060886  1.0000
  Cu  Cu4       1.0  0.7636563777317988  0.041489026695259716  0.5317298831069548  1.0000
  H   H1        1.0  0.35220701460123394  0.28047221615909734  0.7902798792045755  1.0000
  H   H2        1.0  0.6477481960734011  0.21953559434093253  0.290275720097405  1.0000
  H   H3        1.0  0.647781007170714  0.7195361033857212  0.20971197846447603  1.0000
  H   H4        1.0  0.3522208540742753  0.780467457150763  0.7097202971276243  1.0000
  H   H5        1.0  0.4178293827365138  0.32000257251637987  0.8930454117714245  1.0000
  H   H6        1.0  0.5821457252963853  0.1800141341487489  0.3930425002031582  1.0000
  H   H7        1.0  0.5821624357615178  0.6799859079983647  0.10694644583092128  1.0000
  H   H8        1.0  0.4178359025413699  0.8199975617988287  0.6069535170251255  1.0000
  H   H9        1.0  0.078829412398342  0.6922740366625746  0.8693298824544439  1.0000
  H   H10       1.0  0.9211554931883723  0.8077298838770375  0.369338989865845  1.0000
  H   H11       1.0  0.9211390666864432  0.307719125390399  0.13067445381672366  1.0000
  H   H12       1.0  0.07881737617042721  0.1922775199877194  0.6306690900240068  1.0000
  H   H13       1.0  0.03597782577030985  0.6719440396862097  0.767191624723189  1.0000
  H   H14       1.0  0.9639687120372428  0.8280556291852436  0.2671982036077764  1.0000
  H   H15       1.0  0.9640317403846835  0.32806181978575916  0.23281520723420351  1.0000
  H   H16       1.0  0.035952309175222324  0.17195240304056372  0.7328082125630357  1.0000
  H   H17       1.0  0.9320070811814675  0.4315891786343755  0.6069343592253273  1.0000
  H   H18       1.0  0.06803066786151392  0.06840454126302122  0.10694345467711487  1.0000
  H   H19       1.0  0.06806961356937785  0.5684334607761412  0.3930574983260583  1.0000
  H   H20       1.0  0.9319610218144306  0.9315674468921245  0.8930629612568379  1.0000
  H   H21       1.0  0.9740487587334172  0.6286138282714759  0.6014904584280456  1.0000
  H   H22       1.0  0.02598363391310702  0.8713734338187749  0.10148572710833997  1.0000
  H   H23       1.0  0.026034434000855818  0.3713977364496159  0.39851179792179886  1.0000
  H   H24       1.0  0.9739904355645094  0.1285976681898191  0.898515697409955  1.0000
  H   H25       1.0  0.5690537238592982  0.5269908540383456  0.6047698500079617  1.0000
  H   H26       1.0  0.4309891928646579  0.972999695654444  0.10477549302493826  1.0000
  H   H27       1.0  0.43104945403403155  0.4730292651772672  0.3952220074877885  1.0000
  H   H28       1.0  0.5689884634149395  0.026966964501369296  0.895229675057166  1.0000
  C   C1        1.0  0.645144748482693  0.45276045842438617  0.7087379588254805  1.0000
  C   C2        1.0  0.35482545037494617  0.0472233902471544  0.20873923079536635  1.0000
  C   C3        1.0  0.3548855831713028  0.5472484480175909  0.2912580583060488  1.0000
  C   C4        1.0  0.6451463831489048  0.9527565357119127  0.791259698031112  1.0000
  C   C5        1.0  0.6879217357220284  0.4737888863908141  0.7698344786643002  1.0000
  C   C6        1.0  0.3120432583263836  0.0262103842725168  0.26983328334654993  1.0000
  C   C7        1.0  0.312097939529039  0.5262256473381155  0.23016569804098444  1.0000
  C   C8        1.0  0.6879135516757273  0.9737851183431443  0.7301660615078871  1.0000
  C   C9        1.0  0.5145325286858123  0.3733598641364466  0.8062183804579346  1.0000
  C   C10       1.0  0.4854244978069531  0.1266440903981376  0.3062175777138377  1.0000
  C   C11       1.0  0.48546367992446443  0.6266428582435992  0.1937801324393219  1.0000
  C   C12       1.0  0.5145424208983727  0.8733600866044638  0.6937821831021649  1.0000
  C   C13       1.0  0.5498754896448476  0.39449371142394796  0.8631158610360569  1.0000
  C   C14       1.0  0.45010575046819673  0.10552296071230666  0.36311713882991364  1.0000
  C   C15       1.0  0.45010746581658634  0.6054981754628415  0.13688265185256646  1.0000
  C   C16       1.0  0.549879021399221  0.8944908964792117  0.6368859496128605  1.0000
  C   C17       1.0  0.9164062052333364  0.6035507456178592  0.8503227531175168  1.0000
  C   C18       1.0  0.08358385211100482  0.8964623358217523  0.3503279468649367  1.0000
  C   C19       1.0  0.08357495658445661  0.39644336227558347  0.14967825550353095  1.0000
  C   C20       1.0  0.9163987884296035  0.103552646842445  0.6496768054000767  1.0000
  C   C21       1.0  0.8931401289902398  0.5906264697048655  0.7928716409504158  1.0000
  C   C22       1.0  0.1068302716602574  0.9093804169474423  0.2928735006169631  1.0000
  C   C23       1.0  0.1068644993759094  0.4093794495680498  0.20713269529363734  1.0000
  C   C24       1.0  0.8931319416884663  0.0906326140743019  0.7071316676329642  1.0000
  C   C25       1.0  0.8276460173914658  0.5324141938532136  0.6190869411924637  1.0000
  C   C26       1.0  0.17238161286516632  0.9675726496368994  0.11909057794159846  1.0000
  C   C27       1.0  0.17242763770248365  0.46759858591966025  0.3809065801496842  1.0000
  C   C28       1.0  0.8276026701044047  0.03239942822732189  0.8809125103760916  1.0000
  I   I1        1.0  0.30895433285199664  0.7245339032728353  0.9884803446678415  1.0000
  I   I2        1.0  0.6910512241009242  0.7754717869957872  0.4884763658678323  1.0000
  I   I3        1.0  0.6910335603751676  0.2754579238206389  0.011521079887863597  1.0000
  I   I4        1.0  0.3089905669658394  0.22455017597669522  0.5115238108197316  1.0000
  N   N1        1.0  0.7473311896457419  0.5079274968529219  0.8853123846199008  1.0000
  N   N2        1.0  0.25266586894287707  0.9920900376337016  0.3853162937695273  1.0000
  N   N3        1.0  0.25265389721182885  0.4920632645382454  0.11468321658524155  1.0000
  N   N4        1.0  0.7473266476607208  0.007924825268048606  0.6146847148934993  1.0000
  O   O1        1.0  0.4481861045168074  0.3572256521424819  0.6878188822592148  1.0000
  O   O2        1.0  0.5517544270069906  0.1427501180283173  0.18782167964952373  1.0000
  O   O3        1.0  0.5518213311202089  0.6427813325345824  0.31217505513932037  1.0000
  O   O4        1.0  0.44819472003112554  0.8572124891185099  0.8121784970271262  1.0000
  O   O5        1.0  0.8464496724551869  0.550815882341297  0.6789585128145175  1.0000
  O   O6        1.0  0.15356400309927662  0.9491655532400358  0.1789629387304713  1.0000
  O   O7        1.0  0.15360264707057072  0.449183960694107  0.3210362563885666  1.0000
  O   O8        1.0  0.8464377953492176  0.0508151092791138  0.8210426453038123  1.0000
