data_image0
_chemical_formula_structural       K2H22C12O18
_chemical_formula_sum              "K2 H22 C12 O18"
_cell_length_a       6.101184060948282
_cell_length_b       8.826882064242623
_cell_length_c       10.028278211010129
_cell_angle_alpha    100.8860882513359
_cell_angle_beta     101.56540312983526
_cell_angle_gamma    90.11468808379169

_space_group_name_H-M_alt    "P 1"
_space_group_IT_number       1

loop_
  _space_group_symop_operation_xyz
  'x, y, z'

loop_
  _atom_site_type_symbol
  _atom_site_label
  _atom_site_symmetry_multiplicity
  _atom_site_fract_x
  _atom_site_fract_y
  _atom_site_fract_z
  _atom_site_occupancy
  K   K1        1.0  0.6097214611910857  0.7254782708465439  0.9723264196920665  1.0000
  K   K2        1.0  0.390297654093871  0.27452274214691375  0.027676513140249867  1.0000
  H   H1        1.0  0.4048409318961106  0.5836951261217392  0.6577831836035202  1.0000
  H   H2        1.0  0.5951579706063512  0.41630359192564004  0.3422158733828908  1.0000
  H   H3        1.0  0.7503612691170645  0.70435227478643  0.5632430264785171  1.0000
  H   H4        1.0  0.24963274791446818  0.2956487584473634  0.4367578036936661  1.0000
  H   H5        1.0  0.9611673041723209  0.8009414642639072  0.506371786559022  1.0000
  H   H6        1.0  0.0388336710091863  0.19906418652702476  0.493634656279383  1.0000
  H   H7        1.0  0.35734610722841614  0.12164416869175197  0.703260215146507  1.0000
  H   H8        1.0  0.642654240604145  0.878351087162322  0.2967414395494785  1.0000
  H   H9        1.0  0.038546288364614184  0.8612180208585868  0.908597684902368  1.0000
  H   H10       1.0  0.9614508746003593  0.13877954279951144  0.09139996891749287  1.0000
  H   H11       1.0  0.7489665944193717  0.026858816189907497  0.5790333064754662  1.0000
  H   H12       1.0  0.25104073002592736  0.9731410531540875  0.42096997375917067  1.0000
  H   H13       1.0  0.5822528127205331  0.9302502243057801  0.6644338835998838  1.0000
  H   H14       1.0  0.41774280597618224  0.06974965299239949  0.33556695344657317  1.0000
  H   H15       1.0  0.5708407235569125  0.3970466226753543  0.7382569911221565  1.0000
  H   H16       1.0  0.4291565818960663  0.6029532502908379  0.2617410622080881  1.0000
  H   H17       1.0  0.7434507323354322  0.5054970261857861  0.6930568809076474  1.0000
  H   H18       1.0  0.2565466582086202  0.49450399838404735  0.3069383818321114  1.0000
  H   H19       1.0  0.866738660606849  0.4735974835724405  0.14184963795206326  1.0000
  H   H20       1.0  0.1332585254365881  0.5264000750016393  0.8581430319583276  1.0000
  H   H21       1.0  0.8424537094957145  0.37854193183928697  0.9889838018191953  1.0000
  H   H22       1.0  0.1575514756422365  0.621449849090311  0.011010896026355996  1.0000
  C   C1        1.0  0.08092588919699752  0.6329524102614175  0.6302710976116543  1.0000
  C   C2        1.0  0.9190716966162995  0.3670520823377856  0.3697287515212651  1.0000
  C   C3        1.0  0.9216153404394162  0.7551316161763636  0.5933909883464352  1.0000
  C   C4        1.0  0.07838209365448282  0.24487056914833963  0.40661045483987834  1.0000
  C   C5        1.0  0.9308497140548367  0.8901125585209825  0.7193931764513408  1.0000
  C   C6        1.0  0.0691460425141912  0.10988962910209207  0.28060905688739973  1.0000
  C   C7        1.0  0.16159228594796096  0.974554238692356  0.7561750892740734  1.0000
  C   C8        1.0  0.8384217829152973  0.02544678424663259  0.2438332043612021  1.0000
  C   C9        1.0  0.7412233221093628  0.9963156516061106  0.6795642137557323  1.0000
  C   C10       1.0  0.2587756424057162  0.0036842231289285006  0.3204370365496628  1.0000
  C   C11       1.0  0.736100817906191  0.14640096314567336  0.781617707290799  1.0000
  C   C12       1.0  0.2639000286343887  0.8536023752867479  0.2183853456915372  1.0000
  O   O1        1.0  0.02044249519532569  0.5161488832957344  0.6691145637001199  1.0000
  O   O2        1.0  0.9795531373484679  0.4838509909520353  0.33088328300065933  1.0000
  O   O3        1.0  0.2887557329405084  0.6634313450942599  0.6226302373794752  1.0000
  O   O4        1.0  0.7112417862444715  0.3365719918340844  0.3773684152163526  1.0000
  O   O5        1.0  0.2943174734300698  0.962395842702641  0.8644946307145602  1.0000
  O   O6        1.0  0.7056847841221484  0.0376028707479961  0.1355028459670038  1.0000
  O   O7        1.0  0.20094022891947108  0.05356202025100739  0.66445626940164  1.0000
  O   O8        1.0  0.799060394657708  0.9464378562528778  0.33554817787890556  1.0000
  O   O9        1.0  0.9003226981676562  0.8315793568807024  0.8376033047081464  1.0000
  O   O10       1.0  0.0996745795911593  0.16842052218632378  0.1624007293134611  1.0000
  O   O11       1.0  0.9043580989454938  0.20093732954863697  0.8718674541594638  1.0000
  O   O12       1.0  0.09563766223922698  0.7990648570576365  0.12813378239738427  1.0000
  O   O13       1.0  0.5469928239263949  0.21594996939036548  0.7644234686427254  1.0000
  O   O14       1.0  0.45300267074508566  0.7840475945324953  0.23557298176577038  1.0000
  O   O15       1.0  0.5951605279580647  0.5024896437531793  0.7198708051986955  1.0000
  O   O16       1.0  0.4048350999700361  0.4975102315113915  0.2801280382839765  1.0000
  O   O17       1.0  0.7711517061772284  0.4570463432031672  0.0488574861437954  1.0000
  O   O18       1.0  0.22884686318369057  0.5429465964899407  0.9511355881571788  1.0000
