data_image0
_chemical_formula_structural       Cu2H12C14N10
_chemical_formula_sum              "Cu2 H12 C14 N10"
_cell_length_a       5.692374686460571
_cell_length_b       8.229266591291031
_cell_length_c       8.940813019731424
_cell_angle_alpha    111.74296701358469
_cell_angle_beta     90.00009846645457
_cell_angle_gamma    89.99861295120871

_space_group_name_H-M_alt    "P 1"
_space_group_IT_number       1

loop_
  _space_group_symop_operation_xyz
  'x, y, z'

loop_
  _atom_site_type_symbol
  _atom_site_label
  _atom_site_symmetry_multiplicity
  _atom_site_fract_x
  _atom_site_fract_y
  _atom_site_fract_z
  _atom_site_occupancy
  Cu  Cu1       1.0  0.6238423434894997  0.10004235784851549  0.6227894769389053  1.0000
  Cu  Cu2       1.0  0.1238434252817129  0.8999548439932638  0.37720439644726156  1.0000
  H   H1        1.0  0.028717229165813797  0.7132796315266388  0.015471219588356172  1.0000
  H   H2        1.0  0.5287105086231633  0.28671139010625524  0.9845247371431681  1.0000
  H   H3        1.0  0.9503517620302586  0.8886305376711405  0.957065395400889  1.0000
  H   H4        1.0  0.4503409161472049  0.11135778156075558  0.04292914094742168  1.0000
  H   H5        1.0  0.568019393622329  0.8682362596697288  0.7947417808059  1.0000
  H   H6        1.0  0.0680117430794525  0.1317735391401982  0.2052643983900637  1.0000
  H   H7        1.0  0.3038447338654606  0.6640553850738016  0.5871132336045761  1.0000
  H   H8        1.0  0.8038507165857921  0.3359562686576538  0.4129018282668326  1.0000
  H   H9        1.0  0.3339185881636908  0.34152035831258587  0.5287611560492209  1.0000
  H   H10       1.0  0.833923992221976  0.6584921982147518  0.4712486871504139  1.0000
  H   H11       1.0  0.869495521568652  0.419282283986945  0.862237568899502  1.0000
  H   H12       1.0  0.36948257327073725  0.5807115517766731  0.1377565985040263  1.0000
  C   C1        1.0  0.7287144560950835  0.857598388248114  0.13637346463570307  1.0000
  C   C2        1.0  0.22870803352209623  0.14239415123546445  0.8636211257396482  1.0000
  C   C3        1.0  0.8778233142755241  0.7811239715174524  0.9884640029905327  1.0000
  C   C4        1.0  0.37781742229906007  0.21886970683252113  0.011530120769997177  1.0000
  C   C5        1.0  0.5765946787337412  0.7281477665174448  0.7680239853392266  1.0000
  C   C6        1.0  0.07658395895081328  0.2718566389243832  0.23198025364553837  1.0000
  C   C7        1.0  0.7350676014162332  0.6608479219127827  0.8498855038433887  1.0000
  C   C8        1.0  0.23505608988806864  0.3391550582301689  0.15010952288640306  1.0000
  C   C9        1.0  0.4297491954794026  0.6144919126243165  0.651488091367831  1.0000
  C   C10       1.0  0.9297480212630019  0.3855161523680976  0.34852251618180924  1.0000
  C   C11       1.0  0.4471018025271931  0.4356238823275548  0.6177804084648244  1.0000
  C   C12       1.0  0.9470997355707881  0.5643800291802278  0.38222536573818633  1.0000
  C   C13       1.0  0.7460608519326255  0.4795626209592284  0.8045558371265074  1.0000
  C   C14       1.0  0.24605366174517937  0.5204346916245512  0.19544498564792429  1.0000
  N   N1        1.0  0.8135408342412306  0.9332474430640046  0.28752502983932254  1.0000
  N   N2        1.0  0.31353668557323994  0.06675271384320779  0.7124702189621672  1.0000
  N   N3        1.0  0.4928251615500159  0.8600854870646515  0.13610965141081974  1.0000
  N   N4        1.0  0.992819759974857  0.13990732625616428  0.8638843437445018  1.0000
  N   N5        1.0  0.6226267613924178  0.9845582672219136  0.3834704721452908  1.0000
  N   N6        1.0  0.1226311981564407  0.015436374502328912  0.6165213529590403  1.0000
  N   N7        1.0  0.4307760506619828  0.9392232767718056  0.2917315710362658  1.0000
  N   N8        1.0  0.9307800610161294  0.06076940098497368  0.7082622753094228  1.0000
  N   N9        1.0  0.60662700472448  0.3679843578167307  0.6903143755034262  1.0000
  N   N10       1.0  0.1066232232283753  0.6320221284433956  0.3096895467985732  1.0000
