data_image0
_chemical_formula_structural       Zn8H40C80O50
_chemical_formula_sum              "Zn8 H40 C80 O50"
_cell_length_a       23.841939737690335
_cell_length_b       23.84335136208491
_cell_length_c       23.841727068451625
_cell_angle_alpha    66.45349494329483
_cell_angle_beta     72.53284061183851
_cell_angle_gamma    107.47649858271497

_space_group_name_H-M_alt    "P 1"
_space_group_IT_number       1

loop_
  _space_group_symop_operation_xyz
  'x, y, z'

loop_
  _atom_site_type_symbol
  _atom_site_label
  _atom_site_symmetry_multiplicity
  _atom_site_fract_x
  _atom_site_fract_y
  _atom_site_fract_z
  _atom_site_occupancy
  Zn  Zn1       1.0  0.056638040466353096  0.9573302848722349  0.48604216697040675  1.0000
  Zn  Zn2       1.0  0.05663903946632586  0.09931061145943687  0.45733235187640997  1.0000
  Zn  Zn3       1.0  0.9433566878822217  0.9860370836372494  0.4573238795686551  1.0000
  Zn  Zn4       1.0  0.9433722411975651  0.9573278385389299  0.5993127553419912  1.0000
  Zn  Zn5       1.0  0.9433614495139081  0.5426698325263427  0.013958401935582473  1.0000
  Zn  Zn6       1.0  0.05664572362218926  0.5139643950138152  0.04267484894954526  1.0000
  Zn  Zn7       1.0  0.9433609125687069  0.4006909898115579  0.042671871274478676  1.0000
  Zn  Zn8       1.0  0.056624853774472655  0.5426679348940411  0.9006903530659686  1.0000
  H   H1        1.0  0.9227929643027651  0.7151336361942527  0.17517354808241242  1.0000
  H   H2        1.0  0.07718800940763493  0.6751575297482758  0.21517698746481545  1.0000
  H   H3        1.0  0.922800584251291  0.8248295792480315  0.284834130837375  1.0000
  H   H4        1.0  0.07713982945598725  0.7847870695596695  0.32490803264413187  1.0000
  H   H5        1.0  0.07721361616307115  0.402010029498136  0.7076668475268164  1.0000
  H   H6        1.0  0.9228132561743649  0.207638013252918  0.9020374983447256  1.0000
  H   H7        1.0  0.07714656414599122  0.2923517476905388  0.5979739622875543  1.0000
  H   H8        1.0  0.9227997309654653  0.097966988892473  0.792356206493352  1.0000
  H   H9        1.0  0.609680128544923  0.40202568886626  0.1751397863859411  1.0000
  H   H10       1.0  0.6096732438651458  0.20764115002341293  0.215179157809814  1.0000
  H   H11       1.0  0.39032591724461696  0.2923576031435289  0.2848130137222995  1.0000
  H   H12       1.0  0.39032017756284176  0.09798897736268941  0.3247848973398462  1.0000
  H   H13       1.0  0.39033003834013863  0.6751188863755075  0.9020224093613934  1.0000
  H   H14       1.0  0.3903136091040053  0.7151652840525385  0.7076315666826646  1.0000
  H   H15       1.0  0.609688361346592  0.7848239023847441  0.7923664000266301  1.0000
  H   H16       1.0  0.609670606245693  0.8248063481431627  0.5979900513429258  1.0000
  H   H17       1.0  0.9192337810749859  0.8369507066008095  0.7438123193717916  1.0000
  H   H18       1.0  0.08076819061024301  0.6630489066743619  0.7561882134817496  1.0000
  H   H19       1.0  0.9192305941809947  0.6630439870983692  0.9177217423945053  1.0000
  H   H20       1.0  0.08077317869740593  0.8369563801577513  0.582280464898588  1.0000
  H   H21       1.0  0.9192287508465141  0.08228319404263124  0.33694087590210836  1.0000
  H   H22       1.0  0.0807703663304408  0.4177165359101877  0.1630605675880475  1.0000
  H   H23       1.0  0.9192324434297346  0.25619406865200717  0.16303216562355521  1.0000
  H   H24       1.0  0.08076871655377  0.24380614131698053  0.3369684718305237  1.0000
  H   H25       1.0  0.9196842918228323  0.6282491459117591  0.08621891053999088  1.0000
  H   H26       1.0  0.08030833200533748  0.5862085208698886  0.12828710191203646  1.0000
  H   H27       1.0  0.9196873351748562  0.9137846336163375  0.3717178053515228  1.0000
  H   H28       1.0  0.08025977126869283  0.8716812913054992  0.41385163322038215  1.0000
  H   H29       1.0  0.08032584144957866  0.49406913493255183  0.7914505894902818  1.0000
  H   H30       1.0  0.9197000326760902  0.29140477532735093  0.99410984894358  1.0000
  H   H31       1.0  0.0802578324326504  0.20858250293531458  0.5059040262231917  1.0000
  H   H32       1.0  0.919685594247909  0.005904396376657032  0.7085769428394999  1.0000
  H   H33       1.0  0.785520759103562  0.49408841881139387  0.08618811387698622  1.0000
  H   H34       1.0  0.7855134536000248  0.2914114160910869  0.1282934730236179  1.0000
  H   H35       1.0  0.21448717949458998  0.20859036768619177  0.371701244925262  1.0000
  H   H36       1.0  0.21447866828098233  0.00592536515846829  0.41373802404248755  1.0000
  H   H37       1.0  0.21449101972130055  0.586170392496882  0.9940836106973735  1.0000
  H   H38       1.0  0.2144755877556433  0.6282830397486803  0.7913985502727885  1.0000
  H   H39       1.0  0.7855275255053228  0.8717114600649437  0.7086003157786824  1.0000
  H   H40       1.0  0.7855106137184861  0.9137584379487363  0.5059292200615034  1.0000
  C   C1        1.0  0.184086718514159  0.0920542638990796  0.40794599835534473  1.0000
  C   C2        1.0  0.999997349388856  0.1399123263389299  0.360086424533243  1.0000
  C   C3        1.0  0.9999870859439425  0.9079498261242801  0.40796826234016975  1.0000
  C   C4        1.0  0.8159170546209535  0.9079449694805035  0.5920615316921669  1.0000
  C   C5        1.0  5.853071179436634e-06  0.8600894842267832  0.6399135420759311  1.0000
  C   C6        1.0  0.9999876010100051  0.09204274602236491  0.5920473902716098  1.0000
  C   C7        1.0  0.9999989115504205  0.592033122302745  0.09204955626545783  1.0000
  C   C8        1.0  5.370242114120959e-06  0.36008892384899843  0.13991332973239423  1.0000
  C   C9        1.0  0.8159128607631984  0.4079506603354018  0.09203981947692357  1.0000
  C   C10       1.0  0.9999956074336822  0.4079411927491422  0.9079715745528957  1.0000
  C   C11       1.0  0.9999949545025261  0.6399105261774595  0.8600884418298448  1.0000
  C   C12       1.0  0.18408350879116842  0.5920344468939901  0.9079436781883176  1.0000
  C   C13       1.0  2.8849157229874225e-06  0.804167931274179  0.6958317006308763  1.0000
  C   C14       1.0  0.9999993721465182  0.6958304005673024  0.8041696750480516  1.0000
  C   C15       1.0  0.9561320426385076  0.7768561439569976  0.7670090391846148  1.0000
  C   C16       1.0  0.04386977505648537  0.7231417457321707  0.732993483433127  1.0000
  C   C17       1.0  0.9561324685378734  0.7231386904416438  0.8207276230432969  1.0000
  C   C18       1.0  0.04387095260206301  0.7768592381341647  0.6792748206352143  1.0000
  C   C19       1.0  0.9999995264554967  0.19583100152721036  0.3041683897766135  1.0000
  C   C20       1.0  2.951584647797849e-06  0.3041705267165611  0.19583216559676944  1.0000
  C   C21       1.0  0.9561314879097436  0.17927693699056138  0.27685104936806937  1.0000
  C   C22       1.0  0.04386986985019086  0.3207239931865828  0.2231492422549479  1.0000
  C   C23       1.0  0.9561316991145931  0.2329955457070127  0.2231339116333046  1.0000
  C   C24       1.0  0.04387053734037489  0.26700626161537844  0.2768670250058705  1.0000
  C   C25       1.0  0.9999932712394182  0.6283132203875467  0.12834533867530973  1.0000
  C   C26       1.0  0.956196217298192  0.6582383994483789  0.13560022451559212  1.0000
  C   C27       1.0  0.9564977027612613  0.6930293990032297  0.17055030127148293  1.0000
  C   C28       1.0  0.9999920243491542  0.6992106491781768  0.19923883333689923  1.0000
  C   C29       1.0  0.043486960042784364  0.670530883172482  0.19306380148765379  1.0000
  C   C30       1.0  0.04378970757363703  0.6355769908938668  0.1582770924818961  1.0000
  C   C31       1.0  0.999996357292872  0.7346900586641212  0.2347186542135447  1.0000
  C   C32       1.0  0.9999882981263111  0.7652763833159638  0.26531493762532704  1.0000
  C   C33       1.0  0.9999722242548967  0.800745272929852  0.3008042470460809  1.0000
  C   C34       1.0  0.9564899023408556  0.8294413287163279  0.3069622238634724  1.0000
  C   C35       1.0  0.9561861659222043  0.8643916189313854  0.34175108186648384  1.0000
  C   C36       1.0  0.9999677478825716  0.8716378973870674  0.37170188225599804  1.0000
  C   C37       1.0  0.04374740644299599  0.8416915986848746  0.3644702066576858  1.0000
  C   C38       1.0  0.04344926066602971  0.8069081304272883  0.3295123556561282  1.0000
  C   C39       1.0  1.673501134988151e-05  0.3716483693533019  0.8716882790284972  1.0000
  C   C40       1.0  0.04381725553821499  0.4081871173155632  0.7979657027691831  1.0000
  C   C41       1.0  0.04351129327789481  0.3729372655947073  0.7634749252677153  1.0000
  C   C42       1.0  1.0559381813367767e-05  0.30076335916106695  0.800786211664942  1.0000
  C   C43       1.0  0.95651468008635  0.26344602412704166  0.8729624399404371  1.0000
  C   C44       1.0  0.9562179311325779  0.29792699164637065  0.9082222115240697  1.0000
  C   C45       1.0  1.1745180898115916e-06  0.26528411209384467  0.765307008871794  1.0000
  C   C46       1.0  0.9999929100827883  0.23469817061795323  0.7347109459742428  1.0000
  C   C47       1.0  0.9999761013292953  0.19922089076481325  0.6992306805421364  1.0000
  C   C48       1.0  0.04345328883420751  0.23654092418434655  0.6270522982691916  1.0000
  C   C49       1.0  0.04374691848740743  0.20205787520436755  0.5917947129044168  1.0000
  C   C50       1.0  0.9999672457495165  0.12833423819594  0.6283309119845271  1.0000
  C   C51       1.0  0.9561828472670015  0.09179387643537505  0.7020543073498969  1.0000
  C   C52       1.0  0.9564898860326279  0.1270453316462364  0.7365428649846494  1.0000
  C   C53       1.0  0.7433363127787158  0.37166089098569427  0.12832905689051444  1.0000
  C   C54       1.0  0.7061539426461464  0.4082003582305943  0.1355719025598675  1.0000
  C   C55       1.0  0.6364135171612871  0.3729484149462222  0.17052483512773628  1.0000
  C   C56       1.0  0.6015507108741643  0.3007724179181182  0.1992199116708876  1.0000
  C   C57       1.0  0.6364082706867648  0.2634530488583877  0.19305769676368106  1.0000
  C   C58       1.0  0.7061481831790103  0.29793680994393396  0.15827351772595946  1.0000
  C   C59       1.0  0.5305908470821733  0.26529911933012323  0.2346960395683198  1.0000
  C   C60       1.0  0.4694082942655695  0.2347158264095767  0.2652783770361181  1.0000
  C   C61       1.0  0.3984512632245368  0.19923547512848214  0.30074429148341153  1.0000
  C   C62       1.0  0.36359144010143746  0.2365488928573001  0.3069217171348626  1.0000
  C   C63       1.0  0.2938507153094461  0.20206798087712485  0.3417016528938107  1.0000
  C   C64       1.0  0.25666265231367896  0.1283476639283947  0.3716269813137957  1.0000
  C   C65       1.0  0.29384717569369195  0.09181144661976495  0.3643620625483166  1.0000
  C   C66       1.0  0.3635869639728355  0.1270622162932256  0.32941524101197217  1.0000
  C   C67       1.0  0.25666159260195764  0.6283101040873686  0.8716545542699309  1.0000
  C   C68       1.0  0.2938541824663757  0.6355515452758027  0.9081937396787155  1.0000
  C   C69       1.0  0.36359431233411493  0.6705076572540848  0.872940306714959  1.0000
  C   C70       1.0  0.3984512150266183  0.6992062500477729  0.8007632137206286  1.0000
  C   C71       1.0  0.3635867402070969  0.693039898522592  0.7634445057401252  1.0000
  C   C72       1.0  0.29384646574755624  0.6582565880624925  0.7979284239088218  1.0000
  C   C73       1.0  0.4694079169100789  0.7346888871631734  0.7652943926728286  1.0000
  C   C74       1.0  0.5305909315282162  0.765277320158681  0.7347186811714935  1.0000
  C   C75       1.0  0.6015503785225816  0.800754899063449  0.6992413969108926  1.0000
  C   C76       1.0  0.6364168098334488  0.8069341682894446  0.7365568977653894  1.0000
  C   C77       1.0  0.7061587315466793  0.8417165183494076  0.7020728652227249  1.0000
  C   C78       1.0  0.7433395164689427  0.8716411630472221  0.628353710694519  1.0000
  C   C79       1.0  0.7061496265367139  0.8643852115506118  0.5918136075706574  1.0000
  C   C80       1.0  0.6364101125622453  0.8294359816431153  0.6270641195812348  1.0000
  O   O1        1.0  0.9999980852327965  5.140278531450574e-07  0.5000027953705197  1.0000
  O   O2        1.0  0.15237342663542108  0.025324138760225875  0.4345928577694025  1.0000
  O   O3        1.0  0.040144422530751483  0.15608957066197596  0.38405197121158346  1.0000
  O   O4        1.0  0.959907994157859  0.9346012032528461  0.4130252053742185  1.0000
  O   O5        1.0  0.15237514723458634  0.12706641122073137  0.41304094865713387  1.0000
  O   O6        1.0  0.04008405625490474  0.9130325855580633  0.4346054635266585  1.0000
  O   O7        1.0  0.9598505855368132  0.0758065806876118  0.3840483454119053  1.0000
  O   O8        1.0  0.8476245906590799  0.9345851600189542  0.5253320643093462  1.0000
  O   O9        1.0  0.959863706396959  0.8840523125976958  0.6560918751470413  1.0000
  O   O10       1.0  0.8476327566454246  0.9130283649664223  0.6270776488948613  1.0000
  O   O11       1.0  0.04015012881495749  0.8840570776166317  0.575806243749618  1.0000
  O   O12       1.0  0.040081926958571  0.1270599200499092  0.525318865371368  1.0000
  O   O13       1.0  0.9599122196939051  0.025310530239693284  0.6270658863811035  1.0000
  O   O14       1.0  6.516278012840382e-08  0.4999989110613754  0.9999999908953755  1.0000
  O   O15       1.0  0.9599051744800419  0.5869556735254945  0.06540920010928632  1.0000
  O   O16       1.0  0.04015053064921392  0.42419463061368384  0.11595148779296245  1.0000
  O   O17       1.0  0.84762412379726  0.3729350177716525  0.08696858127607514  1.0000
  O   O18       1.0  0.04009876710881596  0.5654056777982674  0.08696964634602015  1.0000
  O   O19       1.0  0.8476275145298969  0.4746811085533407  0.06539116317957663  1.0000
  O   O20       1.0  0.9598607792740312  0.3439126016944343  0.11594583007915558  1.0000
  O   O21       1.0  0.9598944109026062  0.3729296572838761  0.9746969211245401  1.0000
  O   O22       1.0  0.040132268306137774  0.6159428648141725  0.8439101298266112  1.0000
  O   O23       1.0  0.040077977053378615  0.4746715095796147  0.8729545942319421  1.0000
  O   O24       1.0  0.9598555116406325  0.6159477678255167  0.9241948794043469  1.0000
  O   O25       1.0  0.15237735715422915  0.5653992916760371  0.9746732438055548  1.0000
  O   O26       1.0  0.15236425070347082  0.5869694060173174  0.8729259502245271  1.0000
  O   O27       1.0  0.9130977362907159  0.7996454663718637  0.7872490094660948  1.0000
  O   O28       1.0  0.08690511406698664  0.7003550199574844  0.7127538477714737  1.0000
  O   O29       1.0  0.9130994869407798  0.700346601466478  0.8865509370011607  1.0000
  O   O30       1.0  0.08690608716463531  0.7996545259072005  0.6134504256796732  1.0000
  O   O31       1.0  0.9130988673440186  0.11345442311615254  0.2996352359906569  1.0000
  O   O32       1.0  0.08690253423594634  0.3865455098197613  0.20036418051369517  1.0000
  O   O33       1.0  0.9130985010782169  0.21275832027372124  0.200334666215916  1.0000
  O   O34       1.0  0.08690285667608319  0.2872426088806606  0.29966604524906876  1.0000
  O   O35       1.0  0.9133586942231628  0.6541518771589593  0.10932398850183503  1.0000
  O   O36       1.0  0.08662988959813579  0.6093095744412409  0.1541968173251789  1.0000
  O   O37       1.0  0.9133607030473171  0.8906790118124729  0.3458143700595998  1.0000
  O   O38       1.0  0.08657519726310173  0.8457647072608054  0.3907588997511553  1.0000
  O   O39       1.0  0.0866648374142613  0.4772911529102614  0.7592208590198125  1.0000
  O   O40       1.0  0.9133790457463958  0.25917415072999705  0.9773304647205093  1.0000
  O   O41       1.0  0.08657381123981618  0.2408122886190895  0.5226848327789639  1.0000
  O   O42       1.0  0.9133552088315826  0.022684732433809553  0.7408056609625858  1.0000
  O   O43       1.0  0.7365115587714681  0.47731006067944276  0.10928971362303506  1.0000
  O   O44       1.0  0.7365040721737798  0.2591822877080218  0.15420236774245674  1.0000
  O   O45       1.0  0.26349807680466597  0.24082154375711437  0.3457881437169519  1.0000
  O   O46       1.0  0.26348701274142167  0.022707614638818496  0.3906145830897074  1.0000
  O   O47       1.0  0.2635015863959963  0.6092663917908608  0.9773050180167717  1.0000
  O   O48       1.0  0.2634847881504639  0.6541884009254131  0.759170404197292  1.0000
  O   O49       1.0  0.7365176216504703  0.8458012245958808  0.7408276750990981  1.0000
  O   O50       1.0  0.736501934636763  0.8906507702925733  0.5227055906420477  1.0000
