data_image0
_chemical_formula_structural       Cd4H20C40N8O28
_chemical_formula_sum              "Cd4 H20 C40 N8 O28"
_cell_length_a       7.48310393140047
_cell_length_b       11.91943696345877
_cell_length_c       13.209801674450974
_cell_angle_alpha    89.99960915451997
_cell_angle_beta     90.00086373897484
_cell_angle_gamma    89.07249988759689

_space_group_name_H-M_alt    "P 1"
_space_group_IT_number       1

loop_
  _space_group_symop_operation_xyz
  'x, y, z'

loop_
  _atom_site_type_symbol
  _atom_site_label
  _atom_site_symmetry_multiplicity
  _atom_site_fract_x
  _atom_site_fract_y
  _atom_site_fract_z
  _atom_site_occupancy
  Cd  Cd1       1.0  0.424964591041153  0.678206769722472  0.8312174033355361  1.0000
  Cd  Cd2       1.0  0.9249709080731918  0.1781991775256486  0.6687886659262431  1.0000
  Cd  Cd3       1.0  0.5750193542052955  0.3218162970895833  0.16878829532370784  1.0000
  Cd  Cd4       1.0  0.0750311085566437  0.8218041706398508  0.3312109767618594  1.0000
  H   H1        1.0  0.12212759727770359  0.7807096153050636  0.7257365317151424  1.0000
  H   H2        1.0  0.6220980420383383  0.28070459920910207  0.7742723543063688  1.0000
  H   H3        1.0  0.8778732768338529  0.21929963326712718  0.2742790082364762  1.0000
  H   H4        1.0  0.37790461957786914  0.7192777554373962  0.2257151762300964  1.0000
  H   H5        1.0  0.124244426201642  0.8282422544058364  0.8394580130141589  1.0000
  H   H6        1.0  0.6242610488434083  0.32822944906581614  0.6605483317893928  1.0000
  H   H7        1.0  0.875773791296332  0.17176575354660173  0.1605575270161523  1.0000
  H   H8        1.0  0.37577398648444676  0.6717613867632012  0.33944222691572185  1.0000
  H   H9        1.0  0.08289606201110188  0.6961716429190548  0.9973773360883766  1.0000
  H   H10       1.0  0.5828530224997052  0.1961403954690297  0.5026112850532057  1.0000
  H   H11       1.0  0.917109511845716  0.30385847550468276  0.002635175765618699  1.0000
  H   H12       1.0  0.41710729431009247  0.8038555265784879  0.49737624525911867  1.0000
  H   H13       1.0  0.9604081973657017  0.5805951391951255  0.14215894873407106  1.0000
  H   H14       1.0  0.4604173313261556  0.08057005336227263  0.3578095387148821  1.0000
  H   H15       1.0  0.039539789098036196  0.4193918377307995  0.857815712320331  1.0000
  H   H16       1.0  0.539559499616786  0.9193994728882942  0.6421817768171323  1.0000
  H   H17       1.0  0.1568603138136879  0.419595289457881  0.2061251324579274  1.0000
  H   H18       1.0  0.6569115246770992  0.9195834636468092  0.29385457071875715  1.0000
  H   H19       1.0  0.8431161758195459  0.5804044539912212  0.7938480146535766  1.0000
  H   H20       1.0  0.3431329474533129  0.0804096711032827  0.7061541563474235  1.0000
  C   C1        1.0  0.6244441358922684  0.8770025224834869  0.9518879060989462  1.0000
  C   C2        1.0  0.12444812104440932  0.3769915698070676  0.5481067890189308  1.0000
  C   C3        1.0  0.37556489356407496  0.1230107331055379  0.04810719450755839  1.0000
  C   C4        1.0  0.8755601897224282  0.6229998846293867  0.4518913397052202  1.0000
  C   C5        1.0  0.6739874227538963  0.8856681873631517  0.8440340900161871  1.0000
  C   C6        1.0  0.17397842512776407  0.38566262013038977  0.6559685506084418  1.0000
  C   C7        1.0  0.3260306287028243  0.11433478961087222  0.15596782378322868  1.0000
  C   C8        1.0  0.8260194998825626  0.614338305311513  0.344031849082981  1.0000
  C   C9        1.0  0.7724220629266441  0.982287172375209  0.8072683405908946  1.0000
  C   C10       1.0  0.2724140674165271  0.4822821520825329  0.6927406198430006  1.0000
  C   C11       1.0  0.22760108464122197  0.017708134331677196  0.19273130221292686  1.0000
  C   C12       1.0  0.7275757297620514  0.517715604886959  0.30727037801383966  1.0000
  C   C13       1.0  0.8329270528433881  0.0675983092493908  0.8792285538599528  1.0000
  C   C14       1.0  0.33293050232119015  0.5675862363449227  0.6207781489580738  1.0000
  C   C15       1.0  0.16708311937198772  0.9324090458609148  0.12076881781031547  1.0000
  C   C16       1.0  0.6670753296341161  0.43241114944810743  0.37923133494189887  1.0000
  C   C17       1.0  0.8155368276402727  0.0481874060704257  0.9890939267127548  1.0000
  C   C18       1.0  0.31555092119168654  0.5481817645933517  0.5109097157111505  1.0000
  C   C19       1.0  0.18448796027870887  0.9518170932520538  0.010908744124776599  1.0000
  C   C20       1.0  0.6844776266454957  0.45181509538185327  0.4890937121794605  1.0000
  C   C21       1.0  0.7013521349968029  0.9558641027951109  0.027393422695268992  1.0000
  C   C22       1.0  0.2013515843849163  0.45585770174144363  0.4726030986891771  1.0000
  C   C23       1.0  0.29866499480834807  0.04415148271289131  0.9726031919664279  1.0000
  C   C24       1.0  0.7986823083644693  0.54413903451227  0.5273988151976283  1.0000
  C   C25       1.0  0.15539187198957896  0.6233291034706882  0.027424625452539392  1.0000
  C   C26       1.0  0.6553751198133498  0.12330807469822253  0.47257049039473015  1.0000
  C   C27       1.0  0.844607803775112  0.37668436865945415  0.9725659330310776  1.0000
  C   C28       1.0  0.3446131476882143  0.8766838436472925  0.5274450495550553  1.0000
  C   C29       1.0  0.08940714766127661  0.5606071002264842  0.1077444346817131  1.0000
  C   C30       1.0  0.5894176637939168  0.0605860279021684  0.3922406509150277  1.0000
  C   C31       1.0  0.9105651674822893  0.43938770496478696  0.8922340115222054  1.0000
  C   C32       1.0  0.41057425304202877  0.9393948970774417  0.6077748890839059  1.0000
  C   C33       1.0  0.19650703754370366  0.47218585775195987  0.14268967235400248  1.0000
  C   C34       1.0  0.6965384670544597  0.9721715082822655  0.3572976240349988  1.0000
  C   C35       1.0  0.8034678947690707  0.5278072085677508  0.8572880168528625  1.0000
  C   C36       1.0  0.30348554699846625  0.027809512843809607  0.6427164020750382  1.0000
  C   C37       1.0  0.4103888227640482  0.5128041866205777  0.023126982287784897  1.0000
  C   C38       1.0  0.9103794461723637  0.01280057772099501  0.47686873704909516  1.0000
  C   C39       1.0  0.5895758897833049  0.48720338169800215  0.9768628190490743  1.0000
  C   C40       1.0  0.0895664764024104  0.9872049080615499  0.5231377185129062  1.0000
  N   N1        1.0  0.31345385753331106  0.597995767337558  0.9844639776457879  1.0000
  N   N2        1.0  0.8134425295742888  0.097982991633863  0.5155363161256189  1.0000
  N   N3        1.0  0.6865352942074736  0.4020229832860025  0.015525066749063399  1.0000
  N   N4        1.0  0.18654323140207646  0.9020140195838238  0.4844852799069557  1.0000
  N   N5        1.0  0.3571864648429681  0.4494615492980287  0.10111070454246367  1.0000
  N   N6        1.0  0.857203403934392  0.9494606573507481  0.39888644524450695  1.0000
  N   N7        1.0  0.6427975723604008  0.5505237539349183  0.8988707697955007  1.0000
  N   N8        1.0  0.1428074965889294  0.0505282196397161  0.6011283377986557  1.0000
  O   O1        1.0  0.5184769426583529  0.8026215876181338  0.9791719596558435  1.0000
  O   O2        1.0  0.018480260002263497  0.30261252830490554  0.520823028621983  1.0000
  O   O3        1.0  0.4815176922921225  0.19740123178696217  0.020821626832152197  1.0000
  O   O4        1.0  0.9815322253244574  0.6973838643683692  0.4791751001052019  1.0000
  O   O5        1.0  0.6213868086841643  0.8133366375829281  0.7811497166709527  1.0000
  O   O6        1.0  0.1213636917030954  0.31333848941401504  0.7188566937550077  1.0000
  O   O7        1.0  0.37862058060162707  0.1866674253364806  0.21885598214728924  1.0000
  O   O8        1.0  0.8786157748854819  0.6866704156077501  0.28114749090062213  1.0000
  O   O9        1.0  0.8024141117088135  0.9942953835520001  0.7139536337910639  1.0000
  O   O10       1.0  0.30237799416249095  0.49429452725786405  0.7860570267472156  1.0000
  O   O11       1.0  0.19762239819974783  0.0056996138331513  0.28604676608505736  1.0000
  O   O12       1.0  0.6975758353071128  0.5057074188908075  0.21395472795515497  1.0000
  O   O13       1.0  0.9072124340132744  0.1549725605157235  0.8478360109694802  1.0000
  O   O14       1.0  0.4072061361665007  0.6549638401609242  0.6521692889552567  1.0000
  O   O15       1.0  0.09278320549905321  0.8450401658776131  0.1521613606216903  1.0000
  O   O16       1.0  0.5927864440319297  0.3450372089724495  0.34784019487634044  1.0000
  O   O17       1.0  0.8973466099402715  0.1104069298524379  0.0487673318341848  1.0000
  O   O18       1.0  0.39736427297902577  0.6103954668040146  0.4512367663247899  1.0000
  O   O19       1.0  0.1026755883526391  0.8896001468770152  0.9512285258616087  1.0000
  O   O20       1.0  0.6026587088284714  0.38959480884041403  0.5487704466299518  1.0000
  O   O21       1.0  0.6677987591025456  0.9475005096690127  0.1189033825326788  1.0000
  O   O22       1.0  0.16777888215224124  0.4475094909633198  0.3810936566169828  1.0000
  O   O23       1.0  0.3322061787242561  0.05251032319941371  0.8810917180635014  1.0000
  O   O24       1.0  0.8322536743339911  0.5524872762312684  0.6189059862230479  1.0000
  O   O25       1.0  0.1429686698967387  0.7604398705858132  0.7961048858691269  1.0000
  O   O26       1.0  0.6429812901798683  0.26043271470585694  0.703908845606861  1.0000
  O   O27       1.0  0.8570160312308772  0.2395655566328116  0.20391292506513278  1.0000
  O   O28       1.0  0.35702557363967463  0.7395554166828687  0.2960786849302153  1.0000
