data_image0
_chemical_formula_structural       Cu4H32C30S2I4N6
_chemical_formula_sum              "Cu4 H32 C30 S2 I4 N6"
_cell_length_a       9.704630192477943
_cell_length_b       10.079424919342175
_cell_length_c       10.839608846650142
_cell_angle_alpha    91.65220720818965
_cell_angle_beta     96.53819442358163
_cell_angle_gamma    116.86970829724362

_space_group_name_H-M_alt    "P 1"
_space_group_IT_number       1

loop_
  _space_group_symop_operation_xyz
  'x, y, z'

loop_
  _atom_site_type_symbol
  _atom_site_label
  _atom_site_symmetry_multiplicity
  _atom_site_fract_x
  _atom_site_fract_y
  _atom_site_fract_z
  _atom_site_occupancy
  Cu  Cu1       1.0  0.055741453629288173  0.15494847133321338  0.01770625252981259  1.0000
  Cu  Cu2       1.0  0.9442557699048564  0.8450501130877723  0.9822967243576809  1.0000
  Cu  Cu3       1.0  0.3634154430839516  0.0015459560273213993  0.9976589523406995  1.0000
  Cu  Cu4       1.0  0.6365848922785418  0.998454863509757  0.002340697526278719  1.0000
  H   H1        1.0  0.16050435846316452  0.4747432017019762  0.07054175178374317  1.0000
  H   H2        1.0  0.8394970156704389  0.5252576212086595  0.9294579980826254  1.0000
  H   H3        1.0  0.10301786489474546  0.6432027664008969  0.20250312912090598  1.0000
  H   H4        1.0  0.896984033731407  0.35679917199399824  0.7974957805423696  1.0000
  H   H5        1.0  0.023863262512186487  0.7589538357309138  0.3109764869731959  1.0000
  H   H6        1.0  0.9761402683874251  0.24105145951483556  0.6890272885333172  1.0000
  H   H7        1.0  0.9451401253519407  0.8946503510883091  0.4538238427882672  1.0000
  H   H8        1.0  0.0548576373737006  0.10534935141645721  0.546180140509257  1.0000
  H   H9        1.0  0.7640637200495987  0.7613627790226188  0.6059872251135869  1.0000
  H   H10       1.0  0.23593034755931802  0.2386335624836988  0.39401353895504326  1.0000
  H   H11       1.0  0.6590427018889926  0.4848363367253371  0.6071068965792461  1.0000
  H   H12       1.0  0.3409570840680303  0.5151611371330134  0.39289352728326304  1.0000
  H   H13       1.0  0.7390482516448672  0.3462341004987124  0.46036471935203566  1.0000
  H   H14       1.0  0.2609546681889439  0.6537656123750181  0.5396351474096404  1.0000
  H   H15       1.0  0.5953225199446879  0.08676501695134681  0.2720261928281572  1.0000
  H   H16       1.0  0.4046799178729685  0.9132380395273216  0.7279737232451563  1.0000
  H   H17       1.0  0.5403968870753602  0.8930136885048939  0.2576649948130622  1.0000
  H   H18       1.0  0.45960451197117896  0.1069893646002171  0.7423348212608613  1.0000
  H   H19       1.0  0.7692963805032919  0.12192614074886168  0.4706333295113222  1.0000
  H   H20       1.0  0.23070759566508042  0.8780758043931413  0.5293657801507405  1.0000
  H   H21       1.0  0.7421616820951441  0.9370839394911742  0.4494437133947852  1.0000
  H   H22       1.0  0.2578386459178788  0.06291687874614381  0.5505550131656276  1.0000
  H   H23       1.0  0.45948701065522357  0.836224230710144  0.4667546916152643  1.0000
  H   H24       1.0  0.5405149026698909  0.16377771028427188  0.5332460646611421  1.0000
  H   H25       1.0  0.5813805433122425  0.9459881424296483  0.6025081457767099  1.0000
  H   H26       1.0  0.41862293327652383  0.05401491742257041  0.39749187029600097  1.0000
  H   H27       1.0  0.5348446250078283  0.43578427085883936  0.8203899331730181  1.0000
  H   H28       1.0  0.46515044176030773  0.5642098412270331  0.17960901807433055  1.0000
  H   H29       1.0  0.47574199799131384  0.5805541025978302  0.8317002461716849  1.0000
  H   H30       1.0  0.5242488785654729  0.41943553820438956  0.16830001927610982  1.0000
  H   H31       1.0  0.3915091827832241  0.44053938112210733  0.7018657685211946  1.0000
  H   H32       1.0  0.6084884786702106  0.5594558518953647  0.2981316192152902  1.0000
  C   C1        1.0  0.8929012262468986  0.2257143291655836  0.21283827020083368  1.0000
  C   C2        1.0  0.10710070464165972  0.7742898407235472  0.7871616289765623  1.0000
  C   C3        1.0  0.0742301587719822  0.42940003067038657  0.13417727181971625  1.0000
  C   C4        1.0  0.925773832095359  0.570601917071137  0.8658236844554704  1.0000
  C   C5        1.0  0.041908154751723714  0.5231058292822297  0.20867950250649153  1.0000
  C   C6        1.0  0.9580942830659326  0.4768972271964387  0.791320413566822  1.0000
  C   C7        1.0  0.9316018121984654  0.45657324052898923  0.2901585301041151  1.0000
  C   C8        1.0  0.0684011648106875  0.5434309340334522  0.7098423923792294  1.0000
  C   C9        1.0  0.8875755683002424  0.5417561895953469  0.37672930161375  1.0000
  C   C10       1.0  0.1124263523743423  0.45824575269882933  0.6232723779692149  1.0000
  C   C11       1.0  0.9451978795760708  0.6970386988967548  0.37615629949138435  1.0000
  C   C12       1.0  0.05480195620680917  0.3029632353505463  0.6238442567862348  1.0000
  C   C13       1.0  0.8997816303195022  0.7745274490662551  0.45735265240808315  1.0000
  C   C14       1.0  0.10021611035770664  0.2254722495392231  0.542648560969752  1.0000
  C   C15       1.0  0.7971513353787928  0.6995765647138724  0.541132944596846  1.0000
  C   C16       1.0  0.2028458734563969  0.3004220171075858  0.45886818567751647  1.0000
  C   C17       1.0  0.7390615111760042  0.5447971768842379  0.542133893266161  1.0000
  C   C18       1.0  0.26093881397251545  0.45520141505788553  0.45786753700638616  1.0000
  C   C19       1.0  0.7835027597076518  0.4666371741066442  0.46070370859234067  1.0000
  C   C20       1.0  0.2164975756548415  0.533363645430434  0.5392959412746305  1.0000
  C   C21       1.0  0.6353212136407933  0.0033682300942957  0.2952454727526969  1.0000
  C   C22       1.0  0.3646801854057459  0.9966348230108155  0.7047543433212266  1.0000
  C   C23       1.0  0.6836213318378556  0.0075944155196623  0.43420018165692637  1.0000
  C   C24       1.0  0.31638160555940675  0.9924075262487831  0.5657988280057464  1.0000
  C   C25       1.0  0.5423248276798988  0.9517539578532991  0.5042795843864736  1.0000
  C   C26       1.0  0.45767918075088687  0.04825021878293969  0.4957205147897025  1.0000
  C   C27       1.0  0.3148004103315571  0.3687883979689773  0.8714558864776617  1.0000
  C   C28       1.0  0.6851935327127024  0.6311967925649498  0.12854454655320774  1.0000
  C   C29       1.0  0.4364177248462227  0.462074272478894  0.8019586885770448  1.0000
  C   C30       1.0  0.5635778341520492  0.5379187235969951  0.1980384329530977  1.0000
  S   S1        1.0  0.7846964413926473  0.029649222574135995  0.19840219828341074  1.0000
  S   S2        1.0  0.215305996425009  0.9703538339045322  0.80159771778991  1.0000
  I   I1        1.0  0.18398303167573724  0.014771899408678702  0.15583443131124133  1.0000
  I   I2        1.0  0.8160167791942143  0.985227804644147  0.8441660587588228  1.0000
  I   I3        1.0  0.6133692669221277  0.2486745105765493  0.9914172251335739  1.0000
  I   I4        1.0  0.38663211456096025  0.7513263136338464  0.008583448039360082  1.0000
  N   N1        1.0  0.00221382155736194  0.27958318055932113  0.13482037359267443  1.0000
  N   N2        1.0  0.9977891158399005  0.7204187612091246  0.8651786360699983  1.0000
  N   N3        1.0  0.8587526761269474  0.30662975499679856  0.29060259452291587  1.0000
  N   N4        1.0  0.1412513323038453  0.6933744216394403  0.7093975046532602  1.0000
  N   N5        1.0  0.2171492168212552  0.29237283108854234  0.9274122725256928  1.0000
  N   N6        1.0  0.7828499756334182  0.7076212892925042  0.07258338549297595  1.0000
