data_image0
_chemical_formula_structural       Cu8H16C32N16O16
_chemical_formula_sum              "Cu8 H16 C32 N16 O16"
_cell_length_a       15.075689844109732
_cell_length_b       15.07737121390075
_cell_length_c       15.0761185367948
_cell_angle_alpha    100.27445622032349
_cell_angle_beta     114.26484968263009
_cell_angle_gamma    114.25238453607595

_space_group_name_H-M_alt    "P 1"
_space_group_IT_number       1

loop_
  _space_group_symop_operation_xyz
  'x, y, z'

loop_
  _atom_site_type_symbol
  _atom_site_label
  _atom_site_symmetry_multiplicity
  _atom_site_fract_x
  _atom_site_fract_y
  _atom_site_fract_z
  _atom_site_occupancy
  Cu  Cu1       1.0  0.9571553511319306  0.5306015419165319  0.1010811364639323  1.0000
  Cu  Cu2       1.0  0.429533585235042  0.5734676189591994  0.0306221188612739  1.0000
  Cu  Cu3       1.0  0.07046894387697487  0.6010836201959365  0.6439398007399292  1.0000
  Cu  Cu4       1.0  0.5428553123109552  0.14392887597085044  0.07346228893554499  1.0000
  Cu  Cu5       1.0  0.4571587444488474  0.8560565097236575  0.926533104583811  1.0000
  Cu  Cu6       1.0  0.9295485340031321  0.3989048911027877  0.3560490122252558  1.0000
  Cu  Cu7       1.0  0.5704368014571984  0.4264899811252362  0.9693519387328281  1.0000
  Cu  Cu8       1.0  0.0428542886001466  0.4693840160490979  0.8989059937483646  1.0000
  H   H1        1.0  0.564821434261198  0.10945164750143012  0.28166425209774093  1.0000
  H   H2        1.0  0.8277684255257398  0.5446187704786423  0.6094191993598485  1.0000
  H   H3        1.0  0.9352065115893067  0.7168767571160185  0.044642411719891514  1.0000
  H   H4        1.0  0.1722437029335282  0.4553652585597732  0.39057912193324273  1.0000
  H   H5        1.0  0.47000411583245244  0.0819650168308498  0.7060404051884746  1.0000
  H   H6        1.0  0.12403800336128509  0.20607664860352767  0.7360407936513269  1.0000
  H   H7        1.0  0.0647796133012619  0.2831288951837649  0.9553342886167683  1.0000
  H   H8        1.0  0.6722371498680461  0.7816449770978621  0.21685826797687463  1.0000
  H   H9        1.0  0.375946341412437  0.6119863080639903  0.582035337356075  1.0000
  H   H10       1.0  0.43521128530549197  0.8905602833382886  0.7183527692674403  1.0000
  H   H11       1.0  0.9700084742917452  0.7639645854104982  0.8880293962560585  1.0000
  H   H12       1.0  0.5300044046012005  0.9180326931568175  0.29395999175192594  1.0000
  H   H13       1.0  0.029972301352856296  0.2360268510088943  0.1119596941780472  1.0000
  H   H14       1.0  0.3277367205240012  0.21832839744752158  0.7831210480384813  1.0000
  H   H15       1.0  0.6240763005857773  0.3880203858106626  0.4179805848893707  1.0000
  H   H16       1.0  0.8759316994179257  0.7939116653974453  0.26394801952183405  1.0000
  C   C1        1.0  0.3055354321833334  0.6962858961178924  0.7293216255583063  1.0000
  C   C2        1.0  0.9760307519247818  0.7044284609119772  0.9167136146145579  1.0000
  C   C3        1.0  0.033013757849800984  0.609272277691417  0.8036980518783423  1.0000
  C   C4        1.0  0.18567113735761615  0.5045073295674953  0.46250178931595093  1.0000
  C   C5        1.0  0.7498225523301089  0.3830545841618258  0.3784705771394953  1.0000
  C   C6        1.0  0.7501864871437646  0.6286489526302502  0.13323380742576763  1.0000
  C   C7        1.0  0.8143406181527199  0.49549924771297776  0.5375080278679718  1.0000
  C   C8        1.0  0.5239524595234715  0.9406939214442787  0.22839399049043152  1.0000
  C   C9        1.0  0.02395531033541696  0.29556464114178743  0.08324994127001163  1.0000
  C   C10       1.0  0.6856630171501692  0.7231621120662836  0.1811520304408916  1.0000
  C   C11       1.0  0.04202517473955686  0.3188652689756921  0.004499726007658481  1.0000
  C   C12       1.0  0.004557559484872723  0.6332521707769132  0.8830417916733779  1.0000
  C   C13       1.0  0.47607099067549535  0.05929025564454792  0.7716052862258919  1.0000
  C   C14       1.0  0.24982172258017232  0.3713564299782702  0.8667763765861877  1.0000
  C   C15       1.0  0.5045471968292503  0.12148521630967929  0.8713104525378482  1.0000
  C   C16       1.0  0.2122656704672181  0.27163365448102167  0.7955521254675091  1.0000
  C   C17       1.0  0.7122988734419948  0.41674837885180693  0.4406534544775765  1.0000
  C   C18       1.0  0.8055213588046188  0.5762185957551935  0.10924473984299254  1.0000
  C   C19       1.0  0.19446918410894654  0.4237943498468796  0.8907673679945276  1.0000
  C   C20       1.0  0.28771835610120194  0.5832514598848705  0.5593500752291334  1.0000
  C   C21       1.0  0.9669892878960056  0.39075222974454255  0.19629503614017801  1.0000
  C   C22       1.0  0.9579576530386118  0.6811459972095688  0.9954744848114246  1.0000
  C   C23       1.0  0.46699743831468493  0.770699274486567  0.07626236306435158  1.0000
  C   C24       1.0  0.7877090089523688  0.7283531794371212  0.204438182240551  1.0000
  C   C25       1.0  0.45798200434885666  0.9624732654678922  0.7768325792521366  1.0000
  C   C26       1.0  0.5420189896131191  0.03751194496204143  0.2231811519204996  1.0000
  C   C27       1.0  0.4954583375768919  0.8784909183970766  0.12868408409084955  1.0000
  C   C28       1.0  0.6944786880749234  0.30371975192285544  0.2707107929152812  1.0000
  C   C29       1.0  0.9954461698814897  0.3667797683370466  0.11693545750123487  1.0000
  C   C30       1.0  0.532999947418169  0.22930001133551045  0.9237482218489248  1.0000
  C   C31       1.0  0.25016606158970933  0.6169395590638516  0.6215234597391727  1.0000
  C   C32       1.0  0.3143232334208079  0.2768302486041846  0.8188553057564718  1.0000
  N   N1        1.0  0.4745784084121852  0.9671707955446962  0.8738165497333483  1.0000
  N   N2        1.0  0.8669503445474904  0.43862741211284356  0.43583178838437675  1.0000
  N   N3        1.0  0.36695524698919973  0.4311337099249641  0.9283271223788533  1.0000
  N   N4        1.0  0.9745542994536079  0.6007702200772723  0.007396792756985113  1.0000
  N   N5        1.0  0.497197025182473  0.935809468434492  0.06888560258078497  1.0000
  N   N6        1.0  0.09334999193190184  0.4925969986754097  0.46718058874382246  1.0000
  N   N7        1.0  0.002808348912829133  0.5717252522755913  0.9386286741347263  1.0000
  N   N8        1.0  0.025431328508759128  0.39925858015205046  0.9926028136793762  1.0000
  N   N9        1.0  0.5254317297076412  0.032816969533378336  0.12618994266063768  1.0000
  N   N10       1.0  0.4066504521724212  0.3738270753622146  0.8992605208949556  1.0000
  N   N11       1.0  0.5027928328799263  0.06417024669934068  0.9311059504642569  1.0000
  N   N12       1.0  0.9066514996865181  0.5074106256875691  0.532836949996394  1.0000
  N   N13       1.0  0.9971816332275338  0.42831943463248456  0.061365238707971025  1.0000
  N   N14       1.0  0.6330559491374218  0.5688737314189467  0.07169533822222719  1.0000
  N   N15       1.0  0.5933484268126465  0.6261731412168247  0.10075750778955944  1.0000
  N   N16       1.0  0.1330356575784322  0.5613576962519389  0.5641842788035945  1.0000
  O   O1        1.0  0.03578535423167045  0.6601675570018699  0.7449651384642522  1.0000
  O   O2        1.0  0.9480619009647596  0.4667756328984111  0.20479194629388073  1.0000
  O   O3        1.0  0.5357549616752664  0.29081228643399015  0.8756204742606855  1.0000
  O   O4        1.0  0.9642234152130698  0.3398550975385958  0.2550442625264607  1.0000
  O   O5        1.0  0.26201341162666847  0.5187598837139475  0.9668065593495783  1.0000
  O   O6        1.0  0.051930880835058764  0.5332406317482496  0.7952058704054821  1.0000
  O   O7        1.0  0.5519314751959358  0.2567255683343816  0.018704974101851218  1.0000
  O   O8        1.0  0.0848105566339825  0.375683635265041  0.839862701120424  1.0000
  O   O9        1.0  0.2379968069485517  0.7047998107965867  0.7567528770494079  1.0000
  O   O10       1.0  0.44808214598455015  0.7432698153561645  0.9812887708562457  1.0000
  O   O11       1.0  0.761999085255468  0.2952084751100513  0.2432447713697599  1.0000
  O   O12       1.0  0.7379911903450775  0.481239860519743  0.03320950563378492  1.0000
  O   O13       1.0  0.5848210271320228  0.24494605213972426  0.209151659393882  1.0000
  O   O14       1.0  0.4152017391761477  0.7550594010777374  0.7908613382410367  1.0000
  O   O15       1.0  0.4642454722702425  0.7091844091759893  0.1243912692695587  1.0000
  O   O16       1.0  0.9151714630133584  0.6243312228248712  0.16012673864521793  1.0000
