data_image0
_chemical_formula_structural       Cu6H8C16N14
_chemical_formula_sum              "Cu6 H8 C16 N14"
_cell_length_a       8.467434642239095
_cell_length_b       8.467483933119173
_cell_length_c       8.62303759535663
_cell_angle_alpha    63.7026251845851
_cell_angle_beta     63.702467449618986
_cell_angle_gamma    88.80109564599427

_space_group_name_H-M_alt    "P 1"
_space_group_IT_number       1

loop_
  _space_group_symop_operation_xyz
  'x, y, z'

loop_
  _atom_site_type_symbol
  _atom_site_label
  _atom_site_symmetry_multiplicity
  _atom_site_fract_x
  _atom_site_fract_y
  _atom_site_fract_z
  _atom_site_occupancy
  Cu  Cu1       1.0  0.7184213735884127  0.9145639385316998  0.40609690765320045  1.0000
  Cu  Cu2       1.0  0.08543897083764311  0.28157643331591237  0.09390256909478013  1.0000
  Cu  Cu3       1.0  0.2815795326755222  0.08543726579007682  0.5939006927047785  1.0000
  Cu  Cu4       1.0  0.9145632392328762  0.7184247637588683  0.9060932971226167  1.0000
  Cu  Cu5       1.0  0.9464751562717736  0.053526405281843416  0.7500015059664309  1.0000
  Cu  Cu6       1.0  0.05352446136436131  0.9464748214656851  0.24999897488920925  1.0000
  H   H1        1.0  0.6375583531375854  0.0998335790391849  0.056027407372432926  1.0000
  H   H2        1.0  0.9001691896713097  0.3624372222976505  0.4439825671183826  1.0000
  H   H3        1.0  0.36243951670801516  0.9001717113991531  0.9439743672187153  1.0000
  H   H4        1.0  0.09983002730493244  0.6375559139880025  0.5560216750450453  1.0000
  H   H5        1.0  0.4204658599258905  0.3026889778895381  0.06955489902365751  1.0000
  H   H6        1.0  0.697311490380393  0.5795304099691806  0.430451051211556  1.0000
  H   H7        1.0  0.5795362686621529  0.6973177012551093  0.9304455337255176  1.0000
  H   H8        1.0  0.30268858641848334  0.4204667755132903  0.569551016406223  1.0000
  C   C1        1.0  0.6453665741993575  0.2077159668325521  0.9209304820672345  1.0000
  C   C2        1.0  0.7922808682985474  0.3546320491777167  0.5790781401019134  1.0000
  C   C3        1.0  0.3546346793872672  0.7922866479365213  0.07907097887051143  1.0000
  C   C4        1.0  0.2077162839220463  0.6453637707089614  0.42092582793142713  1.0000
  C   C5        1.0  0.5252758034292738  0.3217184239698057  0.9273306475751611  1.0000
  C   C6        1.0  0.6782765121308499  0.4747162411219677  0.5726781968541277  1.0000
  C   C7        1.0  0.47472411599319736  0.6782841676887515  0.07267025478900987  1.0000
  C   C8        1.0  0.32172033830341457  0.5252782138536887  0.4273253496706745  1.0000
  C   C9        1.0  0.5409670620929247  0.4590290178234398  0.7500038410430891  1.0000
  C   C10       1.0  0.45903358792103444  0.5409708671235764  0.24999677687760166  1.0000
  C   C11       1.0  0.41757955235017613  0.5824197268068049  0.7500000759331514  1.0000
  C   C12       1.0  0.5824224014703673  0.4175801508932082  0.24999880784694997  1.0000
  C   C13       1.0  0.8360395841585558  0.865561288458544  0.03492624510957389  1.0000
  C   C14       1.0  0.13444046459918718  0.1639602120821095  0.46507290089662956  1.0000
  C   C15       1.0  0.1639650076327328  0.1344386051049966  0.9650714631035272  1.0000
  C   C16       1.0  0.8655564695298494  0.8360409532656308  0.5349253164547748  1.0000
  N   N1        1.0  0.46663793854371255  0.762311263987371  0.6273369567127605  1.0000
  N   N2        1.0  0.23768325678557287  0.5333582399817374  0.8726643268027988  1.0000
  N   N3        1.0  0.5333632543277602  0.23769129006667816  0.3726599187966642  1.0000
  N   N4        1.0  0.7623163304929931  0.4666429564082791  0.1273338613386769  1.0000
  N   N5        1.0  0.3140691471384187  0.8235643200248788  0.677245212477395  1.0000
  N   N6        1.0  0.1764305939879307  0.6859264801342776  0.8227537723217326  1.0000
  N   N7        1.0  0.6859317439467246  0.17643686911814174  0.32275124152350554  1.0000
  N   N8        1.0  0.823571917868918  0.31407608185153185  0.17724251540419544  1.0000
  N   N9        1.0  0.777504939966576  0.22249423122627837  0.7500048456298604  1.0000
  N   N10       1.0  0.22249442141959014  0.7775056761464825  0.24999865278848446  1.0000
  N   N11       1.0  0.7679571377752482  0.8759130390310119  0.18267297667517093  1.0000
  N   N12       1.0  0.12408135648188788  0.23203974696686203  0.3173307001905314  1.0000
  N   N13       1.0  0.23204584842312667  0.12408549686849572  0.817326044169981  1.0000
  N   N14       1.0  0.8759166555613406  0.7679601221166409  0.6826710932971592  1.0000
