data_image0
_chemical_formula_structural       Gd4H36C44O28
_chemical_formula_sum              "Gd4 H36 C44 O28"
_cell_length_a       10.372621217
_cell_length_b       10.372664096
_cell_length_c       14.057
_cell_angle_alpha    90.0
_cell_angle_beta     90.0
_cell_angle_gamma    90.0

_space_group_name_H-M_alt    "P 1"
_space_group_IT_number       1

loop_
  _space_group_symop_operation_xyz
  'x, y, z'

loop_
  _atom_site_type_symbol
  _atom_site_label
  _atom_site_symmetry_multiplicity
  _atom_site_fract_x
  _atom_site_fract_y
  _atom_site_fract_z
  _atom_site_occupancy
  Gd  Gd1       1.0  0.1302004548075644  0.1284838675643556  0.16505086433804905  1.0000
  Gd  Gd2       1.0  0.8697994278643293  0.8715157375515545  0.665050864338049  1.0000
  Gd  Gd3       1.0  0.8715164480492349  0.1302018447238424  0.9150515757273965  1.0000
  Gd  Gd4       1.0  0.1284834346226589  0.8697987244645448  0.4150508643380491  1.0000
  H   H1        1.0  0.23682827595920491  0.3648320204892528  0.0865753717009312  1.0000
  H   H2        1.0  0.7631725707891519  0.6351675846266573  0.5865753717009311  1.0000
  H   H3        1.0  0.6351673180933446  0.2368272969474958  0.8365753717009312  1.0000
  H   H4        1.0  0.3648335286550193  0.7631732722408984  0.3365753717009311  1.0000
  H   H5        1.0  0.8966566700379275  0.0077405379425102  0.3003279504873007  1.0000
  H   H6        1.0  0.1033441767104293  0.9922590671734  0.8003279504873004  1.0000
  H   H7        1.0  0.9922602768075208  0.8966558556144335  0.0503286618766481  1.0000
  H   H8        1.0  0.007739605864372801  0.10334374950147661  0.5503286618766481  1.0000
  H   H9        1.0  0.537731966039459  0.0780387750445115  0.1569061677456105  1.0000
  H   H10       1.0  0.4622688807089049  0.9219608300714058  0.6569061677456105  1.0000
  H   H11       1.0  0.9219607850257463  0.5377335994280301  0.9069054563562631  1.0000
  H   H12       1.0  0.0780390976461476  0.46226600568788  0.4069054563562631  1.0000
  H   H13       1.0  0.5395743161648738  0.9863705124651148  0.4554513765383774  1.0000
  H   H14       1.0  0.4604255665070269  0.013629092650802501  0.9554520879277248  1.0000
  H   H15       1.0  0.0136272208386785  0.539574013792496  0.2054506651490371  1.0000
  H   H16       1.0  0.9863716977567522  0.4604265553958983  0.7054499537596897  1.0000
  H   H17       1.0  0.40570844263578465  0.3213166809561727  0.9840449598065034  1.0000
  H   H18       1.0  0.594291440036109  0.6786838882322144  0.4840456711958439  1.0000
  H   H19       1.0  0.6786838015893579  0.405708693644371  0.7340456711958439  1.0000
  H   H20       1.0  0.3213160810825357  0.5942918755440232  0.23404567119584388  1.0000
  H   H21       1.0  0.44542260855219956  0.1892609248531443  0.0584015081454083  1.0000
  H   H22       1.0  0.5545782381961644  0.8107386802627659  0.5584015081454083  1.0000
  H   H23       1.0  0.810740103592849  0.4454207672435544  0.8084022195347487  1.0000
  H   H24       1.0  0.18926074315550784  0.5545798019448398  0.3084022195347487  1.0000
  H   H25       1.0  0.6045598184692693  0.3640752235923941  0.0835569467169393  1.0000
  H   H26       1.0  0.3954400642026243  0.6359243815235162  0.5835569467169393  1.0000
  H   H27       1.0  0.6359250821951649  0.6045582833843284  0.8335569467169393  1.0000
  H   H28       1.0  0.3640757645531992  0.39544132173158897  0.3335569467169393  1.0000
  H   H29       1.0  0.5109711315123988  0.3430536231643941  0.1887785444974028  1.0000
  H   H30       1.0  0.4890277870830317  0.656945017879039  0.6887785444974028  1.0000
  H   H31       1.0  0.6569458054471227  0.510971911453673  0.9387785444974027  1.0000
  H   H32       1.0  0.34305504130123415  0.4890286577347212  0.4387785444974028  1.0000
  H   H33       1.0  0.47986134804983754  0.47604452957308757  0.11128761471152868  1.0000
  H   H34       1.0  0.5201385346220562  0.5239550755428226  0.6112876147115287  1.0000
  H   H35       1.0  0.5239543492721738  0.4798612925217043  0.8612876147115287  1.0000
  H   H36       1.0  0.4760455333997201  0.5201392766666899  0.3612876147115287  1.0000
  C   C1        1.0  0.7961844771179758  0.959767896449968  0.4768684641104102  1.0000
  C   C2        1.0  0.2038154055539181  0.0402326727384263  0.97686846411041  1.0000
  C   C3        1.0  0.040233803131272304  0.7961850421035734  0.2268670413317224  1.0000
  C   C4        1.0  0.9597670436170915  0.2038145630123367  0.7268670413317223  1.0000
  C   C5        1.0  0.7264711438271761  0.9933928164099655  0.38755495482677554  1.0000
  C   C6        1.0  0.2735287388447177  0.0066067887059447  0.887555666216123  1.0000
  C   C7        1.0  0.006608744170435401  0.7264719969969775  0.1375549548267756  1.0000
  C   C8        1.0  0.9933911385014582  0.2735295362638936  0.6375549548267756  1.0000
  C   C9        1.0  0.7922635781331238  0.015049171413949103  0.302558156078824  1.0000
  C   C10       1.0  0.2077353404622997  0.9849504337019682  0.8025574446894765  1.0000
  C   C11       1.0  0.9849516131231937  0.792264159327118  0.0525574446894765  1.0000
  C   C12       1.0  0.015049233625170202  0.2077364098612762  0.5525574446894765  1.0000
  C   C13       1.0  0.7249479030118168  0.0484986301825785  0.22000284555737434  1.0000
  C   C14       1.0  0.27505294373654726  0.9515009749333316  0.7200028455573744  1.0000
  C   C15       1.0  0.9515000879261352  0.7249487624784621  0.9700021341680269  1.0000
  C   C16       1.0  0.0484997947457586  0.2750508426374481  0.47000213416802683  1.0000
  C   C17       1.0  0.5904920146858927  0.056021287744592  0.2217564202888269  1.0000
  C   C18       1.0  0.4095069039095307  0.9439783173713182  0.7217564202888268  1.0000
  C   C19       1.0  0.9439754711135536  0.5904943940450167  0.9717557088994795  1.0000
  C   C20       1.0  0.0560244115583401  0.4095061751433775  0.4717557088994795  1.0000
  C   C21       1.0  0.5238608338550322  0.0318577751040294  0.3062339048161036  1.0000
  C   C22       1.0  0.4761380847403985  0.9681418300118807  0.8062339048161036  1.0000
  C   C23       1.0  0.9681381195663121  0.5238625245847359  0.056233904816103596  1.0000
  C   C24       1.0  0.0318607990291184  0.4761380446036583  0.5562331934267633  1.0000
  C   C25       1.0  0.5918407576610178  0.0026714448422851  0.3893618837589798  1.0000
  C   C26       1.0  0.4081591250108758  0.9973281602736321  0.8893618837589796  1.0000
  C   C27       1.0  0.997325534556829  0.5918421673721568  0.1393618837589798  1.0000
  C   C28       1.0  0.0026743481150646  0.4081593658887144  0.6393611723696395  1.0000
  C   C29       1.0  0.7984934402526563  0.0742644312850231  0.1308579355481285  1.0000
  C   C30       1.0  0.2015064424192374  0.9257361379033711  0.6308572241587811  1.0000
  C   C31       1.0  0.9257361084643209  0.7984920675483878  0.8808558013800933  1.0000
  C   C32       1.0  0.0742628101311098  0.2015075375675224  0.3808558013800933  1.0000
  C   C33       1.0  0.3795009879998759  0.030917804435958405  0.3070527139503483  1.0000
  C   C34       1.0  0.6204988946720179  0.9690827647524358  0.8070527139503483  1.0000
  C   C35       1.0  0.9690877348847452  0.37950134734605  0.05705769367575189  1.0000
  C   C36       1.0  0.0309140759400748  0.6204992218423442  0.5570555595077167  1.0000
  C   C37       1.0  0.4138124694040854  0.2900171038181085  0.0587628939318492  1.0000
  C   C38       1.0  0.5861883773442713  0.7099825012978016  0.5587636053211895  1.0000
  C   C39       1.0  0.7099835081156058  0.41381172283938383  0.8087636053211895  1.0000
  C   C40       1.0  0.290017338632758  0.5861888463490033  0.3087636053211895  1.0000
  C   C41       1.0  0.5074059767432858  0.3736947387985694  0.11405207369993779  1.0000
  C   C42       1.0  0.4925939059286081  0.6263048663173478  0.6140527850892781  1.0000
  C   C43       1.0  0.6263045631467605  0.5074048432773992  0.8640527850892779  1.0000
  C   C44       1.0  0.37369531952513313  0.4925947618385109  0.3640520736999378  1.0000
  O   O1        1.0  0.7411993399893575  0.9866770875137761  0.5553980223376271  1.0000
  O   O2        1.0  0.2588015067589993  0.0133225176021341  0.0553980223376271  1.0000
  O   O3        1.0  0.0133235367520683  0.7411962759851463  0.3053973109482797  1.0000
  O   O4        1.0  0.9866773099962886  0.258803329130771  0.8053973109482795  1.0000
  O   O5        1.0  0.9059927865290334  0.9021414280260558  0.4748659031087712  1.0000
  O   O6        1.0  0.0940070961428603  0.09785817708986141  0.9748666144981113  1.0000
  O   O7        1.0  0.097857617545742  0.9059938616564267  0.2248680372767993  1.0000
  O   O8        1.0  0.9021422651261588  0.0940067075319675  0.7248680372767993  1.0000
  O   O9        1.0  0.9212367636002128  0.0792795363263608  0.1372476346304339  1.0000
  O   O10       1.0  0.0787631190716809  0.9207200687895494  0.6372476346304339  1.0000
  O   O11       1.0  0.9207190545382886  0.9212416320012693  0.8872469232410934  1.0000
  O   O12       1.0  0.0792798640571419  0.0787579731146408  0.3872469232410864  1.0000
  O   O13       1.0  0.7392374443822334  0.0884960692358661  0.0527096820089668  1.0000
  O   O14       1.0  0.2607624382896603  0.9115064280974892  0.5527089706196193  1.0000
  O   O15       1.0  0.9115044116818254  0.7392421010680366  0.8027103933983071  1.0000
  O   O16       1.0  0.0884954709900683  0.2607584681203576  0.3027103933983071  1.0000
  O   O17       1.0  0.32063062271562615  0.10322420451394979  0.2489755993455205  1.0000
  O   O18       1.0  0.6793702240327377  0.8967763646744444  0.7489755993455205  1.0000
  O   O19       1.0  0.8967733232902475  0.3206321894953206  0.9989755993455205  1.0000
  O   O20       1.0  0.1032265593816462  0.6793674156205896  0.4989734651774924  1.0000
  O   O21       1.0  0.3272441872683842  0.9540461262807298  0.3660574802589451  1.0000
  O   O22       1.0  0.6727556954035094  0.0459534788351803  0.8660581916482926  1.0000
  O   O23       1.0  0.0459517406476593  0.3272457267086253  0.1160581916482926  1.0000
  O   O24       1.0  0.9540481420242344  0.6727558065522459  0.6160560574802574  1.0000
  O   O25       1.0  0.2867336941915468  0.2875394375443179  0.1008920822366051  1.0000
  O   O26       1.0  0.7132661884803468  0.7124601675715923  0.6008927936259525  1.0000
  O   O27       1.0  0.7124602205552578  0.2867325088785009  0.8508906594579244  1.0000
  O   O28       1.0  0.287539662116636  0.7132680603098933  0.3508913708472647  1.0000
