data_image0
_chemical_formula_structural       Ag4H24C20N12O8
_chemical_formula_sum              "Ag4 H24 C20 N12 O8"
_cell_length_a       6.510473055846909
_cell_length_b       7.708758634092416
_cell_length_c       15.393267070662546
_cell_angle_alpha    90.0002625136884
_cell_angle_beta     90.00118751645374
_cell_angle_gamma    101.74125182897302

_space_group_name_H-M_alt    "P 1"
_space_group_IT_number       1

loop_
  _space_group_symop_operation_xyz
  'x, y, z'

loop_
  _atom_site_type_symbol
  _atom_site_label
  _atom_site_symmetry_multiplicity
  _atom_site_fract_x
  _atom_site_fract_y
  _atom_site_fract_z
  _atom_site_occupancy
  Ag  Ag1       1.0  0.7725652503230122  0.0392693524267287  0.7491016083750777  1.0000
  Ag  Ag2       1.0  0.22742571026732614  0.46073764942145357  0.24909896461229408  1.0000
  Ag  Ag3       1.0  0.2274372063532866  0.9607323197371759  0.2508988763411678  1.0000
  Ag  Ag4       1.0  0.7725614471582745  0.5392652620782244  0.7509054178946355  1.0000
  H   H1        1.0  0.7559567895714991  0.05653952542658662  0.5334613859376205  1.0000
  H   H2        1.0  0.24402224203081596  0.4434377009033597  0.0334506258475216  1.0000
  H   H3        1.0  0.24406315051417948  0.9434663168420273  0.4665494930160178  1.0000
  H   H4        1.0  0.7559407255730973  0.5565434928510626  0.9665576541738188  1.0000
  H   H5        1.0  0.7967826660731914  0.5131198724099306  0.5351653967985397  1.0000
  H   H6        1.0  0.203239325984967  0.9868719516831067  0.03516648996502169  1.0000
  H   H7        1.0  0.2032283739390266  0.48688908582270335  0.4648240442277468  1.0000
  H   H8        1.0  0.7968082459109594  0.013132450568633672  0.9648294474314836  1.0000
  H   H9        1.0  0.8154061785992326  0.9099538809595418  0.38199058775558825  1.0000
  H   H10       1.0  0.18461522298996158  0.5900565897114093  0.8819861215614961  1.0000
  H   H11       1.0  0.18458159221651013  0.09008037365381943  0.6180001527768295  1.0000
  H   H12       1.0  0.8153983299434839  0.4099082686088735  0.11800851605155317  1.0000
  H   H13       1.0  0.009316575855862746  0.6626856762603526  0.37476417076683066  1.0000
  H   H14       1.0  0.9906990830013594  0.8373195459429681  0.8747594662998565  1.0000
  H   H15       1.0  0.9906585550081812  0.3373331081802249  0.625221372488447  1.0000
  H   H16       1.0  0.009318681799754794  0.16265481447377533  0.1252377699673204  1.0000
  H   H17       1.0  0.8114397810512556  0.6452905256982505  0.29317604841226336  1.0000
  H   H18       1.0  0.1885929561303996  0.8547229419492981  0.7931691037296529  1.0000
  H   H19       1.0  0.18852161633392933  0.3547166011749354  0.7068224873773161  1.0000
  H   H20       1.0  0.8114327652954926  0.14526647004947085  0.20682943199234666  1.0000
  H   H21       1.0  0.7669275481034744  0.5038942991347214  0.3849001849822215  1.0000
  H   H22       1.0  0.23308981320958821  0.9961195281331359  0.8848972510242418  1.0000
  H   H23       1.0  0.23303774974234415  0.4961196947609992  0.6150983508925306  1.0000
  H   H24       1.0  0.7669351255267498  0.003876332119197888  0.11510323367265578  1.0000
  C   C1        1.0  0.7801670827975543  0.9266431676903507  0.5540854242210925  1.0000
  C   C2        1.0  0.2198223450025125  0.5733105946110443  0.05407209045200999  1.0000
  C   C3        1.0  0.21980696754614826  0.07334032104546402  0.4459092135206078  1.0000
  C   C4        1.0  0.7801868270387542  0.4266825527028075  0.9459173503927258  1.0000
  C   C5        1.0  0.8029862853287212  0.6494251874327477  0.5550970838748697  1.0000
  C   C6        1.0  0.1970440849716368  0.8505869220378987  0.05508079536738109  1.0000
  C   C7        1.0  0.19702584486339697  0.35059299330119853  0.4449098973934652  1.0000
  C   C8        1.0  0.8029725771140334  0.1494173237124556  0.9449235872148873  1.0000
  C   C9        1.0  0.5026991183468255  0.7534938653209124  0.3902132139121618  1.0000
  C   C10       1.0  0.49732278043062184  0.7465161039710182  0.890212245291927  1.0000
  C   C11       1.0  0.4972694577149994  0.24652172487524382  0.6097989643153525  1.0000
  C   C12       1.0  0.502694980218159  0.2534712923642886  0.10979408600719148  1.0000
  C   C13       1.0  0.742400588547028  0.7787960296645623  0.40783143126355265  1.0000
  C   C14       1.0  0.2576219081080993  0.7212089130515553  0.9078237161404841  1.0000
  C   C15       1.0  0.257577669354923  0.22120999724469206  0.5921697030868315  1.0000
  C   C16       1.0  0.742385703216918  0.278784094336011  0.09217741812357617  1.0000
  C   C17       1.0  0.8392046956896451  0.6382460359665317  0.3631228407613206  1.0000
  C   C18       1.0  0.16082274806242217  0.8617610123894935  0.8631211378837164  1.0000
  C   C19       1.0  0.16076716195507856  0.36175811540356057  0.636867899400137  1.0000
  C   C20       1.0  0.8392045343546284  0.1382285392583356  0.1368747993043513  1.0000
  N   N1        1.0  0.8002037612313798  0.8809173927327765  0.6360454599111518  1.0000
  N   N2        1.0  0.19977546459774936  0.6190730384066826  0.13604151788636895  1.0000
  N   N3        1.0  0.1998005586548217  0.11911312688232563  0.3639439813437804  1.0000
  N   N4        1.0  0.8002196667492284  0.38089278030768264  0.8639505211611149  1.0000
  N   N5        1.0  0.8139307992080729  0.7045302193418835  0.6368055265817956  1.0000
  N   N6        1.0  0.1860790668206178  0.795470722807636  0.1367996476246987  1.0000
  N   N7        1.0  0.1860991251917383  0.2954947671845361  0.3631943088180519  1.0000
  N   N8        1.0  0.8139224604349022  0.20451000756246882  0.8632053842969327  1.0000
  N   N9        1.0  0.7841631832015707  0.7855825466946912  0.5015374965781019  1.0000
  N   N10       1.0  0.2158639582994937  0.7144067553280566  0.0015273184347179996  1.0000
  N   N11       1.0  0.2158228843583032  0.21441114198685093  0.49845973984152175  1.0000
  N   N12       1.0  0.7841600374987081  0.2856072719554846  0.9984699182911141  1.0000
  O   O1        1.0  0.4573744377721241  0.7536823967506835  0.3100904310770218  1.0000
  O   O2        1.0  0.5426462107690141  0.7463236528385054  0.8100850961288086  1.0000
  O   O3        1.0  0.5425665148823029  0.2463085615261917  0.6899217468170916  1.0000
  O   O4        1.0  0.4573827799005983  0.25369342797110767  0.18992318443098805  1.0000
  O   O5        1.0  0.3793422009078852  0.7369718057489009  0.4544278639271296  1.0000
  O   O6        1.0  0.6206653140411404  0.7630365266980307  0.9544284209528155  1.0000
  O   O7        1.0  0.620647914531112  0.26305613930947663  0.5455895115606992  1.0000
  O   O8        1.0  0.3793519797130784  0.23694691680857727  0.04558115847426339  1.0000
