data_image0
_chemical_formula_structural       Cd2H34C34N4O10
_chemical_formula_sum              "Cd2 H34 C34 N4 O10"
_cell_length_a       8.750404624272257
_cell_length_b       10.603549749954805
_cell_length_c       10.91407215628264
_cell_angle_alpha    60.659835304200705
_cell_angle_beta     69.98498268815197
_cell_angle_gamma    85.11799434512068

_space_group_name_H-M_alt    "P 1"
_space_group_IT_number       1

loop_
  _space_group_symop_operation_xyz
  'x, y, z'

loop_
  _atom_site_type_symbol
  _atom_site_label
  _atom_site_symmetry_multiplicity
  _atom_site_fract_x
  _atom_site_fract_y
  _atom_site_fract_z
  _atom_site_occupancy
  Cd  Cd1       1.0  0.22433369439382037  0.9166210051679684  0.6670221922476645  1.0000
  Cd  Cd2       1.0  0.775665546460793  0.0833770003435106  0.3329780606928381  1.0000
  H   H1        1.0  0.9705427530701982  0.7540188114185468  0.024764563859655225  1.0000
  H   H2        1.0  0.02945541430750611  0.24598029435566096  0.9752363787032367  1.0000
  H   H3        1.0  0.38246666542285374  0.5817281302152536  0.8423139712961004  1.0000
  H   H4        1.0  0.617532697972905  0.41827095773633266  0.15768481231202003  1.0000
  H   H5        1.0  0.20925007699017328  0.3691549945927548  0.13544815297523627  1.0000
  H   H6        1.0  0.7907494282196695  0.6308451856341861  0.8645509837564519  1.0000
  H   H7        1.0  0.9106449288174473  0.3566845431191084  0.3062807806897755  1.0000
  H   H8        1.0  0.08935323856024986  0.6433145626550925  0.6937201618731168  1.0000
  H   H9        1.0  0.8152444383617662  0.5188399678570406  0.2592356749745053  1.0000
  H   H10       1.0  0.18475481212931302  0.4811580425720621  0.7407654891939759  1.0000
  H   H11       1.0  0.9568841304862944  0.2560548832061542  0.5315367325528018  1.0000
  H   H12       1.0  0.043116193481701356  0.7439420269602268  0.46846374199328994  1.0000
  H   H13       1.0  0.9911742425737772  0.7236733118729931  0.2706157681294033  1.0000
  H   H14       1.0  0.008826213571836727  0.2763246856511189  0.7293841483122778  1.0000
  H   H15       1.0  0.7359762538535647  0.10439597340113241  0.837326730840147  1.0000
  H   H16       1.0  0.2640246084613552  0.8956052911137962  0.1626724225162731  1.0000
  H   H17       1.0  0.6645450416851729  0.0201247333933026  0.7576886677873775  1.0000
  H   H18       1.0  0.3354532578701424  0.9798754597386293  0.2423117166711039  1.0000
  H   H19       1.0  0.505071421227548  0.7892177726743342  0.9123729161920342  1.0000
  H   H20       1.0  0.4949293089097537  0.21078240448286323  0.08762679526879681  1.0000
  H   H21       1.0  0.3562169600399798  0.588890003473992  0.16833891462847822  1.0000
  H   H22       1.0  0.6437839119113987  0.41111126595856723  0.8316611499559204  1.0000
  H   H23       1.0  0.40024939178076135  0.5722688835984898  0.38865343674369524  1.0000
  H   H24       1.0  0.5997539203890766  0.4277323747769516  0.6113468660710242  1.0000
  H   H25       1.0  0.7579183397782143  0.9451795659628174  0.09609611964493377  1.0000
  H   H26       1.0  0.2420826547143093  0.0548227859098418  0.9039024756070834  1.0000
  H   H27       1.0  0.5753895233192806  0.6380528865479392  0.4867337147193996  1.0000
  H   H28       1.0  0.4246137695776255  0.3619483619922549  0.5132647656393703  1.0000
  H   H29       1.0  0.7317742372313489  0.7861475065082361  0.36567274492290414  1.0000
  H   H30       1.0  0.26822799182510687  0.21385484721230344  0.6343273362862264  1.0000
  H   H31       1.0  0.37549928687585776  0.0833612697038291  0.3839345779242579  1.0000
  H   H32       1.0  0.6245000957928397  0.9166378280830119  0.6160660281398125  1.0000
  H   H33       1.0  0.19507559179734105  0.11221500992564869  0.3797515630273837  1.0000
  H   H34       1.0  0.8049227077579746  0.8877851832062833  0.6202488214310977  1.0000
  C   C1        1.0  0.0617350390516975  0.6808431200137192  0.013079281848320206  1.0000
  C   C2        1.0  0.9382643436169998  0.3191559777731143  0.9869213242157503  1.0000
  C   C3        1.0  0.2727767145627595  0.5869637537541126  0.9241073400649925  1.0000
  C   C4        1.0  0.727216591650972  0.41303538396955725  0.07589494849320029  1.0000
  C   C5        1.0  0.18939727538401743  0.48114269996275283  0.0684336998158202  1.0000
  C   C6        1.0  0.8106033033027418  0.5188563800014663  0.9315647472934787  1.0000
  C   C7        1.0  0.9293812178783797  0.47167121309621507  0.2716420955652198  1.0000
  C   C8        1.0  0.07061680768524073  0.5283268004026311  0.7283584938741117  1.0000
  C   C9        1.0  0.9750802563426005  0.3632650185632614  0.5179270172502513  1.0000
  C   C10       1.0  0.024917901398637844  0.6367340822933159  0.4820730140846691  1.0000
  C   C11       1.0  0.9691290491038346  0.4874530740194203  0.38795973401186534  1.0000
  C   C12       1.0  0.030869118273869813  0.5125460317547805  0.6120412085510338  1.0000
  C   C13       1.0  0.9948184939318594  0.624592280493424  0.37069464682639375  1.0000
  C   C14       1.0  0.0051808887368381155  0.37540681729340963  0.6293059592376767  1.0000
  C   C15       1.0  0.9042298867346404  0.9724349597960115  0.7700132333320938  1.0000
  C   C16       1.0  0.09577096594380662  0.02756629980129331  0.22998500879635497  1.0000
  C   C17       1.0  0.7307963171412553  0.004153873990496499  0.8322860506203681  1.0000
  C   C18       1.0  0.2692045451736647  0.9958473905244318  0.1677131027360517  1.0000
  C   C19       1.0  0.642504020489767  0.8797315617648351  0.9871643427218405  1.0000
  C   C20       1.0  0.35749806675260487  0.12026969968034962  0.012835385363729324  1.0000
  C   C21       1.0  0.5299325638689041  0.7782041055857151  0.008325887506401822  1.0000
  C   C22       1.0  0.4700672249690996  0.22179825919193522  0.9916739554724077  1.0000
  C   C23       1.0  0.4453607514271384  0.6664095135397261  0.15229122444573323  1.0000
  C   C24       1.0  0.5546412132740882  0.3335906654653584  0.8477099729722186  1.0000
  C   C25       1.0  0.47184494131142424  0.6556141885629998  0.2759343809735882  1.0000
  C   C26       1.0  0.5281594539717888  0.3443859744673432  0.724066143446713  1.0000
  C   C27       1.0  0.5856695679484716  0.7548402468175084  0.2567422084940745  1.0000
  C   C28       1.0  0.41433279328559547  0.24516319426076186  0.743257314610645  1.0000
  C   C29       1.0  0.6708573909109745  0.8660284649543258  0.11179541588136027  1.0000
  C   C30       1.0  0.3291448188725496  0.1339738789309664  0.8882028428718274  1.0000
  C   C31       1.0  0.6059740692102835  0.7487065889720909  0.39137394025135575  1.0000
  C   C32       1.0  0.3940269445551791  0.25129577273581566  0.6086264774566033  1.0000
  C   C33       1.0  0.4919252497805573  0.8472311267712057  0.43615138399877673  1.0000
  C   C34       1.0  0.508074142524606  0.15276797593325142  0.563850133293265  1.0000
  N   N1        1.0  0.19164037976075582  0.710872637598854  0.8910748515147304  1.0000
  N   N2        1.0  0.8083577779804755  0.28912646325772334  0.10892517982019016  1.0000
  N   N3        1.0  0.05576978577776971  0.5425193638708236  0.12260159543838986  1.0000
  N   N4        1.0  0.9442283719634688  0.4574797369857535  0.8773984358965311  1.0000
  O   O1        1.0  0.018661450690991902  0.016408992832353402  0.7913347470585992  1.0000
  O   O2        1.0  0.9813392794463099  0.9835911843248439  0.20866496440223173  1.0000
  O   O3        1.0  0.9306724477663124  0.8982570614714831  0.701800866245762  1.0000
  O   O4        1.0  0.06932705744353028  0.1017431187554578  0.2981982704859264  1.0000
  O   O5        1.0  0.5337936410176667  0.9851619020865316  0.3555430395249177  1.0000
  O   O6        1.0  0.466208172233017  0.014837179725567798  0.644456893541495  1.0000
  O   O7        1.0  0.35967884291358143  0.7892117147470402  0.5459764349611547  1.0000
  O   O8        1.0  0.6403198692305735  0.21078194133352213  0.45402605039699045  1.0000
  O   O9        1.0  0.27205978404455083  0.11822567439308074  0.42744156412045714  1.0000
  O   O10       1.0  0.727939721165292  0.8817745058338604  0.5725575726112242  1.0000
