data_image0
_chemical_formula_structural       CoH30C32N4O4
_chemical_formula_sum              "Co1 H30 C32 N4 O4"
_cell_length_a       8.579052185684901
_cell_length_b       8.816926495697636
_cell_length_c       10.343558982894109
_cell_angle_alpha    79.2248425078321
_cell_angle_beta     74.7364458875464
_cell_angle_gamma    64.68298224559346

_space_group_name_H-M_alt    "P 1"
_space_group_IT_number       1

loop_
  _space_group_symop_operation_xyz
  'x, y, z'

loop_
  _atom_site_type_symbol
  _atom_site_label
  _atom_site_symmetry_multiplicity
  _atom_site_fract_x
  _atom_site_fract_y
  _atom_site_fract_z
  _atom_site_occupancy
  Co  Co1       1.0  0.9999994923364358  0.5000025351962593  0.4999988901407162  1.0000
  H   H1        1.0  0.8936483154713388  0.22986049263488437  0.1423183891226356  1.0000
  H   H2        1.0  0.10635921049080131  0.7701302381412841  0.857684287215484  1.0000
  H   H3        1.0  0.4249129134339287  0.5937289555901941  0.3642311277550758  1.0000
  H   H4        1.0  0.575083292690778  0.40626309254505333  0.6357659882846955  1.0000
  H   H5        1.0  0.6214185578786557  0.6614221695819749  0.46494019757592026  1.0000
  H   H6        1.0  0.37857375703200813  0.3385761243532954  0.5350597171668309  1.0000
  H   H7        1.0  0.3870600820890291  0.423642213033652  0.2294984309591469  1.0000
  H   H8        1.0  0.6129415879059581  0.5763510684157538  0.7705012287322073  1.0000
  H   H9        1.0  0.7754693195435893  0.9285718534242875  0.12651428668704054  1.0000
  H   H10       1.0  0.2245330156666796  0.07142267912069397  0.8734860172392868  1.0000
  H   H11       1.0  0.29447168181760464  0.4455442828254946  0.040986080780420805  1.0000
  H   H12       1.0  0.7055305206950565  0.554447739447994  0.9590136521954089  1.0000
  H   H13       1.0  0.0703104263043599  0.31617079800481923  0.24947205186771254  1.0000
  H   H14       1.0  0.9296886829071627  0.6838312314357468  0.7505316949965741  1.0000
  H   H15       1.0  0.8759482997252237  0.6320841127527926  0.07575487502077742  1.0000
  H   H16       1.0  0.1240575114326675  0.3679079143596198  0.9242450691910018  1.0000
  H   H17       1.0  0.878190746284581  0.021187914905311796  0.3577199677341552  1.0000
  H   H18       1.0  0.12181106240402087  0.9788191916174611  0.6422815027640066  1.0000
  H   H19       1.0  0.29549042463691  0.7748764914228942  0.18982386512000446  1.0000
  H   H20       1.0  0.7045108592572124  0.22513188881578117  0.8101765614324701  1.0000
  H   H21       1.0  0.1033089488729432  0.9593560209951588  0.1683886697224678  1.0000
  H   H22       1.0  0.896692319574804  0.0406523301635531  0.8316136981524164  1.0000
  H   H23       1.0  0.146563638331884  0.7682025117383019  0.10471298640015896  1.0000
  H   H24       1.0  0.8534389991623714  0.231808414311466  0.8952858166386473  1.0000
  H   H25       1.0  0.5334109933057789  0.979419807514553  0.618092362647111  1.0000
  H   H26       1.0  0.46658908513220615  0.020588566264493097  0.38190831704712  1.0000
  H   H27       1.0  0.6401507106964248  0.11793285187913938  0.5340575499411739  1.0000
  H   H28       1.0  0.35984816228541694  0.8820755154402703  0.4659433828948065  1.0000
  H   H29       1.0  0.6948796698224345  0.9935882619570078  0.6852413159926695  1.0000
  H   H30       1.0  0.30511975112344925  0.006418875266440703  0.3147577488053769  1.0000
  C   C1        1.0  0.6431936346665739  0.4013339372025726  0.24837406112673202  1.0000
  C   C2        1.0  0.35680787946123627  0.5986567903553989  0.7516279395977388  1.0000
  C   C3        1.0  0.8287941415560457  0.3244357838976696  0.21494969579878623  1.0000
  C   C4        1.0  0.17120924324319037  0.6755562012154995  0.7850526960189081  1.0000
  C   C5        1.0  0.4896395267108818  0.19334850413349608  0.06249686705547924  1.0000
  C   C6        1.0  0.5103638735347291  0.8066435100596435  0.9375035834398057  1.0000
  C   C7        1.0  0.5497361957229431  0.0213728632804759  0.03393238091359049  1.0000
  C   C8        1.0  0.45026375946779523  0.9786217145051666  0.9660645466514161  1.0000
  C   C9        1.0  0.5676197175758164  0.5283024955387531  0.3373398825574368  1.0000
  C   C10       1.0  0.4323788762916083  0.4716895218958114  0.6626596391824432  1.0000
  C   C11       1.0  0.6754952843190339  0.5668783245499043  0.392818592355084  1.0000
  C   C12       1.0  0.3244987685654408  0.43311871666907115  0.6071811425303932  1.0000
  C   C13       1.0  0.5301614449639873  0.3539843573144523  0.19620382406688447  1.0000
  C   C14       1.0  0.46984036545180896  0.6460114489464316  0.8037954359137626  1.0000
  C   C15       1.0  0.8009219868305807  0.8536797467715401  0.5118983473789026  1.0000
  C   C16       1.0  0.19907622865915897  0.1463273839922792  0.4881009705608929  1.0000
  C   C17       1.0  0.7037104838156485  0.8941412547742188  0.0726161062870714  1.0000
  C   C18       1.0  0.29628663747320877  0.10585703591961962  0.9273847372110846  1.0000
  C   C19       1.0  0.3364960849174069  0.3142863991683456  0.02340624403132097  1.0000
  C   C20       1.0  0.6635085053379658  0.6857055924044672  0.9765958946446243  1.0000
  C   C21       1.0  0.9267475261323387  0.3719310424781525  0.27366544683675875  1.0000
  C   C22       1.0  0.07325145810474964  0.6280684912309128  0.7263367584158257  1.0000
  C   C23       1.0  0.0560358635615047  0.7679894701526564  0.31906573408275557  1.0000
  C   C24       1.0  0.9439647551173284  0.23201765899044344  0.6809340482347462  1.0000
  C   C25       1.0  0.7589697235235494  0.7298669376259567  0.043776443776145826  1.0000
  C   C26       1.0  0.24103619716239436  0.27012755613799294  0.9562269833697452  1.0000
  C   C27       1.0  0.9089827323288238  0.8894821629336744  0.393554815643874  1.0000
  C   C28       1.0  0.09102025864635982  0.11052490642878611  0.6064493136961457  1.0000
  C   C29       1.0  0.15470828688831537  0.8222882058403939  0.18904239585902613  1.0000
  C   C30       1.0  0.8452899286014316  0.1777189249234254  0.8109569220807697  1.0000
  C   C31       1.0  0.6584274865243747  0.9954509700406005  0.5904399523679371  1.0000
  C   C32       1.0  0.3415719344215021  0.004556167182855103  0.4095591124301093  1.0000
  N   N1        1.0  0.8524004572758914  0.489491987234814  0.3638859844546472  1.0000
  N   N2        1.0  0.14759559897763116  0.510508821810866  0.636114712474544  1.0000
  N   N3        1.0  0.5969120525408942  0.23179841843766977  0.11931627936262856  1.0000
  N   N4        1.0  0.40308908493642565  0.7681961221876604  0.8806833070442432  1.0000
  O   O1        1.0  0.8136767003996898  0.7049696317828732  0.5634677806054921  1.0000
  O   O2        1.0  0.1863185871064844  0.29503877431756814  0.43653002901092436  1.0000
  O   O3        1.0  0.11706017725289557  0.6083354261952036  0.35234898913733287  1.0000
  O   O4        1.0  0.8829387188985011  0.3916729847441474  0.6476490317150262  1.0000
