data_image0
_chemical_formula_structural       La4H44C44O36
_chemical_formula_sum              "La4 H44 C44 O36"
_cell_length_a       7.918417735001065
_cell_length_b       12.391507538077075
_cell_length_c       12.997065709432999
_cell_angle_alpha    89.66397789483588
_cell_angle_beta     89.99994735516327
_cell_angle_gamma    89.99997086593942

_space_group_name_H-M_alt    "P 1"
_space_group_IT_number       1

loop_
  _space_group_symop_operation_xyz
  'x, y, z'

loop_
  _atom_site_type_symbol
  _atom_site_label
  _atom_site_symmetry_multiplicity
  _atom_site_fract_x
  _atom_site_fract_y
  _atom_site_fract_z
  _atom_site_occupancy
  La  La1       1.0  0.9341631680177116  0.5244737352148476  0.6848029603896393  1.0000
  La  La2       1.0  0.43416420894245533  0.4755263482042053  0.8151957628995204  1.0000
  La  La3       1.0  0.0658359525148811  0.4755261878883913  0.31519546515520597  1.0000
  La  La4       1.0  0.565832385828685  0.524472748912018  0.1848088202123108  1.0000
  H   H1        1.0  0.4465629001037143  0.9261961631884645  0.9035714690247473  1.0000
  H   H2        1.0  0.9465712004485595  0.0738047446970569  0.5964203204005756  1.0000
  H   H3        1.0  0.5534336946717602  0.0738037599151724  0.0964269565207942  1.0000
  H   H4        1.0  0.0534354973589402  0.9262008512238254  0.40357039523934907  1.0000
  H   H5        1.0  0.6359795989259139  0.7661461429574601  0.8983919923489411  1.0000
  H   H6        1.0  0.13598873788492938  0.233854062498203  0.6015976634408773  1.0000
  H   H7        1.0  0.3640169958495533  0.23385378014617692  0.1016064331966007  1.0000
  H   H8        1.0  0.8640192228002944  0.7661507216646014  0.3983945932787378  1.0000
  H   H9        1.0  0.06419233072828232  0.9782116471117488  0.858623855948153  1.0000
  H   H10       1.0  0.5641980795242887  0.021786957357640798  0.6413689218406589  1.0000
  H   H11       1.0  0.935803001169468  0.021789087749972694  0.1413730285176982  1.0000
  H   H12       1.0  0.43580356676659443  0.9782129704883857  0.358627964874735  1.0000
  H   H13       1.0  0.5646802775130553  0.11288483147380647  0.8847239041532617  1.0000
  H   H14       1.0  0.0646825492231287  0.8871169700711474  0.6152788667473956  1.0000
  H   H15       1.0  0.43531884301662427  0.8871150797714902  0.11527836846344999  1.0000
  H   H16       1.0  0.9353190970625533  0.1128885950198608  0.38472185128078  1.0000
  H   H17       1.0  0.11209623237338918  0.1340378964062623  0.7950159363569681  1.0000
  H   H18       1.0  0.6121024599549829  0.8659622833429096  0.7049845044888343  1.0000
  H   H19       1.0  0.8879003623991722  0.8659620148394324  0.20498633626043977  1.0000
  H   H20       1.0  0.3878966605763735  0.13403925141815168  0.2950146859677858  1.0000
  H   H21       1.0  0.11536950139902298  0.15770528484039656  0.9302871971400819  1.0000
  H   H22       1.0  0.6153709018806948  0.8422932845960532  0.5697117075644229  1.0000
  H   H23       1.0  0.8846321448902542  0.8422914030888649  0.0697135456523768  1.0000
  H   H24       1.0  0.38462695577424444  0.1577058338642772  0.4302859508176907  1.0000
  H   H25       1.0  0.18167792492387488  0.8246720011886097  0.9389836107328335  1.0000
  H   H26       1.0  0.6816874591463674  0.175326545065431  0.5610160265862874  1.0000
  H   H27       1.0  0.8183174069718006  0.17532953357304848  0.0610155797248382  1.0000
  H   H28       1.0  0.3183205015341599  0.8246725615353583  0.43898547886490047  1.0000
  H   H29       1.0  0.17544445920499643  0.8288763286609963  0.8010655455988882  1.0000
  H   H30       1.0  0.6754449475534442  0.17112302419382522  0.698934862345041  1.0000
  H   H31       1.0  0.8245571870843946  0.1711244014565594  0.1989328776939558  1.0000
  H   H32       1.0  0.32455543585512464  0.828876080036565  0.3010674125226203  1.0000
  H   H33       1.0  0.9080693416217115  0.5723728223220519  0.9618238689248457  1.0000
  H   H34       1.0  0.4080632643806012  0.4276312972458811  0.5381771658335524  1.0000
  H   H35       1.0  0.0919386190595759  0.42762871243762374  0.038175321529323  1.0000
  H   H36       1.0  0.5919409076679826  0.5723686329713401  0.4618189514667748  1.0000
  H   H37       1.0  0.23518133048209922  0.6777308230826123  0.6322597846956483  1.0000
  H   H38       1.0  0.7351801768452688  0.3222725437272089  0.8677413482559615  1.0000
  H   H39       1.0  0.7648140014106628  0.3222706998210967  0.36774325283388987  1.0000
  H   H40       1.0  0.26481768080571294  0.6777306003202808  0.1322593765271591  1.0000
  H   H41       1.0  0.1143352917320968  0.6784835993253038  0.5346606524857407  1.0000
  H   H42       1.0  0.6143352535803999  0.3215206100525094  0.9653413146914999  1.0000
  H   H43       1.0  0.8856663545548926  0.3215187377068886  0.46534007454762627  1.0000
  H   H44       1.0  0.3856638669473184  0.6784841432810182  0.0346609444174248  1.0000
  C   C1        1.0  0.581946011147977  0.9375012678776925  0.8929166810710997  1.0000
  C   C2        1.0  0.081950229863395  0.06249893556336159  0.6070791600207244  1.0000
  C   C3        1.0  0.41805184650372235  0.06249864573938879  0.10708482213158992  1.0000
  C   C4        1.0  0.9180526793040825  0.9375058343706968  0.39291771318653457  1.0000
  C   C5        1.0  0.6869064127424096  0.8472803829099789  0.8905023398121017  1.0000
  C   C6        1.0  0.18691308006870594  0.15271899954903026  0.6094872899681434  1.0000
  C   C7        1.0  0.3130901820333918  0.15271873317895768  0.10949608798474489  1.0000
  C   C8        1.0  0.8130923548594637  0.8472841682131641  0.3905057406691483  1.0000
  C   C9        1.0  0.8606721929642945  0.8624835696495691  0.8763658684658537  1.0000
  C   C10       1.0  0.36067506260140186  0.13751575827720325  0.6236236648850451  1.0000
  C   C11       1.0  0.13932313893436535  0.1375163605690375  0.12363024883692468  1.0000
  C   C12       1.0  0.6393253208122686  0.862486600099494  0.37637013741931474  1.0000
  C   C13       1.0  0.9293222357532898  0.9663168622207505  0.8678396795358481  1.0000
  C   C14       1.0  0.4293289656740454  0.033680825388422896  0.6321513590483434  1.0000
  C   C15       1.0  0.07067309614595271  0.03368307036944879  0.1321556683525529  1.0000
  C   C16       1.0  0.5706739434959118  0.9663207212299908  0.3678439843353587  1.0000
  C   C17       1.0  0.8203791224122766  0.0553731159459758  0.8709341392998339  1.0000
  C   C18       1.0  0.3203825892472949  0.9446261985383728  0.6290638799694291  1.0000
  C   C19       1.0  0.1796187352397496  0.9446259906564047  0.1290673661541462  1.0000
  C   C20       1.0  0.6796177941631427  0.055376954995082876  0.3709337671554991  1.0000
  C   C21       1.0  0.6457937351618809  0.041876213227581595  0.88262682832692  1.0000
  C   C22       1.0  0.1457972087331925  0.9581231513036385  0.6173728266563216  1.0000
  C   C23       1.0  0.35420538536721585  0.9581236956461223  0.1173762137041692  1.0000
  C   C24       1.0  0.8542044375554737  0.04188080924432569  0.3826248182169536  1.0000
  C   C25       1.0  0.052687832942986304  0.1799623712180604  0.8575661032380139  1.0000
  C   C26       1.0  0.552692929910755  0.8200354085028677  0.6424336079159971  1.0000
  C   C27       1.0  0.9473100247094378  0.8200343119686121  0.1424361783842372  1.0000
  C   C28       1.0  0.44730619062249133  0.1799629005709633  0.3575648221314438  1.0000
  C   C29       1.0  0.08527512049407449  0.2986474393968663  0.8345082365985093  1.0000
  C   C30       1.0  0.5852764905348663  0.70135032772621  0.6654922258867657  1.0000
  C   C31       1.0  0.9147227371544558  0.7013516529759797  0.1654978853417148  1.0000
  C   C32       1.0  0.4147188413632747  0.2986479837198104  0.3345054347473493  1.0000
  C   C33       1.0  0.13500705410115194  0.782953347670272  0.869991799883131  1.0000
  C   C34       1.0  0.6350164497167939  0.21704763427460694  0.6300078565818765  1.0000
  C   C35       1.0  0.8649895406727524  0.21704899410589454  0.1300073883228876  1.0000
  C   C36       1.0  0.36499151096339943  0.7829522793408897  0.36999364661800627  1.0000
  C   C37       1.0  0.21897716233311829  0.6734271199206101  0.8631610607715388  1.0000
  C   C38       1.0  0.7189864583733795  0.32656897935421375  0.6368431790887711  1.0000
  C   C39       1.0  0.7810156438009912  0.32656954666573046  0.1368466067527336  1.0000
  C   C40       1.0  0.2810265538223007  0.6734293226026721  0.363157559197937  1.0000
  C   C41       1.0  0.7772692461666394  0.555625556800784  0.9367740822577701  1.0000
  C   C42       1.0  0.2772719574436522  0.4443745497684688  0.5632331916564794  1.0000
  C   C43       1.0  0.22273492587677876  0.44437273567113056  0.0632297336888783  1.0000
  C   C44       1.0  0.722727163091598  0.5556245758064334  0.4367621584821677  1.0000
  O   O1        1.0  0.8754254368314349  0.1599908817937603  0.8626504374018751  1.0000
  O   O2        1.0  0.3754289763193838  0.8400067895280612  0.6373514028941756  1.0000
  O   O3        1.0  0.12457368369773289  0.84000741067895  0.1373533785461802  1.0000
  O   O4        1.0  0.6245688813330901  0.15999555224790635  0.362647785311502  1.0000
  O   O5        1.0  0.9621813565702765  0.3626045261158382  0.8181958629670589  1.0000
  O   O6        1.0  0.4621887823163108  0.6373947177786761  0.6818105411668185  1.0000
  O   O7        1.0  0.0378202897131033  0.6373937544985253  0.1818118000521665  1.0000
  O   O8        1.0  0.5378027609389451  0.36260841441185226  0.31819403068992363  1.0000
  O   O9        1.0  0.2402732493692881  0.3227903759812634  0.8327696892369828  1.0000
  O   O10       1.0  0.7402809508367199  0.6772065520842504  0.6672253035818372  1.0000
  O   O11       1.0  0.7597283969150085  0.6772070999899852  0.1672372066191627  1.0000
  O   O12       1.0  0.25971059243236283  0.3227869362468496  0.33276621524613864  1.0000
  O   O13       1.0  0.9566055400377067  0.7703551859049965  0.8730797261493065  1.0000
  O   O14       1.0  0.4566095925219216  0.2296449023284523  0.6269151376128762  1.0000
  O   O15       1.0  0.04339231761767338  0.22964716772892046  0.1269156149844974  1.0000
  O   O16       1.0  0.5433945795242677  0.770356634803406  0.3730832834279667  1.0000
  O   O17       1.0  0.14437520176172572  0.5941226638134508  0.8204247402343512  1.0000
  O   O18       1.0  0.6443818426382605  0.4058774986907919  0.6795779909414107  1.0000
  O   O19       1.0  0.855617604371467  0.40587480741600485  0.17958369445299383  1.0000
  O   O20       1.0  0.3556235922862284  0.5941232290545739  0.32042120176475214  1.0000
  O   O21       1.0  0.3682973744312861  0.6656012870910782  0.8980654902009633  1.0000
  O   O22       1.0  0.8683105056599841  0.3343947487209249  0.601944052694428  1.0000
  O   O23       1.0  0.6316891173062587  0.33439455588041495  0.1019475654769693  1.0000
  O   O24       1.0  0.13169871789666127  0.6656003062050216  0.39806284991350793  1.0000
  O   O25       1.0  0.7490869245215491  0.5478723387822201  0.8402604358513274  1.0000
  O   O26       1.0  0.2490920088800976  0.45213504924979725  0.6597437557827134  1.0000
  O   O27       1.0  0.25091093312909857  0.4521316122799703  0.1597402866804956  1.0000
  O   O28       1.0  0.7509083745313133  0.547865683239543  0.34025389809610834  1.0000
  O   O29       1.0  0.1155236046007104  0.6739856590040816  0.6107453142712913  1.0000
  O   O30       1.0  0.6155236781680813  0.32601209625473615  0.8892559008424854  1.0000
  O   O31       1.0  0.8844742530515788  0.3260142569845854  0.3892554195170206  1.0000
  O   O32       1.0  0.3844767052408145  0.6739862009609535  0.1107463762764738  1.0000
  O   O33       1.0  0.6620007186272829  0.5443075219231729  0.0022730233478114002  1.0000
  O   O34       1.0  0.1619876072457771  0.45567928422200754  0.4977297035969528  1.0000
  O   O35       1.0  0.33801481932853505  0.4556819004999825  0.9977285091168541  1.0000
  O   O36       1.0  0.8380153019259565  0.5443149945208886  0.5022671988771776  1.0000
