data_image0
_chemical_formula_structural       Bi4H36C40Cl8O16
_chemical_formula_sum              "Bi4 H36 C40 Cl8 O16"
_cell_length_a       8.724990553
_cell_length_b       9.963633736
_cell_length_c       14.452
_cell_angle_alpha    90.0
_cell_angle_beta     90.0
_cell_angle_gamma    90.0

_space_group_name_H-M_alt    "P 1"
_space_group_IT_number       1

loop_
  _space_group_symop_operation_xyz
  'x, y, z'

loop_
  _atom_site_type_symbol
  _atom_site_label
  _atom_site_symmetry_multiplicity
  _atom_site_fract_x
  _atom_site_fract_y
  _atom_site_fract_z
  _atom_site_occupancy
  Bi  Bi1       1.0  0.3654834902833883  0.7581450904509663  0.1776349294215365  1.0000
  Bi  Bi2       1.0  0.865484031659328  0.24185252728563708  0.8223650705784635  1.0000
  Bi  Bi3       1.0  0.3654846364164328  0.2581457797577187  0.822367146415722  1.0000
  Bi  Bi4       1.0  0.8654828855262835  0.7418538452786834  0.1776349294215365  1.0000
  H   H1        1.0  0.9991689901603918  0.11623670948636539  0.14006781068363947  1.0000
  H   H2        1.0  0.4991684487844523  0.8837649228498278  0.859932881262111  1.0000
  H   H3        1.0  0.9991678440273474  0.6162360201796133  0.859932881262111  1.0000
  H   H4        1.0  0.49916730265140785  0.3837686231062775  0.1400608912261276  1.0000
  H   H5        1.0  0.012317491846801  0.04534590611932289  0.026897315250487  1.0000
  H   H6        1.0  0.5123180332227475  0.954653718917072  0.973104068641021  1.0000
  H   H7        1.0  0.012317491846801  0.5453472241123761  0.973104068641021  1.0000
  H   H8        1.0  0.5123180332227475  0.4546594264733201  0.0268917796844761  1.0000
  H   H9        1.0  0.2094191379235042  0.9901919582163146  0.31370675339053367  1.0000
  H   H10       1.0  0.7094208254324954  0.0098066631701812  0.6862946305009672  1.0000
  H   H11       1.0  0.2094156995243708  0.4901916438731675  0.6862960143924752  1.0000
  H   H12       1.0  0.7094185331664062  0.5098069775133283  0.31370675339053367  1.0000
  H   H13       1.0  0.23769653243772376  0.06429581987597287  0.4762143647937975  1.0000
  H   H14       1.0  0.7376936354145298  0.93570280151053  0.5237856352062025  1.0000
  H   H15       1.0  0.23768850950639828  0.5642941269193216  0.5237870190977034  1.0000
  H   H16       1.0  0.7376947815475743  0.4357024871673758  0.47621367284804705  1.0000
  H   H17       1.0  0.4050250803750046  0.9365318163276937  0.5847751176307767  1.0000
  H   H18       1.0  0.9050210372187664  0.0634668050588019  0.4152241904234728  1.0000
  H   H19       1.0  0.4050193497097752  0.43653250563444596  0.4152269582064747  1.0000
  H   H20       1.0  0.9050233294848624  0.5634661157520497  0.5847751176307767  1.0000
  H   H21       1.0  0.5443341137334556  0.733567711706577  0.528880431774148  1.0000
  H   H22       1.0  0.0443324262244644  0.2664299060300195  0.471119568225852  1.0000
  H   H23       1.0  0.5443318214673596  0.2335714119630268  0.4711216440631034  1.0000
  H   H24       1.0  0.0443324262244644  0.7664302203731665  0.528880431774148  1.0000
  H   H25       1.0  0.5173461188961355  0.6595535498516013  0.3670370882922782  1.0000
  H   H26       1.0  0.017347869786284796  0.3404440678849951  0.6329622197619713  1.0000
  H   H27       1.0  0.5173472650291799  0.1595562464581519  0.6329649875449732  1.0000
  H   H28       1.0  0.0173455775201887  0.8404453858780414  0.36703778023802863  1.0000
  H   H29       1.0  0.0205077585944764  0.3806743704654351  0.2016814281760304  1.0000
  H   H30       1.0  0.5205105922365121  0.6193252545709598  0.7983164959867182  1.0000
  H   H31       1.0  0.0205089047275209  0.8806746848085892  0.7983164959867182  1.0000
  H   H32       1.0  0.5205071538373716  0.1193269475276111  0.2016821201217809  1.0000
  H   H33       1.0  0.0266590546530736  0.4373956445482107  0.3182742872958784  1.0000
  H   H34       1.0  0.5266641805612053  0.5626019731883858  0.6817229449211197  1.0000
  H   H35       1.0  0.026664785318310198  0.9373989698410553  0.6817222529753693  1.0000
  H   H36       1.0  0.5266584498959759  0.0626046697949363  0.3182742872958784  1.0000
  C   C1        1.0  0.1981010740929321  0.9942446965113944  0.1168703293661792  1.0000
  C   C2        1.0  0.6981027616019233  0.005752921225202099  0.8831317464710793  1.0000
  C   C3        1.0  0.1981022202259766  0.494247393117945  0.8831317464710793  1.0000
  C   C4        1.0  0.6980993232027828  0.5057532355683563  0.1168668696374198  1.0000
  C   C5        1.0  0.0779427778023418  0.0925545864525361  0.0832251591475242  1.0000
  C   C6        1.0  0.5779456114443775  0.9074450385838658  0.9167769166897343  1.0000
  C   C7        1.0  0.0779439239353863  0.5925549007956832  0.9167762247439766  1.0000
  C   C8        1.0  0.577939880779148  0.4074497424902147  0.0832237752560232  1.0000
  C   C9        1.0  0.3624806217025167  0.8200722965635947  0.3285441461389453  1.0000
  C   C10       1.0  0.8624800169454119  0.179925321173009  0.6714558538610547  1.0000
  C   C11       1.0  0.3624794755694651  0.32007499317014515  0.6714593135898141  1.0000
  C   C12       1.0  0.8624800169454119  0.6799246318662568  0.3285434541931949  1.0000
  C   C13       1.0  0.2839223704543983  0.9338199542986485  0.3601771381123697  1.0000
  C   C14       1.0  0.7839217656973003  0.0661776634379478  0.6398221699418798  1.0000
  C   C15       1.0  0.2839200781883093  0.43382265090519917  0.6398242457791312  1.0000
  C   C16       1.0  0.7839217656973003  0.5661759704812965  0.3601778300581202  1.0000
  C   C17       1.0  0.2990960258521653  0.9755657682276748  0.4522121505673979  1.0000
  C   C18       1.0  0.799094274962016  0.024432853158827993  0.5477871574868516  1.0000
  C   C19       1.0  0.2990891490538914  0.4755654538845278  0.5477885413783525  1.0000
  C   C20       1.0  0.799094274962016  0.5244321638520758  0.4522121505673979  1.0000
  C   C21       1.0  0.3931064428282625  0.9040687603212019  0.5130653196789368  1.0000
  C   C22       1.0  0.8931035458050687  0.09592986106530077  0.4869339883753128  1.0000
  C   C23       1.0  0.3931018582960774  0.4040694496279471  0.48693606421256413  1.0000
  C   C24       1.0  0.8931046919381131  0.595931179058347  0.5130660116246872  1.0000
  C   C25       1.0  0.47075695670383766  0.7900882558094082  0.4818924716302249  1.0000
  C   C26       1.0  0.9707574980797773  0.2099103655770946  0.5181068364240247  1.0000
  C   C27       1.0  0.4707546644377416  0.2900899487660595  0.5181089122612761  1.0000
  C   C28       1.0  0.9707563519467328  0.7099106799202415  0.4818931635759753  1.0000
  C   C29       1.0  0.455443473074439  0.7483273871318871  0.390074038195408  1.0000
  C   C30       1.0  0.9554440144503857  0.2516702306047094  0.6099245779130911  1.0000
  C   C31       1.0  0.4554446192074835  0.24833008373843768  0.6099273456961001  1.0000
  C   C32       1.0  0.9554440144503857  0.7516705449478565  0.39007473014115845  1.0000
  C   C33       1.0  0.2001102453228043  0.5202098087239477  0.2318066703570452  1.0000
  C   C34       1.0  0.7001142250978916  0.4797908199623534  0.7681947135344557  1.0000
  C   C35       1.0  0.2001136837219448  0.0202074870809952  0.7681940215887053  1.0000
  C   C36       1.0  0.7001084944326619  0.9797891270057021  0.2318066703570452  1.0000
  C   C37       1.0  0.0972952342863138  0.40501488783348794  0.2593834763354579  1.0000
  C   C38       1.0  0.59730150632749  0.5949867445027053  0.7406165236645421  1.0000
  C   C39       1.0  0.0973021110845878  0.9050131948768365  0.7406165236645421  1.0000
  C   C40       1.0  0.5972934833961645  0.094985426509659  0.2593827843897074  1.0000
  Cl  Cl1       1.0  0.1564872754538982  0.24511338580983014  0.0403342097979547  1.0000
  Cl  Cl2       1.0  0.6564866706968004  0.7548842319267663  0.9596657902020453  1.0000
  Cl  Cl3       1.0  0.1564861293208537  0.7451167111026749  0.9596657902020453  1.0000
  Cl  Cl4       1.0  0.6564832322976599  0.2548879321832159  0.04033075006919519  1.0000
  Cl  Cl5       1.0  0.19865809475335536  0.2581156702607217  0.2924245779130885  1.0000
  Cl  Cl6       1.0  0.6986609283953911  0.7418859620754716  0.7075740381954034  1.0000
  Cl  Cl7       1.0  0.1986592408863999  0.7581139773040703  0.7075740381954034  1.0000
  Cl  Cl8       1.0  0.6986574899962503  0.2418856477323246  0.2924252698588461  1.0000
  O   O1        1.0  0.1433388371486544  0.8920681184702274  0.1616772765015213  1.0000
  O   O2        1.0  0.6433405246576456  0.10793050291626828  0.8383247993357301  1.0000
  O   O3        1.0  0.14334112941474325  0.3920678041270803  0.8383261832272382  1.0000
  O   O4        1.0  0.643339378524594  0.6079318209093215  0.1616758926100204  1.0000
  O   O5        1.0  0.3387132607248304  0.0062286512776737  0.1012268198173274  1.0000
  O   O6        1.0  0.8387149482338216  0.9937679628090236  0.8987752560199311  1.0000
  O   O7        1.0  0.338714406857882  0.5062329802204174  0.8987752560199311  1.0000
  O   O8        1.0  0.8387138021007772  0.49377065941557413  0.1012240520343184  1.0000
  O   O9        1.0  0.342838193557867  0.5192723997176074  0.2434680321062856  1.0000
  O   O10       1.0  0.842844465599043  0.4807302362684921  0.7565326598394719  1.0000
  O   O11       1.0  0.3428439242231035  0.0192700780746549  0.7565326598394719  1.0000
  O   O12       1.0  0.8428364426677248  0.9807285433118408  0.2434694159977866  1.0000
  O   O13       1.0  0.1333227804584851  0.6239691426569748  0.195815112095211  1.0000
  O   O14       1.0  0.6333267602335724  0.3760314860293263  0.804184887904789  1.0000
  O   O15       1.0  0.1333262188576256  0.1239678246639215  0.8041855798505395  1.0000
  O   O16       1.0  0.6333233218344319  0.8760328040223726  0.195815112095211  1.0000
