data_image0
_chemical_formula_structural       Li4H12C12O12
_chemical_formula_sum              "Li4 H12 C12 O12"
_cell_length_a       6.286833488726885
_cell_length_b       7.949314761039596
_cell_length_c       8.548525139681713
_cell_angle_alpha    114.05301087634197
_cell_angle_beta     111.54716066859812
_cell_angle_gamma    89.97989014764337

_space_group_name_H-M_alt    "P 1"
_space_group_IT_number       1

loop_
  _space_group_symop_operation_xyz
  'x, y, z'

loop_
  _atom_site_type_symbol
  _atom_site_label
  _atom_site_symmetry_multiplicity
  _atom_site_fract_x
  _atom_site_fract_y
  _atom_site_fract_z
  _atom_site_occupancy
  Li  Li1       1.0  0.6015462169840404  0.5526116585077502  0.2027210074915544  1.0000
  Li  Li2       1.0  0.39845559299185845  0.4473888318145852  0.7972782156243524  1.0000
  Li  Li3       1.0  0.7833390249019204  0.43661363853594537  0.5667589489830289  1.0000
  Li  Li4       1.0  0.2166641874959083  0.5633854508431  0.43324012836421116  1.0000
  H   H1        1.0  0.664468556254583  0.0191839567078134  0.32839767576334805  1.0000
  H   H2        1.0  0.33553465614323835  0.9808151326712318  0.671601401583892  1.0000
  H   H3        1.0  0.984764840962157  0.6686604635390339  0.9701728189841176  1.0000
  H   H4        1.0  0.015231185395315098  0.331337224678812  0.02982725878408842  1.0000
  H   H5        1.0  0.3539460184635317  0.7911929165511891  0.34928446197606167  1.0000
  H   H6        1.0  0.004627703718071494  0.20901530900774645  0.6508655608502847  1.0000
  H   H7        1.0  0.6460554841842807  0.20880617438550078  0.6507141455062635  1.0000
  H   H8        1.0  0.9953754954423463  0.7909837777025928  0.3491346816683531  1.0000
  H   H9        1.0  0.5699457264307028  0.7447009276736837  0.48935244822432356  1.0000
  H   H10       1.0  0.08063638452194509  0.2553009388313683  0.5106698265787485  1.0000
  H   H11       1.0  0.4300578065326092  0.2552995637597135  0.5106460795850936  1.0000
  H   H12       1.0  0.9193650916510521  0.7446981467679021  0.48933111124637174  1.0000
  C   C1        1.0  0.5828419150828879  0.1775315338185379  0.16550922929035033  1.0000
  C   C2        1.0  0.4171595875649317  0.8224675571181519  0.8344893781919819  1.0000
  C   C3        1.0  0.5943237374596108  0.0125874021854102  0.18847227479746206  1.0000
  C   C4        1.0  0.4056797822662901  0.9874130865792736  0.8115274181833524  1.0000
  C   C5        1.0  0.48366872112472237  0.16383060102999988  0.9675145940958599  1.0000
  C   C6        1.0  0.5163330888511694  0.8361698892923285  0.03248462902003971  1.0000
  C   C7        1.0  0.9914730019916147  0.8112128062327528  0.9834889890676519  1.0000
  C   C8        1.0  0.008521595469105088  0.18878627759096384  0.016513564812001367  1.0000
  C   C9        1.0  0.9189103487691879  0.0377171500330107  0.8374054132978014  1.0000
  C   C10       1.0  0.08108394136345952  0.9622805344050673  0.1625965249482844  1.0000
  C   C11       1.0  0.9107143311913646  0.8392306644515557  0.8216652152186013  1.0000
  C   C12       1.0  0.08928340491612369  0.16076702220865255  0.17833533241451244  1.0000
  O   O1        1.0  0.6492527801453534  0.3428647470856775  0.29808252122195006  1.0000
  O   O2        1.0  0.35074730684312516  0.6571357421255896  0.7019173972004322  1.0000
  O   O3        1.0  0.4787504595032672  0.3187955077018856  0.9581139376476243  1.0000
  O   O4        1.0  0.5212513504726316  0.6812049826204498  0.04188528546827531  1.0000
  O   O5        1.0  0.827750871361971  0.7056777613498112  0.6557546495043239  1.0000
  O   O6        1.0  0.17224749263908018  0.29432272675038706  0.344245964224548  1.0000
  O   O7        1.0  0.8424267926018628  0.05318217059651428  0.6840094511559867  1.0000
  O   O8        1.0  0.15757123759629366  0.9468169127806261  0.31599287728209885  1.0000
  O   O9        1.0  0.4287905002571506  0.6882244306578112  0.37097504271535775  1.0000
  O   O10       1.0  0.05766980745069357  0.3119229919404275  0.6290382430201688  1.0000
  O   O11       1.0  0.5712130327061614  0.31177606077558545  0.629023485094059  1.0000
  O   O12       1.0  0.94233510145974  0.6880760932122669  0.3709624693633769  1.0000
