data_image0
_chemical_formula_structural       Co2H8C24N8O16
_chemical_formula_sum              "Co2 H8 C24 N8 O16"
_cell_length_a       7.907952491201454
_cell_length_b       7.912939748962273
_cell_length_c       12.779724840864635
_cell_angle_alpha    90.86136835805435
_cell_angle_beta     108.04746240602846
_cell_angle_gamma    118.34076457417024

_space_group_name_H-M_alt    "P 1"
_space_group_IT_number       1

loop_
  _space_group_symop_operation_xyz
  'x, y, z'

loop_
  _atom_site_type_symbol
  _atom_site_label
  _atom_site_symmetry_multiplicity
  _atom_site_fract_x
  _atom_site_fract_y
  _atom_site_fract_z
  _atom_site_occupancy
  Co  Co1       1.0  0.7516325586658327  0.5013611916111671  0.24999291793820086  1.0000
  Co  Co2       1.0  0.2484062450076792  0.49868139989543186  0.7500077834534624  1.0000
  H   H1        1.0  0.060826217574096085  0.4747579897923373  0.1385614311608521  1.0000
  H   H2        1.0  0.8357108499713205  0.9219792278237549  0.36155965324306294  1.0000
  H   H3        1.0  0.9391939477764384  0.525255277357374  0.8614382667032459  1.0000
  H   H4        1.0  0.16428364738282403  0.07802587024773538  0.6384270852904949  1.0000
  H   H5        1.0  0.40103700682663407  0.5469195658611952  0.281310668754216  1.0000
  H   H6        1.0  0.7649139561697355  0.1191084548259198  0.21867387851104783  1.0000
  H   H7        1.0  0.5989780391628727  0.4530965801634181  0.7186927794503861  1.0000
  H   H8        1.0  0.2350635062590598  0.8808849557635908  0.7813140401565449  1.0000
  C   C1        1.0  0.15517536304857066  0.4268625074817791  0.1156349935534564  1.0000
  C   C2        1.0  0.8107465932632393  0.0392236958013257  0.3844150857035515  1.0000
  C   C3        1.0  0.8448269712947296  0.5731376090053928  0.884365704209259  1.0000
  C   C4        1.0  0.1892511851064498  0.9607679286426035  0.6155759696702532  1.0000
  C   C5        1.0  0.34436646949265554  0.4678198068025027  0.19637940159312003  1.0000
  C   C6        1.0  0.7708275244560243  0.1475212302510229  0.30363103220973653  1.0000
  C   C7        1.0  0.6556298759630864  0.5321790381472269  0.8036169790487976  1.0000
  C   C8        1.0  0.2291680193009071  0.8524687962612488  0.6963642566013704  1.0000
  C   C9        1.0  0.3931096319332  0.31504574769905963  0.06137203366778013  1.0000
  C   C10       1.0  0.7532027956691894  0.3314485961601576  0.43861465216161133  1.0000
  C   C11       1.0  0.6068814493418274  0.6849385000963225  0.9386207217097322  1.0000
  C   C12       1.0  0.2468065630816342  0.6685645062901387  0.5613931156139459  1.0000
  C   C13       1.0  0.20327225285505796  0.2752708503497204  0.9835790879724869  1.0000
  C   C14       1.0  0.7912390351207961  0.2194964421493211  0.5164130092397771  1.0000
  C   C15       1.0  0.7967127782645209  0.7247219857350303  0.016423596999587193  1.0000
  C   C16       1.0  0.2087647321364515  0.7804964538320577  0.48358236325482556  1.0000
  C   C17       1.0  0.1243888111294709  0.160901001847968  0.8663000994458657  1.0000
  C   C18       1.0  0.7943729511374615  0.258099814503396  0.6337822858345562  1.0000
  C   C19       1.0  0.8756362230773932  0.8391336958218928  0.13371970068966024  1.0000
  C   C20       1.0  0.20560887466460542  0.7418893062197611  0.3662001457159364  1.0000
  C   C21       1.0  0.5434783713842322  0.2728847030941282  0.03758300078639821  1.0000
  C   C22       1.0  0.7350345332608228  0.5056627336478671  0.4623682020833543  1.0000
  C   C23       1.0  0.45655887986859506  0.7271135177417845  0.9624197577880126  1.0000
  C   C24       1.0  0.2649646648866125  0.4943683324961087  0.5376355544440301  1.0000
  N   N1        1.0  0.4600257433303767  0.4117127291151519  0.16657544393326162  1.0000
  N   N2        1.0  0.744594745284864  0.2929667096020267  0.33339059137852445  1.0000
  N   N3        1.0  0.5399766599673299  0.5882727812364479  0.833420317556353  1.0000
  N   N4        1.0  0.2554021556879746  0.7070332853936065  0.6666153087457972  1.0000
  N   N5        1.0  0.0865921666842269  0.3335843164612697  0.010966964118395595  1.0000
  N   N6        1.0  0.8222366364227939  0.07555603809429812  0.48909858619910557  1.0000
  N   N7        1.0  0.9134134008939584  0.666407020517994  0.9890302965834794  1.0000
  N   N8        1.0  0.1777676297576889  0.9244573864718788  0.5109011533381604  1.0000
  O   O1        1.0  0.7203585507175987  0.35051251938998707  0.12428623685637775  1.0000
  O   O2        1.0  0.7264719843295141  0.5959660512455544  0.37568472166700684  1.0000
  O   O3        1.0  0.2796163398456529  0.6494983064829968  0.8757116585969416  1.0000
  O   O4        1.0  0.2735305124598995  0.40402217243239136  0.624318148777924  1.0000
  O   O5        1.0  0.5130978514705334  0.18204107824241336  0.9489675975624297  1.0000
  O   O6        1.0  0.7323987548832279  0.56383016813151  0.5508893197534023  1.0000
  O   O7        1.0  0.48690004718154983  0.8179507027688402  0.05101878818788213  1.0000
  O   O8        1.0  0.2675942925223893  0.4361678593303821  0.44913223191620233  1.0000
  O   O9        1.0  0.19046716273212644  0.25370245095952265  0.7911223410966741  1.0000
  O   O10       1.0  0.9623200492626437  0.40038441403537217  0.7083853190443323  1.0000
  O   O11       1.0  0.8095548672197314  0.7462851323404253  0.20889370785668865  1.0000
  O   O12       1.0  0.03762569915349454  0.5995852126339686  0.2916163675810139  1.0000
  O   O13       1.0  0.009078038108135837  0.9826452126804027  0.8479027897554587  1.0000
  O   O14       1.0  0.6350382761599678  0.16067647158642023  0.6526192173805188  1.0000
  O   O15       1.0  0.9909180133852474  0.017350657997440094  0.15209426463697182  1.0000
  O   O16       1.0  0.36495076422932743  0.8393090220764209  0.347380989036708  1.0000
