data_image0
_chemical_formula_structural       Ag2H20C20S2N6O16
_chemical_formula_sum              "Ag2 H20 C20 S2 N6 O16"
_cell_length_a       5.704552374732684
_cell_length_b       11.255776458690312
_cell_length_c       12.583373310014546
_cell_angle_alpha    113.26797652553002
_cell_angle_beta     89.99035772641305
_cell_angle_gamma    104.68369601301103

_space_group_name_H-M_alt    "P 1"
_space_group_IT_number       1

loop_
  _space_group_symop_operation_xyz
  'x, y, z'

loop_
  _atom_site_type_symbol
  _atom_site_label
  _atom_site_symmetry_multiplicity
  _atom_site_fract_x
  _atom_site_fract_y
  _atom_site_fract_z
  _atom_site_occupancy
  Ag  Ag1       1.0  0.41401317580931635  0.474330664358206  0.29385534936471214  1.0000
  Ag  Ag2       1.0  0.060207252318868205  0.474019593203309  0.7936594915095443  1.0000
  H   H1        1.0  0.9100017431024058  0.2720239555415987  0.02382960285513045  1.0000
  H   H2        1.0  0.3618033028990269  0.2721084917421806  0.5237692731817704  1.0000
  H   H3        1.0  0.9372710792342005  0.03548278571803111  0.9626056455402435  1.0000
  H   H4        1.0  0.09847899899876468  0.035436466853632005  0.46235421997363363  1.0000
  H   H5        1.0  0.582305632071062  0.14030208275388392  0.7996021069916708  1.0000
  H   H6        1.0  0.5577483019048657  0.140222751575962  0.29967833530608357  1.0000
  H   H7        1.0  0.5217733431478991  0.37264808554348156  0.8636645941618681  1.0000
  H   H8        1.0  0.8503284220313603  0.3726875339778744  0.3638957999955253  1.0000
  H   H9        1.0  0.6315205625064381  0.574155472807675  0.5277524627523748  1.0000
  H   H10       1.0  0.9419725602386463  0.5734195330401448  0.027613353635146637  1.0000
  H   H11       1.0  0.8145934562779547  0.7208853572252567  0.7369901516266568  1.0000
  H   H12       1.0  0.9057347594304092  0.7202864467838598  0.23688005773711768  1.0000
  H   H13       1.0  0.44709092149945234  0.8954243931929969  0.6017906282569928  1.0000
  H   H14       1.0  0.4498402558891998  0.8956997056971191  0.10161944703904886  1.0000
  H   H15       1.0  0.23581974054908286  0.7446768366075461  0.4010428610305255  1.0000
  H   H16       1.0  0.5100462103454078  0.7447352487619198  0.9008813283634256  1.0000
  H   H17       1.0  0.03550395555583925  0.5490626572157852  0.2418663421640589  1.0000
  H   H18       1.0  0.5135552973663239  0.5489736854790197  0.741718351596305  1.0000
  H   H19       1.0  0.17507282937066304  0.5158471668854505  0.12449591523594718  1.0000
  H   H20       1.0  0.34051722376435134  0.5159328133666252  0.6245282345104999  1.0000
  C   C1        1.0  0.051621982455031995  0.23545841194032147  0.9729133053649194  1.0000
  C   C2        1.0  0.18364643619202073  0.23546970520720126  0.4728466736635825  1.0000
  C   C3        1.0  0.07042686856034662  0.10564150914076012  0.938290493666216  1.0000
  C   C4        1.0  0.03519937530099782  0.10560453374392152  0.43817208929812074  1.0000
  C   C5        1.0  0.25981189789644077  0.06996130637197952  0.874042134855458  1.0000
  C   C6        1.0  0.8101383774318903  0.069911462774634  0.37394412714003533  1.0000
  C   C7        1.0  0.4279405208621795  0.16417217056554995  0.8461678666279797  1.0000
  C   C8        1.0  0.7359871169309214  0.1641582162782598  0.3462369128573215  1.0000
  C   C9        1.0  0.4007854035545719  0.29213668528645104  0.881218959802766  1.0000
  C   C10       1.0  0.8909322366945884  0.29217555255588223  0.3813779063011325  1.0000
  C   C11       1.0  0.8089525170288497  0.6482954273857688  0.5521224170238171  1.0000
  C   C12       1.0  0.839224231014427  0.6478214125828147  0.051995229433906456  1.0000
  C   C13       1.0  0.9132007093385611  0.728922340724566  0.6651560283680669  1.0000
  C   C14       1.0  0.8156691142690136  0.7285182328104229  0.16503405967750254  1.0000
  C   C15       1.0  0.14622442868034133  0.8164662333992541  0.6846825392919559  1.0000
  C   C16       1.0  0.6707899889731196  0.8163480983804663  0.18451564554455765  1.0000
  C   C17       1.0  0.26753009629792524  0.8260474915356825  0.5906653567907085  1.0000
  C   C18       1.0  0.5595442013905796  0.8261040001609884  0.09049485786277241  1.0000
  C   C19       1.0  0.1554656494893722  0.7443781264154482  0.4790943666706371  1.0000
  C   C20       1.0  0.5898493238252629  0.7443612041724779  0.9789371360405428  1.0000
  S   S1        1.0  0.2956929729674585  0.9056544193808165  0.8291965219627218  1.0000
  S   S2        1.0  0.6101760340548594  0.9055233808755431  0.3289722400790042  1.0000
  N   N1        1.0  0.5260992181321525  0.22382390743717911  0.14314694129006975  1.0000
  N   N2        1.0  0.6967350139033854  0.22376372594043667  0.6430399577988412  1.0000
  N   N3        1.0  0.214468969155952  0.3258559509596709  0.9434456909309221  1.0000
  N   N4        1.0  0.11101236929308565  0.3259010942468309  0.4435195761176944  1.0000
  N   N5        1.0  0.9322476596871495  0.6547698638847024  0.46105470731018283  1.0000
  N   N6        1.0  0.722906390318336  0.654517143834781  0.9609262501038603  1.0000
  O   O1        1.0  0.5525775279800912  0.9148481979121287  0.8203893774525286  1.0000
  O   O2        1.0  0.36238902850227833  0.9145362853898077  0.3200133997696995  1.0000
  O   O3        1.0  0.16156955421634245  0.844184395625277  0.9008663942893451  1.0000
  O   O4        1.0  0.6828405134570446  0.8441243736198061  0.40068703754565876  1.0000
  O   O5        1.0  0.1938010609104099  0.4497422476892726  0.9765067148157773  1.0000
  O   O6        1.0  0.25546187458839864  0.44982634117750575  0.47662753430864796  1.0000
  O   O7        1.0  0.8369970363998364  0.5714318321563284  0.35386292689420173  1.0000
  O   O8        1.0  0.7346992371778925  0.5711773530872577  0.8537112345807216  1.0000
  O   O9        1.0  0.6316378904992063  0.3293596980311335  0.12769870221887206  1.0000
  O   O10       1.0  0.6967631071130072  0.3292606740053332  0.6275465561745792  1.0000
  O   O11       1.0  0.5805022084819171  0.11559901331540354  0.09096015878367335  1.0000
  O   O12       1.0  0.5341894035213456  0.11550568743711415  0.5908816089813343  1.0000
  O   O13       1.0  0.3637575487799225  0.23068992387811707  0.2143777048570571  1.0000
  O   O14       1.0  0.8658720082103242  0.23067445203520262  0.7143129730997376  1.0000
  O   O15       1.0  0.19499850055544968  0.5646430628301716  0.21100923274553918  1.0000
  O   O16       1.0  0.3696596699677175  0.5647138394092509  0.7110466110578532  1.0000
