data_image0
_chemical_formula_structural       Cd2H16C24Br4N12
_chemical_formula_sum              "Cd2 H16 C24 Br4 N12"
_cell_length_a       8.602173429622987
_cell_length_b       11.578486723653057
_cell_length_c       8.605281954759407
_cell_angle_alpha    90.1424344064194
_cell_angle_beta     93.65349739006201
_cell_angle_gamma    101.6205067974198

_space_group_name_H-M_alt    "P 1"
_space_group_IT_number       1

loop_
  _space_group_symop_operation_xyz
  'x, y, z'

loop_
  _atom_site_type_symbol
  _atom_site_label
  _atom_site_symmetry_multiplicity
  _atom_site_fract_x
  _atom_site_fract_y
  _atom_site_fract_z
  _atom_site_occupancy
  Cd  Cd1       1.0  0.184341405076367  0.7779053778908889  0.7826441198914933  1.0000
  Cd  Cd2       1.0  0.8156648500988695  0.22210635761117453  0.21736521057493963  1.0000
  H   H1        1.0  0.5227308216648652  0.8796210389700008  0.9794974737212949  1.0000
  H   H2        1.0  0.477242251902581  0.12038703485607269  0.020559988470836267  1.0000
  H   H3        1.0  0.7354502902608004  0.7992052581263778  0.12923845655018337  1.0000
  H   H4        1.0  0.26452118826411924  0.20081211552312794  0.8708041797935661  1.0000
  H   H5        1.0  0.6699927286278822  0.5890045215676522  0.223202242935585  1.0000
  H   H6        1.0  0.3300267934638654  0.4110048068367434  0.7768109311554026  1.0000
  H   H7        1.0  0.3890447141576415  0.4779034300555693  0.1843886951533093  1.0000
  H   H8        1.0  0.6109858069567411  0.5220839275249459  0.8156106071464105  1.0000
  H   H9        1.0  0.8984321209219956  0.6265045335086442  0.5625766310512429  1.0000
  H   H10       1.0  0.1015858785147188  0.3735115531149944  0.4373737818549584  1.0000
  H   H11       1.0  0.6141560072647961  0.6207523450076379  0.4716411925786087  1.0000
  H   H12       1.0  0.38585615178445926  0.37925851206842515  0.5283268510022052  1.0000
  H   H13       1.0  0.486932685545348  0.7890701845155235  0.5478197463085193  1.0000
  H   H14       1.0  0.5130561525982741  0.2109202667528294  0.4521827127398266  1.0000
  H   H15       1.0  0.6377371385036739  0.9419854902716197  0.7343065881714917  1.0000
  H   H16       1.0  0.3622520483749838  0.05800362071957469  0.26568534539318006  1.0000
  C   C1        1.0  0.4985357896271481  0.7904782413483813  0.025484969737554774  1.0000
  C   C2        1.0  0.5014428663713986  0.20952304770277413  0.9745704689603226  1.0000
  C   C3        1.0  0.6171491249097514  0.7447028564029949  0.10816749049022423  1.0000
  C   C4        1.0  0.3828416590941259  0.255314379067741  0.8918472249824984  1.0000
  C   C5        1.0  0.5800850970335318  0.6300816023331208  0.16272899756713588  1.0000
  C   C6        1.0  0.4199367506507842  0.3699248404456839  0.837292462520615  1.0000
  C   C7        1.0  0.42414071985970747  0.5665016248902788  0.13953742894755544  1.0000
  C   C8        1.0  0.5758773099807825  0.4334896211893097  0.8604885224339537  1.0000
  C   C9        1.0  0.31244362065046977  0.6184618895779365  0.05553011230090015  1.0000
  C   C10       1.0  0.687558769658139  0.3815309222891726  0.9444893210993466  1.0000
  C   C11       1.0  0.14637574056107638  0.5549174868984679  0.02597374148341198  1.0000
  C   C12       1.0  0.8536344319837212  0.44506607359260647  0.9740181529039157  1.0000
  C   C13       1.0  0.8351820675624493  0.6934661779692489  0.6006727462194302  1.0000
  C   C14       1.0  0.16483149280551862  0.306542532551326  0.3992836910175298  1.0000
  C   C15       1.0  0.6780615250005299  0.692570507977777  0.5472271028474578  1.0000
  C   C16       1.0  0.3219350287810628  0.3074343938061119  0.4527246728313796  1.0000
  C   C17       1.0  0.607179144655305  0.7844817776505976  0.5913022525723475  1.0000
  C   C18       1.0  0.39282123898271243  0.2155242932839201  0.40866755325495746  1.0000
  C   C19       1.0  0.6911044496745332  0.8699234118826525  0.6964634392517153  1.0000
  C   C20       1.0  0.3088826657088646  0.1300680985014324  0.30353303663083137  1.0000
  C   C21       1.0  0.8430430042684092  0.8593533889684507  0.7542901308663654  1.0000
  C   C22       1.0  0.1569539770128969  0.14064602657807515  0.24569053248427497  1.0000
  C   C23       1.0  0.9275244063590973  0.936068632021481  0.8826085790769009  1.0000
  C   C24       1.0  0.07247348970441442  0.06393960491062961  0.11737153335692334  1.0000
  Br  Br1       1.0  0.3269422008660783  0.9822330909062129  0.6854540402476911  1.0000
  Br  Br2       1.0  0.673036586556755  0.017760174837050603  0.3145135200149482  1.0000
  Br  Br3       1.0  0.22097559063126226  0.5905322198536567  0.6205820730961518  1.0000
  Br  Br4       1.0  0.778997045635677  0.4094189147964116  0.379495416354487  1.0000
  N   N1        1.0  0.3508420957653159  0.7281810566466052  0.9967192509736117  1.0000
  N   N2        1.0  0.6491477080409638  0.2718296245891096  0.003305462923918881  1.0000
  N   N3        1.0  0.040205053171128234  0.6135786617083738  0.9572408312484549  1.0000
  N   N4        1.0  0.9598078813668849  0.3864000932891329  0.04276395768205524  1.0000
  N   N5        1.0  0.8916565518605779  0.5585614947015428  0.9305395260280558  1.0000
  N   N6        1.0  0.10835888048957536  0.44143080940671087  0.06945701639179444  1.0000
  N   N7        1.0  0.9157928151228205  0.7750530993162882  0.7019525995403907  1.0000
  N   N8        1.0  0.08421568243053913  0.22496052279028328  0.29800931687951476  1.0000
  N   N9        1.0  0.062321285171634606  0.9096452913371493  0.9505027293392838  1.0000
  N   N10       1.0  0.9376771438590694  0.09036401250554599  0.04947284654566889  1.0000
  N   N11       1.0  0.1364979943329061  0.9739177546818923  0.06906103417698967  1.0000
  N   N12       1.0  0.8635087067360275  0.026087319405668614  0.9309164951922634  1.0000
