data_image0
_chemical_formula_structural       Sm2H22C28Br4N4O18
_chemical_formula_sum              "Sm2 H22 C28 Br4 N4 O18"
_cell_length_a       8.486908933945287
_cell_length_b       10.032836255962668
_cell_length_c       11.808824842404885
_cell_angle_alpha    108.880699625792
_cell_angle_beta     104.4307257222907
_cell_angle_gamma    99.57254293061274

_space_group_name_H-M_alt    "P 1"
_space_group_IT_number       1

loop_
  _space_group_symop_operation_xyz
  'x, y, z'

loop_
  _atom_site_type_symbol
  _atom_site_label
  _atom_site_symmetry_multiplicity
  _atom_site_fract_x
  _atom_site_fract_y
  _atom_site_fract_z
  _atom_site_occupancy
  Sm  Sm1       1.0  0.015690903998823575  0.20733613817010615  0.5113495033442206  1.0000
  Sm  Sm2       1.0  0.9843093411204791  0.7926645398047679  0.4886508738786262  1.0000
  H   H1        1.0  0.08599594593680138  0.4917633627212297  0.7484042482734594  1.0000
  H   H2        1.0  0.9140030923414882  0.5082373078175805  0.2515976085932365  1.0000
  H   H3        1.0  0.09797870582553961  0.5416140249844827  0.6359072881743018  1.0000
  H   H4        1.0  0.9020234238745742  0.4583888521179559  0.36409487178886474  1.0000
  H   H5        1.0  0.21041359873683513  0.7679481233497396  0.8346086746347794  1.0000
  H   H6        1.0  0.7895815734046253  0.23204378375486806  0.16538839905858543  1.0000
  H   H7        1.0  0.20440986449152382  0.1110518662980624  0.1706647746783858  1.0000
  H   H8        1.0  0.7956006806997351  0.888946711137585  0.8293342934845072  1.0000
  H   H9        1.0  0.0342762505812927  0.6498250802160327  0.09788231777424265  1.0000
  H   H10       1.0  0.9657157983388415  0.35017662338136546  0.9021185955584842  1.0000
  H   H11       1.0  0.43066159715562696  0.2960290293084426  0.5043330860016938  1.0000
  H   H12       1.0  0.5693389836046094  0.7039727438391876  0.495668498243262  1.0000
  H   H13       1.0  0.15270786555239363  0.45930067352285403  0.2642247553403436  1.0000
  H   H14       1.0  0.8472960194637196  0.5407000307981562  0.7357737279707592  1.0000
  H   H15       1.0  0.6259318560561339  0.38177774713520296  0.22024535911278778  1.0000
  H   H16       1.0  0.3740726290983573  0.6182207877361916  0.7797577139096177  1.0000
  H   H17       1.0  0.5593863058798477  0.10186631733694178  0.6186614184275356  1.0000
  H   H18       1.0  0.44060992495415957  0.8981332310431254  0.3813345556452958  1.0000
  H   H19       1.0  0.4681449539486096  0.9947224399222492  0.6934303672623798  1.0000
  H   H20       1.0  0.5318546005150467  0.005276043669155698  0.3065650508964168  1.0000
  H   H21       1.0  0.5566065163169184  0.18973411451858616  0.7731953688978308  1.0000
  H   H22       1.0  0.4433918313057177  0.8102643616367543  0.22680152890481517  1.0000
  C   C1        1.0  0.18848624538230027  0.80656147698712  0.9253577027093627  1.0000
  C   C2        1.0  0.8115114697060052  0.19343481689860195  0.0746418710886871  1.0000
  C   C3        1.0  0.21979971870263154  0.9531094194775204  0.9994897354181588  1.0000
  C   C4        1.0  0.7801974156210747  0.0468890478957675  0.0005077936883992627  1.0000
  C   C5        1.0  0.1823443999965233  0.9966801976750542  0.1120409008572949  1.0000
  C   C6        1.0  0.8176576198125504  0.0033183115563417986  0.8879583447333061  1.0000
  C   C7        1.0  0.113997713372882  0.8874033643892575  0.14906729793978712  1.0000
  C   C8        1.0  0.8860031965703784  0.1125995025851552  0.8509346449873548  1.0000
  C   C9        1.0  0.08597965326015353  0.7407324920671029  0.07494763273102477  1.0000
  C   C10       1.0  0.9140117243780994  0.2592670211847832  0.92505086655747  1.0000
  C   C11       1.0  0.07208057642012725  0.9267376624654701  0.2714489284431494  1.0000
  C   C12       1.0  0.9279184489423146  0.07326300538137079  0.7285512317436726  1.0000
  C   C13       1.0  0.4234651242754239  0.32793712050154505  0.4238397927816493  1.0000
  C   C14       1.0  0.5765345659109684  0.6720657363448337  0.5761619331094607  1.0000
  C   C15       1.0  0.2643804931055058  0.4209309187159959  0.2867484465584269  1.0000
  C   C16       1.0  0.7356225077946873  0.5790708706497508  0.7132510267387673  1.0000
  C   C17       1.0  0.3857260192333171  0.4224296598032068  0.22708736515493655  1.0000
  C   C18       1.0  0.6142791178292839  0.5775710613757565  0.77291557689189  1.0000
  C   C19       1.0  0.5289107613704261  0.37632221960180345  0.2648219176131903  1.0000
  C   C20       1.0  0.4710952598080951  0.6236774165324304  0.7351800344475379  1.0000
  C   C21       1.0  0.5467675060551828  0.3291120064059782  0.36535640601993435  1.0000
  C   C22       1.0  0.4532360820675407  0.6708876108181768  0.6346459603086813  1.0000
  C   C23       1.0  0.7013606009550487  0.28455035920959654  0.4176162083198562  1.0000
  C   C24       1.0  0.29864119310413156  0.715451422720079  0.5823847446211943  1.0000
  C   C25       1.0  0.3191314437803001  0.12721748696778684  0.6284801526083683  1.0000
  C   C26       1.0  0.6808672459412006  0.8727820857062976  0.3715188005563305  1.0000
  C   C27       1.0  0.4848126479066437  0.09960433595981036  0.6824266749136001  1.0000
  C   C28       1.0  0.5151860353569334  0.9003952353682861  0.31757142991116183  1.0000
  Br  Br1       1.0  0.3169372704170499  0.09224301428260157  0.9424783384942544  1.0000
  Br  Br2       1.0  0.6830573403335835  0.9077510703475297  0.057519235527443965  1.0000
  Br  Br3       1.0  0.3475481359886316  0.48552198785087336  0.0907398236859862  1.0000
  Br  Br4       1.0  0.6524547614784382  0.5144754349898121  0.9092575835785794  1.0000
  N   N1        1.0  0.12368861913303408  0.7020722533325878  0.9649620093507207  1.0000
  N   N2        1.0  0.8763057658676984  0.2979251039958157  0.03503727202142668  1.0000
  N   N3        1.0  0.28483804158528153  0.3734556383115402  0.3842854446692526  1.0000
  N   N4        1.0  0.7151625262591139  0.6265461321441278  0.615714442895829  1.0000
  O   O1        1.0  0.09932200976446372  0.5630568705406629  0.898278320261447  1.0000
  O   O2        1.0  0.9006717297860972  0.43693830182616705  0.10172194042622348  1.0000
  O   O3        1.0  0.024996370732544727  0.821030782345353  0.302535432532565  1.0000
  O   O4        1.0  0.9750033065379995  0.17897207180905633  0.697464596678671  1.0000
  O   O5        1.0  0.0891881707159499  0.061595732209624984  0.3310887210609579  1.0000
  O   O6        1.0  0.9108136168853065  0.9384060483740695  0.6689113835401487  1.0000
  O   O7        1.0  0.1718853799389634  0.37803727867983367  0.44199606227350324  1.0000
  O   O8        1.0  0.8281145230814745  0.6219623027762962  0.5580022595872904  1.0000
  O   O9        1.0  0.717307100032322  0.2522868165396303  0.5135875122654667  1.0000
  O   O10       1.0  0.2826953717666568  0.7477171570815527  0.4864167030597529  1.0000
  O   O11       1.0  0.8137356316818583  0.2811123212097754  0.36120601864398344  1.0000
  O   O12       1.0  0.18626738859210684  0.718889472193922  0.6387959996730288  1.0000
  O   O13       1.0  0.18192626374867157  0.023038779863952585  0.5758201636393707  1.0000
  O   O14       1.0  0.8180722002229356  0.9769640655084112  0.42418049687578463  1.0000
  O   O15       1.0  0.3158267267688402  0.2547295922416594  0.632582830774588  1.0000
  O   O16       1.0  0.6841735054346145  0.7452710830412453  0.3674158497683777  1.0000
  O   O17       1.0  0.07043891859238724  0.45391831119084697  0.6558705678988375  1.0000
  O   O18       1.0  0.9295625462837762  0.5460823769120606  0.3441300263600268  1.0000
