data_image0
_chemical_formula_structural       Zr6H25C52N5O48
_chemical_formula_sum              "Zr6 H25 C52 N5 O48"
_cell_length_a       14.759964871887723
_cell_length_b       14.757952358283868
_cell_length_c       14.80104565279482
_cell_angle_alpha    59.96026688223258
_cell_angle_beta     59.840466227697455
_cell_angle_gamma    59.944155165203334

_space_group_name_H-M_alt    "P 1"
_space_group_IT_number       1

loop_
  _space_group_symop_operation_xyz
  'x, y, z'

loop_
  _atom_site_type_symbol
  _atom_site_label
  _atom_site_symmetry_multiplicity
  _atom_site_fract_x
  _atom_site_fract_y
  _atom_site_fract_z
  _atom_site_occupancy
  Zr  Zr1       1.0  0.8661791015281038  0.886977903390573  0.6209267738602905  1.0000
  Zr  Zr2       1.0  0.10720216103823794  0.12434571006603784  0.3847580895209006  1.0000
  Zr  Zr3       1.0  0.1046492360604605  0.8854958485407919  0.6235543313060389  1.0000
  Zr  Zr4       1.0  0.8678797043310527  0.12827090145675862  0.3826089801427556  1.0000
  Zr  Zr5       1.0  0.10582567732041805  0.8874768879022666  0.3822984864768981  1.0000
  Zr  Zr6       1.0  0.8660812786513076  0.1253965514278477  0.6239332212078493  1.0000
  H   H1        1.0  0.08157595589782579  0.7215335226362852  0.5930455096915068  1.0000
  H   H2        1.0  0.08274422634031713  0.10342853026075009  0.21856907225649277  1.0000
  H   H3        1.0  0.08141822925796309  0.09856121643586847  0.5991159655243762  1.0000
  H   H4        1.0  0.7026717353009461  0.102038541368394  0.597274158385943  1.0000
  H   H5        1.0  0.8009820911646488  0.6498160468340474  0.5670194496876348  1.0000
  H   H6        1.0  0.15719845712443722  0.5534018585929913  0.4103507421583785  1.0000
  H   H7        1.0  0.8049482881792758  0.47618233802963084  0.5699621161104601  1.0000
  H   H8        1.0  0.5839840028924643  0.8440366818558263  0.9341651752780393  1.0000
  H   H9        1.0  0.5738565443341132  0.14970398581299782  0.9152076393739108  1.0000
  H   H10       1.0  0.4130118261440573  0.8479571169745695  0.10339336874348257  1.0000
  H   H11       1.0  0.112794290632401  0.8429875666541519  0.10546862263280585  1.0000
  H   H12       1.0  0.8256835503906218  0.13970870771206023  0.1022925068219464  1.0000
  H   H13       1.0  0.11357488787474086  0.8460453298332593  0.934675930865204  1.0000
  H   H14       1.0  0.5824848384348584  0.43678651629306126  0.6363870673074458  1.0000
  H   H15       1.0  0.5795980342048923  0.4240219235844904  0.35371689877641893  1.0000
  H   H16       1.0  0.4116078661135847  0.6063709135112773  0.6339670679465853  1.0000
  H   H17       1.0  0.5786390918987152  0.14271779439540913  0.34554824303165077  1.0000
  H   H18       1.0  0.5723674373340304  0.8645778689444512  0.6488985271208136  1.0000
  H   H19       1.0  0.41033780111501983  0.13664974800117594  0.3490497176347986  1.0000
  H   H20       1.0  0.06351641300877026  0.4121746501413028  0.21026437281498989  1.0000
  H   H21       1.0  0.057000114817967414  0.7166618145759571  0.9021287777533614  1.0000
  H   H22       1.0  0.9856753116579073  0.17720900442369467  0.12276215420658305  1.0000
  H   H23       1.0  0.08896933591873353  0.19053140761612036  0.8081956066891108  1.0000
  H   H24       1.0  0.05609169935885937  0.43306894605407115  0.6451350822298422  1.0000
  H   H25       1.0  0.9675259464396787  0.6249522500997527  0.710577363454156  1.0000
  C   C1        1.0  0.9797780477400623  0.7109382325725232  0.49171818210749035  1.0000
  C   C2        1.0  0.2938843261136271  0.0011506362351028105  0.2030322637090833  1.0000
  C   C3        1.0  0.9829748972051248  0.31215150729116925  0.5017592640289549  1.0000
  C   C4        1.0  0.6878765645111358  0.9984082174004242  0.8115704266927819  1.0000
  C   C5        1.0  0.9907883071745266  0.6926824623216987  0.8050454379182309  1.0000
  C   C6        1.0  0.6844923365607516  0.007008484968665093  0.4981761535622196  1.0000
  C   C7        1.0  0.9946825476958455  0.30754404850126343  0.1955773827134094  1.0000
  C   C8        1.0  0.2943169718432303  0.999501433179077  0.500634060273697  1.0000
  C   C9        1.0  0.29367924200003886  0.7066666686135149  0.49927354256328  1.0000
  C   C10       1.0  0.9785237079798182  0.9975924415438583  0.8155050973452231  1.0000
  C   C11       1.0  0.6894184894899312  0.31693067050942153  0.49801882819717486  1.0000
  C   C12       1.0  0.9765072096730238  0.9976721933821082  0.2076623274525104  1.0000
  C   C13       1.0  0.9822634003022094  0.4153285874615024  0.4984600229016749  1.0000
  C   C14       1.0  0.9782908243997994  0.6122281833811413  0.4882465903210402  1.0000
  C   C15       1.0  0.08051275264838151  0.43846723717572894  0.4543919633406334  1.0000
  C   C16       1.0  0.8791021470582266  0.5906877586502687  0.5335716396516544  1.0000
  C   C17       1.0  0.07988557928075593  0.5370541643114777  0.4452182480786107  1.0000
  C   C18       1.0  0.8813042332090718  0.4938580941456225  0.5363515598315375  1.0000
  C   C19       1.0  0.3961677491704523  0.001096824333743021  0.10301769196095724  1.0000
  C   C20       1.0  0.5879758609166146  0.9972161356869622  0.9140487702884812  1.0000
  C   C21       1.0  0.4431999179003371  0.08520056660584882  0.04884024335825636  1.0000
  C   C22       1.0  0.5434615470366786  0.9116299502560422  0.9670593576998597  1.0000
  C   C23       1.0  0.5380104954155344  0.08429031877565056  0.9556204570941845  1.0000
  C   C24       1.0  0.4485669491887593  0.9139434222091722  0.060603714137613375  1.0000
  C   C25       1.0  0.9715455178466998  0.994328980341706  0.9213334684358894  1.0000
  C   C26       1.0  0.9699196119673132  0.9914278688182917  0.11361060269841507  1.0000
  C   C27       1.0  0.890270276346634  0.07536166855983607  0.9713337643720408  1.0000
  C   C28       1.0  0.04995733495220377  0.9075728209606526  0.06755490694572323  1.0000
  C   C29       1.0  0.8880389880566001  0.07453956391972848  0.06649302899433694  1.0000
  C   C30       1.0  0.05026035333947499  0.9093463384128385  0.9726531551107983  1.0000
  C   C31       1.0  0.3978828789594149  0.6086216722118466  0.49532416024854325  1.0000
  C   C32       1.0  0.5904096258895991  0.4203512384772096  0.49567314880442115  1.0000
  C   C33       1.0  0.4473414793883065  0.5565104346275547  0.41636059168344985  1.0000
  C   C34       1.0  0.5439307635038164  0.4716054122552222  0.5745079592897395  1.0000
  C   C35       1.0  0.5425819424565432  0.46384262824486916  0.41518896693525414  1.0000
  C   C36       1.0  0.44886731770953503  0.5650230289041502  0.57369393415847  1.0000
  C   C37       1.0  0.011199776488567258  0.584200642034304  0.8931617105960754  1.0000
  C   C38       1.0  0.01434544242793123  0.48515168237361905  0.893105784343497  1.0000
  C   C39       1.0  0.031639002558741365  0.5794305789148027  0.9788576840237082  1.0000
  C   C40       1.0  0.028204211989567775  0.47383532557788044  0.7969889586950885  1.0000
  C   C41       1.0  0.04820251801448433  0.3723018484845967  0.7953583494949398  1.0000
  C   C42       1.0  0.01469780367447988  0.3945295920700715  0.08542823553828778  1.0000
  C   C43       1.0  0.032071359926384095  0.48373109373655854  0.0767305959975104  1.0000
  C   C44       1.0  0.018995067906025957  0.38775317344947513  0.9900366479776822  1.0000
  C   C45       1.0  0.0418028519240465  0.2844199461389252  0.9850959304826148  1.0000
  C   C46       1.0  0.057423491750953036  0.2759680323664284  0.8886151149869974  1.0000
  C   C47       1.0  0.39624189648781566  0.9983596014580343  0.5001633578462402  1.0000
  C   C48       1.0  0.585362644078721  0.004103947724942624  0.49695052772459997  1.0000
  C   C49       1.0  0.4435319200925535  0.922232143807527  0.5837808355363165  1.0000
  C   C50       1.0  0.5402743852877024  0.08065452041793719  0.41210702999014615  1.0000
  C   C51       1.0  0.5369376366900556  0.9238663084179989  0.5831670810490761  1.0000
  C   C52       1.0  0.44684043357668923  0.07738165491986135  0.41396619277475827  1.0000
  N   N1        1.0  0.1906627442774537  0.3527313852301219  0.4278537308578834  1.0000
  N   N2        1.0  0.39409522659328644  0.1812747050581577  0.08645767789241175  1.0000
  N   N3        1.0  0.8047521271414909  0.17055380389506797  0.9232072078510568  1.0000
  N   N4        1.0  0.40063287344649023  0.594638885152733  0.33016777893344346  1.0000
  N   N5        1.0  0.3967273623531829  0.8357250363731408  0.679239671287412  1.0000
  O   O1        1.0  0.9003923557623924  0.7515813889958948  0.5673635595176306  1.0000
  O   O2        1.0  0.2546240848956955  0.0766060976568568  0.24414894206546475  1.0000
  O   O3        1.0  0.05987354629385078  0.2730914483321101  0.4246143450058709  1.0000
  O   O4        1.0  0.7285420884048366  0.9209053541850806  0.7721205467162944  1.0000
  O   O5        1.0  0.05122519629272659  0.7498284863987834  0.7738688344517685  1.0000
  O   O6        1.0  0.723233093446332  0.08479588921648686  0.42219692294139577  1.0000
  O   O7        1.0  0.912150774432618  0.2749467741567955  0.23688045441240727  1.0000
  O   O8        1.0  0.2534407562424124  0.9235118388724075  0.5781461591300924  1.0000
  O   O9        1.0  0.25415378975763764  0.7464722191137767  0.4227087995307599  1.0000
  O   O10       1.0  0.9045406610491753  0.07621851069627181  0.7728676914512602  1.0000
  O   O11       1.0  0.7259370849302016  0.27541931847676426  0.5772966007571297  1.0000
  O   O12       1.0  0.05433867244092758  0.9233443293801642  0.24558285538169136  1.0000
  O   O13       1.0  0.05873248166216883  0.9228051960033312  0.7743999545619431  1.0000
  O   O14       1.0  0.728316435817874  0.2767806691108987  0.42179318077068473  1.0000
  O   O15       1.0  0.9050244913209371  0.08170043686004656  0.24049642829525186  1.0000
  O   O16       1.0  0.2517075840663383  0.7420163300808368  0.5796009026740021  1.0000
  O   O17       1.0  0.9137705311403439  0.7288851211069199  0.7656269148563765  1.0000
  O   O18       1.0  0.2549257138188282  0.07698957440544514  0.42435828096304107  1.0000
  O   O19       1.0  0.060723913236899  0.27408677431260026  0.2472699527233431  1.0000
  O   O20       1.0  0.7220165694414507  0.9315245721178512  0.5768686829706624  1.0000
  O   O21       1.0  0.724160121344646  0.07837162011633571  0.7694345648225536  1.0000
  O   O22       1.0  0.0619390134885622  0.7446386811741661  0.42128525821371443  1.0000
  O   O23       1.0  0.25302013884819996  0.9258220088972492  0.2399400949212164  1.0000
  O   O24       1.0  0.9063889711882995  0.27305101826372896  0.5798248499271352  1.0000
  O   O25       1.0  0.7832729120778481  0.0751659971714247  0.570385503169568  1.0000
  O   O26       1.0  0.05387014554521134  0.07215762406401179  0.5726328223743877  1.0000
  O   O27       1.0  0.05489394909798768  0.07438893348663812  0.2997417998070375  1.0000
  O   O28       1.0  0.05313095875631304  0.8023114957573937  0.5696987799158038  1.0000
  O   O29       1.0  0.13483227297555123  0.9552520187105671  0.45457487620905107  1.0000
  O   O30       1.0  0.9358070448183257  0.9583826834854887  0.4525114598725466  1.0000
  O   O31       1.0  0.9373153469307242  0.15424672786340207  0.4549988824817887  1.0000
  O   O32       1.0  0.9358220210065867  0.9558570107280674  0.6512156570813585  1.0000
  O   O33       1.0  0.20624455971499606  0.2624922619380214  0.5034877437657671  1.0000
  O   O34       1.0  0.25987026500907723  0.3787183435112312  0.335665830399833  1.0000
  O   O35       1.0  0.32240896310123907  0.26289903350993177  0.048778035974933645  1.0000
  O   O36       1.0  0.43285408979225093  0.17383729428470926  0.14783639364047466  1.0000
  O   O37       1.0  0.8295031043007486  0.25505290366429284  0.8561763359464294  1.0000
  O   O38       1.0  0.713647826564099  0.16004776689457856  0.9586078803785372  1.0000
  O   O39       1.0  0.33096984990114453  0.5555200529614837  0.35521311475040557  1.0000
  O   O40       1.0  0.4402936926498101  0.6566470172822036  0.23809383393173522  1.0000
  O   O41       1.0  0.3237030548769727  0.8617946497753975  0.7613512568535511  1.0000
  O   O42       1.0  0.43955571165527363  0.7422483739027542  0.6713226009231119  1.0000
  O   O43       1.0  0.045340485984617575  0.48866418110804216  0.15796923598400528  1.0000
  O   O44       1.0  0.04591788290840534  0.662953742028577  0.9787092848328386  1.0000
  O   O45       1.0  0.05855814264305799  0.18651005578124108  0.0732584121860427  1.0000
  O   O46       1.0  0.08349921435030441  0.17614433466680163  0.882564057214225  1.0000
  O   O47       1.0  0.0645789760593163  0.35957084787401067  0.7024712135144995  1.0000
  O   O48       1.0  0.03165013952686029  0.5584307597651161  0.696023869658859  1.0000
