data_image0
_chemical_formula_structural       Cu2H60C32O8
_chemical_formula_sum              "Cu2 H60 C32 O8"
_cell_length_a       5.246479078717934
_cell_length_b       12.312874187436105
_cell_length_c       13.837663276883902
_cell_angle_alpha    73.05642128391911
_cell_angle_beta     89.44016232844027
_cell_angle_gamma    82.74474705572806

_space_group_name_H-M_alt    "P 1"
_space_group_IT_number       1

loop_
  _space_group_symop_operation_xyz
  'x, y, z'

loop_
  _atom_site_type_symbol
  _atom_site_label
  _atom_site_symmetry_multiplicity
  _atom_site_fract_x
  _atom_site_fract_y
  _atom_site_fract_z
  _atom_site_occupancy
  Cu  Cu1       1.0  0.6889917829427006  0.5557104812717883  0.47758048448987006  1.0000
  Cu  Cu2       1.0  0.31102079641905794  0.44427245015805283  0.522425279987182  1.0000
  H   H1        1.0  0.29471775038336295  0.5943430157172642  0.7837845498968576  1.0000
  H   H2        1.0  0.7052705678711249  0.40567431539400917  0.21619328530173476  1.0000
  H   H3        1.0  0.4912618978469466  0.464190083785212  0.8335468676398677  1.0000
  H   H4        1.0  0.5087005919259938  0.5358163510785092  0.1664493848082813  1.0000
  H   H5        1.0  0.6795282578937646  0.6995247264535751  0.7471960344066986  1.0000
  H   H6        1.0  0.32050437325959535  0.30046191191465255  0.252800897120366  1.0000
  H   H7        1.0  0.8849241554365647  0.5694786607792253  0.7872998876578664  1.0000
  H   H8        1.0  0.1150453697758849  0.430515573190853  0.21270343101957678  1.0000
  H   H9        1.0  0.4960151152860704  0.6602501804624482  0.9219391801591003  1.0000
  H   H10       1.0  0.5039678207444781  0.3397512081544036  0.07805454527365192  1.0000
  H   H11       1.0  0.7058072770212503  0.5313361843451718  0.9613435662736123  1.0000
  H   H12       1.0  0.29418101476110814  0.46865215661572535  0.03865741937558909  1.0000
  H   H13       1.0  0.08407527547274196  0.6419123720064945  0.9239837007258985  1.0000
  H   H14       1.0  0.915900522930656  0.35808678689212314  0.07602211365902894  1.0000
  H   H15       1.0  0.8746573409813507  0.7712510901694218  0.8871266011058125  1.0000
  H   H16       1.0  0.12531395382493574  0.22875065234409672  0.11287864249902668  1.0000
  H   H17       1.0  0.6926192713670571  0.727818264703487  0.06020253496200206  1.0000
  H   H18       1.0  0.3073565128457147  0.2721596728755173  0.9398051557775204  1.0000
  H   H19       1.0  0.8831985186517031  0.5934990789796899  0.09554785033812864  1.0000
  H   H20       1.0  0.11680331266723698  0.40650252488431715  0.9044573574862369  1.0000
  H   H21       1.0  0.2814726462338157  0.6896381287613597  0.06904162561647097  1.0000
  H   H22       1.0  0.718504291175762  0.3103782510797616  0.9309574229156254  1.0000
  H   H23       1.0  0.09308711772071389  0.8243166912262084  0.039412739537063125  1.0000
  H   H24       1.0  0.9068632492455678  0.1756707254515676  0.9605935998096696  1.0000
  H   H25       1.0  0.25272656248314723  0.7468587358349128  0.22558192195968724  1.0000
  H   H26       1.0  0.7472058529533714  0.2531674865233314  0.774409949289776  1.0000
  H   H27       1.0  0.9124559777697953  0.7787690157335732  0.21182453247207178  1.0000
  H   H28       1.0  0.08746491148694702  0.2212289603738783  0.7881758820140732  1.0000
  H   H29       1.0  0.057488887387997144  0.6354785232067428  0.24133942690282587  1.0000
  H   H30       1.0  0.942517206554861  0.36452152544677574  0.758662504792845  1.0000
  H   H31       1.0  0.16187071237261824  0.20559479997774593  0.5942517413239871  1.0000
  H   H32       1.0  0.83812857533907  0.7943951652500942  0.40574957843735143  1.0000
  H   H33       1.0  0.8959635485773702  0.12446348643822354  0.617311147518393  1.0000
  H   H34       1.0  0.10408052391250787  0.8755152965103792  0.38270777571859327  1.0000
  H   H35       1.0  0.0449486901011014  0.26212441198563863  0.4053325290094918  1.0000
  H   H36       1.0  0.9550424546999143  0.7378600834544429  0.5946779937859361  1.0000
  H   H37       1.0  0.17308510704920374  0.11859852023390263  0.4611737287077418  1.0000
  H   H38       1.0  0.8269231319113359  0.8813791316487923  0.5388368481413508  1.0000
  H   H39       1.0  0.7333954968912054  0.05889184262043303  0.47687849913562275  1.0000
  H   H40       1.0  0.26663808396430266  0.9410694608105459  0.5231356963811749  1.0000
  H   H41       1.0  0.5953105101664492  0.20124681999352848  0.4209888410162819  1.0000
  H   H42       1.0  0.4046992893137614  0.7987174902066984  0.5790355798060389  1.0000
  H   H43       1.0  0.9890877748376851  0.07169433101044832  0.3151816078884906  1.0000
  H   H44       1.0  0.010904645117939437  0.9283213316498194  0.6848132283147733  1.0000
  H   H45       1.0  0.8099767123375372  0.20604502545954528  0.2602955303507102  1.0000
  H   H46       1.0  0.18997475188018592  0.7939736873650037  0.7397102823161816  1.0000
  H   H47       1.0  0.5899827496756844  0.9777346138663674  0.341721916768158  1.0000
  H   H48       1.0  0.4100422863144857  0.02225944744668601  0.658261790955386  1.0000
  H   H49       1.0  0.4006491416745421  0.1110853254508015  0.2934463474408417  1.0000
  H   H50       1.0  0.5993445933400068  0.8888966642305718  0.7065632863077909  1.0000
  H   H51       1.0  0.603053208049836  0.13731483023742191  0.1253437007535254  1.0000
  H   H52       1.0  0.3969202500883213  0.8627285254171327  0.8746572486251409  1.0000
  H   H53       1.0  0.8044935451960383  0.006828541771859904  0.17279645997719936  1.0000
  H   H54       1.0  0.19552625575549606  0.9932276370222085  0.8271790847668541  1.0000
  H   H55       1.0  0.42288052211525706  0.9798397527968633  0.07703003615063149  1.0000
  H   H56       1.0  0.5771752393276017  0.0202181546378455  0.9229233434058131  1.0000
  H   H57       1.0  0.42065438926306353  0.899633351792275  0.2063165945323817  1.0000
  H   H58       1.0  0.5794604913114086  0.10038208653687523  0.7936353511875254  1.0000
  H   H59       1.0  0.2127573054577567  0.029572105049553002  0.1605120397972755  1.0000
  H   H60       1.0  0.7872788042390441  0.9704304152880783  0.8394704657950669  1.0000
  C   C1        1.0  0.49360494035873625  0.5297260876587302  0.6745554284155375  1.0000
  C   C2        1.0  0.5063755175603646  0.47026272824884785  0.32545414680686946  1.0000
  C   C3        1.0  0.48625120460381765  0.5488764755314792  0.7777059792802277  1.0000
  C   C4        1.0  0.5137662745188507  0.45113794228574733  0.22229486785493435  1.0000
  C   C5        1.0  0.6971356720235491  0.6128428869421754  0.8005914876404319  1.0000
  C   C6        1.0  0.3028616969363754  0.38716071241662325  0.1994255769407118  1.0000
  C   C7        1.0  0.6872107021465368  0.6190325457456467  0.9090415029568389  1.0000
  C   C8        1.0  0.3127874753042192  0.38096121228750957  0.090969092492216  1.0000
  C   C9        1.0  0.8926722732726592  0.6826623749990902  0.9372813365757863  1.0000
  C   C10       1.0  0.10729857354802869  0.31734093998903756  0.06272644765360272  1.0000
  C   C11       1.0  0.8795099778120348  0.6825741300622069  0.047497412421840704  1.0000
  C   C12       1.0  0.12049110132543463  0.31742303235137115  0.952512411551119  1.0000
  C   C13       1.0  0.09599377178655995  0.7339359482599266  0.0842092926331901  1.0000
  C   C14       1.0  0.9039692484481705  0.26606773788896737  0.9158092742641415  1.0000
  C   C15       1.0  0.08011191849875839  0.7233832072294889  0.19676420954277773  1.0000
  C   C16       1.0  0.9198558949743331  0.27662411680134374  0.8032484664211239  1.0000
  C   C17       1.0  0.7955285475148344  0.3059817525234721  0.5577034873286948  1.0000
  C   C18       1.0  0.20445234140947832  0.6940057330766011  0.44229843004809066  1.0000
  C   C19       1.0  0.9736146865557487  0.19754759283196682  0.565082024194723  1.0000
  C   C20       1.0  0.026388099469528494  0.8024365487114553  0.4349169804286176  1.0000
  C   C21       1.0  0.0022020348547683996  0.18127499526574556  0.4588057904358749  1.0000
  C   C22       1.0  0.9977995679838256  0.8187060351347529  0.5412054881816885  1.0000
  C   C23       1.0  0.7686997112335234  0.14029227969088257  0.4218793977101853  1.0000
  C   C24       1.0  0.2313322725631294  0.8596749425448282  0.578134917613589  1.0000
  C   C25       1.0  0.8016435095582608  0.12268339736314722  0.31733977545042075  1.0000
  C   C26       1.0  0.19835344067794844  0.8773293011339052  0.6826636728803236  1.0000
  C   C27       1.0  0.5896920343801497  0.0634322980996203  0.2871384822386531  1.0000
  C   C28       1.0  0.41032700056327803  0.9365767890329908  0.7128498175526659  1.0000
  C   C29       1.0  0.6129533864221344  0.051541161778175124  0.1803210416364109  1.0000
  C   C30       1.0  0.3870639611922968  0.9484886112694471  0.81965899650325  1.0000
  C   C31       1.0  0.40676693845863815  0.986836305782994  0.1542843417920992  1.0000
  C   C32       1.0  0.5932960682258965  0.013187393201142995  0.8456767100359457  1.0000
  O   O1        1.0  0.326784952788401  0.4709899875140168  0.6557962667513948  1.0000
  O   O2        1.0  0.6732871458396658  0.5290193915975437  0.3442164419960747  1.0000
  O   O3        1.0  0.6635449996579793  0.5737843265330868  0.6144642267476572  1.0000
  O   O4        1.0  0.3365123472902313  0.42621703548329753  0.3855228321859768  1.0000
  O   O5        1.0  0.5561069742878645  0.3000917037462258  0.5696871620965354  1.0000
  O   O6        1.0  0.4438101760460924  0.6998916955586272  0.4303179831629008  1.0000
  O   O7        1.0  0.8968839039898171  0.39954734972625533  0.5331946700202082  1.0000
  O   O8        1.0  0.1031530459441683  0.600415508848144  0.46682206164859247  1.0000
