data_image0
_chemical_formula_structural       Al2H16C28N2O12F2
_chemical_formula_sum              "Al2 H16 C28 N2 O12 F2"
_cell_length_a       6.766056134760448
_cell_length_b       15.455561735819808
_cell_length_c       17.04044542667469
_cell_angle_alpha    84.91103729386353
_cell_angle_beta     81.71954743243637
_cell_angle_gamma    76.5941388568087

_space_group_name_H-M_alt    "P 1"
_space_group_IT_number       1

loop_
  _space_group_symop_operation_xyz
  'x, y, z'

loop_
  _atom_site_type_symbol
  _atom_site_label
  _atom_site_symmetry_multiplicity
  _atom_site_fract_x
  _atom_site_fract_y
  _atom_site_fract_z
  _atom_site_occupancy
  Al  Al1       1.0  0.5000002759323082  0.5000002710277512  0.49999951206813603  1.0000
  Al  Al2       1.0  0.9999993749221119  0.5000022954676381  0.5000021467979394  1.0000
  H   H1        1.0  0.21889387567042462  0.5997118177569334  0.4410710969967511  1.0000
  H   H2        1.0  0.7811289427651432  0.40028602363228316  0.558926871127795  1.0000
  H   H3        1.0  0.8445779888422464  0.5042455579499715  0.7406895504005744  1.0000
  H   H4        1.0  0.7856881120256601  0.502368310474047  0.8883278133531999  1.0000
  H   H5        1.0  0.4228307396131968  0.5005648215310714  0.8916828736356663  1.0000
  H   H6        1.0  0.5771713107377254  0.49943574432566595  0.10831489279232187  1.0000
  H   H7        1.0  0.21430298767539574  0.49763030417034315  0.11166950132427896  1.0000
  H   H8        1.0  0.15541559226767288  0.495757085142486  0.2593056179244825  1.0000
  H   H9        1.0  0.07045403323203914  0.23141201924313037  0.49635027227139955  1.0000
  H   H10       1.0  0.9295390066766773  0.7685944199630228  0.5036534954467696  1.0000
  H   H11       1.0  0.29085767596127726  0.7742803050309559  0.5046027133256104  1.0000
  H   H12       1.0  0.21379173763549644  0.935795113686609  0.5025989907837385  1.0000
  H   H13       1.0  0.709131738955364  0.22572156096741477  0.49539801457780175  1.0000
  H   H14       1.0  0.7862157813213105  0.06420330094166359  0.4974050649250258  1.0000
  H   H15       1.0  0.513996367823438  0.5049530484485985  0.68022993247763  1.0000
  H   H16       1.0  0.4859807775495072  0.49504967590375765  0.31976378574190517  1.0000
  C   C1        1.0  0.6660440654947236  0.6601791116428258  0.5023861352651621  1.0000
  C   C2        1.0  0.8064822389849698  0.49609793215389425  0.3553357126241606  1.0000
  C   C3        1.0  0.3339616080170274  0.33982601422655984  0.49761525885822505  1.0000
  C   C4        1.0  0.1935188192871565  0.5038985630803337  0.6446658818511606  1.0000
  C   C5        1.0  0.16524532057269442  0.5041849168024793  0.7318069207006415  1.0000
  C   C6        1.0  0.9701333720338287  0.5037496150849633  0.7741487731616272  1.0000
  C   C7        1.0  0.9363779189576817  0.5025723655788211  0.855982028116628  1.0000
  C   C8        1.0  0.10219947521942173  0.501434966960069  0.8981997801951562  1.0000
  C   C9        1.0  0.29703507375567995  0.5016981036444931  0.8579303605069837  1.0000
  C   C10       1.0  0.3309619421926087  0.5033178983929429  0.7747461061077698  1.0000
  C   C11       1.0  0.7029651525057833  0.4983031704916527  0.14206570141450206  1.0000
  C   C12       1.0  0.8977984309131842  0.4985649801442165  0.10179649124349766  1.0000
  C   C13       1.0  0.06361599874287546  0.49742962460381795  0.14401257513937074  1.0000
  C   C14       1.0  0.02986237524993384  0.49625170640368305  0.22584577095894787  1.0000
  C   C15       1.0  0.8347529111630578  0.4958142982211697  0.2681923129527988  1.0000
  C   C16       1.0  0.6690367910762873  0.4966833915273695  0.22524944988008136  1.0000
  C   C17       1.0  0.38438990914691135  0.2409934460220526  0.49701852276737657  1.0000
  C   C18       1.0  0.6156121412040109  0.7590071198346918  0.5029792436606043  1.0000
  C   C19       1.0  0.22890011746745398  0.19537930509960685  0.4970215544408132  1.0000
  C   C20       1.0  0.27592330984392527  0.10336283801408538  0.4976752903655493  1.0000
  C   C21       1.0  0.7711027514828858  0.8046286989008278  0.5029704242930036  1.0000
  C   C22       1.0  0.7240838859603473  0.896642483193304  0.5023172036012296  1.0000
  C   C23       1.0  0.41465775623835566  0.8086816542770234  0.5033195349492701  1.0000
  C   C24       1.0  0.3717801929018024  0.9009976446307346  0.5023649760264418  1.0000
  C   C25       1.0  0.5853457761176488  0.19131881662473657  0.4966822646961898  1.0000
  C   C26       1.0  0.6282283199650465  0.0990048538151882  0.4976346637543472  1.0000
  C   C27       1.0  0.4756916994843508  0.0493947076221133  0.4988948077857101  1.0000
  C   C28       1.0  0.5243151810848802  0.95060526353339  0.5010992083290018  1.0000
  N   N1        1.0  0.08876316037057556  0.49988850738730406  0.9819849577140756  1.0000
  N   N2        1.0  0.9112317616081426  0.5001114844804491  0.018009713976667313  1.0000
  O   O1        1.0  0.5187232152976764  0.6218724481641613  0.5009179640608891  1.0000
  O   O2        1.0  0.9574831583547478  0.4980961208084764  0.391125187629619  1.0000
  O   O3        1.0  0.14593774408265872  0.3787519602782367  0.4974035660936876  1.0000
  O   O4        1.0  0.3765662657729719  0.5043578000201376  0.6088506158187172  1.0000
  O   O5        1.0  0.48129344486951453  0.37812873151695203  0.49908013584676053  1.0000
  O   O6        1.0  0.04251588952981677  0.5019043578603757  0.608876857856856  1.0000
  O   O7        1.0  0.8540639153595824  0.6212550239375999  0.5026043901760104  1.0000
  O   O8        1.0  0.6234363160035559  0.4956327424438881  0.39114950226591816  1.0000
  O   O9        1.0  0.24320136859279262  0.5390951800822137  0.46398602024355273  1.0000
  O   O10       1.0  0.7568011484975727  0.4609072099636151  0.5360192382510147  1.0000
  O   O11       1.0  0.521850093091622  0.5036398880051607  0.7386512898127079  1.0000
  O   O12       1.0  0.4781395050799874  0.4963648377510594  0.26134044668776807  1.0000
  F   F1        1.0  0.11074224708542597  0.06663360242762911  0.496950875817866  1.0000
  F   F2        1.0  0.8892484891756569  0.9333716285028897  0.503047810491715  1.0000
