data_image0
_chemical_formula_structural       Zn2H24C24S4N8O8
_chemical_formula_sum              "Zn2 H24 C24 S4 N8 O8"
_cell_length_a       7.342350736460042
_cell_length_b       9.444106083481797
_cell_length_c       11.887188996931899
_cell_angle_alpha    78.04320390180101
_cell_angle_beta     77.66306342865992
_cell_angle_gamma    85.09989285668155

_space_group_name_H-M_alt    "P 1"
_space_group_IT_number       1

loop_
  _space_group_symop_operation_xyz
  'x, y, z'

loop_
  _atom_site_type_symbol
  _atom_site_label
  _atom_site_symmetry_multiplicity
  _atom_site_fract_x
  _atom_site_fract_y
  _atom_site_fract_z
  _atom_site_occupancy
  Zn  Zn1       1.0  0.26037958229373714  0.7982486171447717  0.5204944416508539  1.0000
  Zn  Zn2       1.0  0.7394667621319045  0.20138796917930074  0.4795077278945855  1.0000
  H   H1        1.0  0.16179531193058952  0.006439803940047297  0.05361265450596871  1.0000
  H   H2        1.0  0.8382839212932185  0.9935341175618573  0.9463737899085346  1.0000
  H   H3        1.0  0.5020533694335898  0.9814966571556308  0.7019198828036509  1.0000
  H   H4        1.0  0.4980364875237982  0.018375151697497896  0.2979937203770434  1.0000
  H   H5        1.0  0.3768705627687298  0.995226526059767  0.9100206465491922  1.0000
  H   H6        1.0  0.6231856381286961  0.004744172884343803  0.08985975125259674  1.0000
  H   H7        1.0  0.038243434016777704  0.013517345795975194  0.26338628929198654  1.0000
  H   H8        1.0  0.9618067151507077  0.9864028548548017  0.7366003264259718  1.0000
  H   H9        1.0  0.12620750619712603  0.571560907141986  0.36687490312621673  1.0000
  H   H10       1.0  0.8737496062474719  0.42830765369378543  0.6330216471359266  1.0000
  H   H11       1.0  0.28227413651755745  0.5350637252149966  0.9754648134863261  1.0000
  H   H12       1.0  0.7177727290710437  0.46488676751510377  0.024511077502218412  1.0000
  H   H13       1.0  0.2545960008099399  0.5413562168277721  0.1586285354085462  1.0000
  H   H14       1.0  0.7454680020328013  0.4586070764926972  0.8412757586618017  1.0000
  H   H15       1.0  0.41797339045069754  0.5408573838799878  0.764516041208026  1.0000
  H   H16       1.0  0.5821111110070376  0.45901030675056353  0.23548474709131284  1.0000
  H   H17       1.0  0.14521360275053044  0.07889730661518257  0.5395646852025281  1.0000
  H   H18       1.0  0.8548136337534019  0.9209338768499007  0.46038874558803405  1.0000
  H   H19       1.0  0.36374683959930115  0.4330263162382123  0.49310528872700143  1.0000
  H   H20       1.0  0.6372850174349054  0.5686157743516986  0.5073807856624272  1.0000
  H   H21       1.0  0.23704438763597585  0.45395362148507706  0.6108659816388524  1.0000
  H   H22       1.0  0.7624749869686838  0.5464357072192881  0.3894697896412965  1.0000
  H   H23       1.0  0.35239305492427764  0.0909049576334056  0.46523290690804947  1.0000
  H   H24       1.0  0.6475800296899551  0.9089218282730654  0.5347236210184292  1.0000
  C   C1        1.0  0.159643783552248  0.9054363902535838  0.11769693327461543  1.0000
  C   C2        1.0  0.8404108671248309  0.09451037479366416  0.8822551003326355  1.0000
  C   C3        1.0  0.4538798272946425  0.8868888922205468  0.7674522549346606  1.0000
  C   C4        1.0  0.546245765442471  0.11299209038519815  0.23246554210051334  1.0000
  C   C5        1.0  0.38147578630182727  0.8908542310698447  0.8839155940698049  1.0000
  C   C6        1.0  0.6186052478212362  0.10908287416463479  0.11600042014770653  1.0000
  C   C7        1.0  0.08842022854990725  0.9134809701966371  0.2334022940641277  1.0000
  C   C8        1.0  0.9115967536281745  0.08643698898776359  0.7665357067984859  1.0000
  C   C9        1.0  0.13769356504331404  0.6608041288875837  0.29149494857085767  1.0000
  C   C10       1.0  0.8623085047983639  0.339091882840094  0.708405731687492  1.0000
  C   C11       1.0  0.33287636242467766  0.6368274262753245  0.9200822103495129  1.0000
  C   C12       1.0  0.6671794156012254  0.3631172912936761  0.07988013785955424  1.0000
  C   C13       1.0  0.21036754465398397  0.6490450075226234  0.17640725806560206  1.0000
  C   C14       1.0  0.78965925348151  0.3508984564227972  0.8235049571904796  1.0000
  C   C15       1.0  0.40745651106215064  0.6367512418741013  0.8031343661566839  1.0000
  C   C16       1.0  0.5926502274513581  0.36314069484699013  0.19684440130990316  1.0000
  C   C17       1.0  0.31440502986413316  0.7657994237129483  0.9637284204998198  1.0000
  C   C18       1.0  0.6856284771991171  0.23417036355393603  0.036212936734784824  1.0000
  C   C19       1.0  0.227667470381583  0.7725273794799817  0.08601473551380685  1.0000
  C   C20       1.0  0.7724023769628799  0.22743736963028732  0.9139239411378883  1.0000
  C   C21       1.0  0.5595247099472261  0.7522902643708277  0.2988494714776025  1.0000
  C   C22       1.0  0.44037412657941394  0.2476744043586406  0.7010939002873116  1.0000
  C   C23       1.0  0.989020157515512  0.7219693303563658  0.7623991418433109  1.0000
  C   C24       1.0  0.01084227224944101  0.2780930626980832  0.23773622212382867  1.0000
  S   S1        1.0  0.712131566736261  0.7163947882779592  0.18797877193119927  1.0000
  S   S2        1.0  0.28783467925070744  0.2835694176836795  0.8119413867045325  1.0000
  S   S3        1.0  0.8513168643725776  0.7069459208482626  0.8890453346990912  1.0000
  S   S4        1.0  0.14860265039788348  0.29293839036495223  0.11115511556611321  1.0000
  N   N1        1.0  0.448943766609304  0.7797671814534366  0.3809046712059543  1.0000
  N   N2        1.0  0.5509266773718834  0.22016121164648433  0.6190458726980879  1.0000
  N   N3        1.0  0.4632621069155365  0.7613569998401103  0.7276509482424914  1.0000
  N   N4        1.0  0.5368448555765468  0.23851385349936996  0.2722944100633029  1.0000
  N   N5        1.0  0.08257068520878622  0.7928674469888006  0.31854633820459105  1.0000
  N   N6        1.0  0.9174000150949909  0.20701876939961747  0.6813892754003704  1.0000
  N   N7        1.0  0.09264336085580992  0.7357780706922836  0.6696088775219593  1.0000
  N   N8        1.0  0.9071618788653313  0.2644770021864246  0.3304967564159896  1.0000
  O   O1        1.0  0.26204228419408787  0.019434027211794096  0.5163459131226702  1.0000
  O   O2        1.0  0.7379384011352388  0.9803891161879859  0.4835926550580254  1.0000
  O   O3        1.0  0.028541602552031996  0.8040092819082786  0.4307837526942749  1.0000
  O   O4        1.0  0.9713350688161739  0.19583234538114166  0.569177657501726  1.0000
  O   O5        1.0  0.519420315660618  0.7611357152399236  0.6137178415400513  1.0000
  O   O6        1.0  0.48072207638603015  0.23870846902655526  0.3862286819719501  1.0000
  O   O7        1.0  0.2729452377449562  0.5012920988005191  0.5285845408231113  1.0000
  O   O8        1.0  0.7262696585497679  0.49936051313772367  0.4717938879751743  1.0000
