data_image0
_chemical_formula_structural       Zr6H20C52Cl10O32
_chemical_formula_sum              "Zr6 H20 C52 Cl10 O32"
_cell_length_a       14.809117320476476
_cell_length_b       14.793087309558151
_cell_length_c       14.815680907657587
_cell_angle_alpha    59.87827796462261
_cell_angle_beta     59.90476929076055
_cell_angle_gamma    60.17043683460389

_space_group_name_H-M_alt    "P 1"
_space_group_IT_number       1

loop_
  _space_group_symop_operation_xyz
  'x, y, z'

loop_
  _atom_site_type_symbol
  _atom_site_label
  _atom_site_symmetry_multiplicity
  _atom_site_fract_x
  _atom_site_fract_y
  _atom_site_fract_z
  _atom_site_occupancy
  Zr  Zr1       1.0  0.8767072733310146  0.8839344749877396  0.6202895886951935  1.0000
  Zr  Zr2       1.0  0.11940175131876175  0.1197598361697486  0.3848366769517639  1.0000
  Zr  Zr3       1.0  0.1149712261491087  0.8798280215740489  0.6252914219303848  1.0000
  Zr  Zr4       1.0  0.8809052655901513  0.1233717139238522  0.38133479465508197  1.0000
  Zr  Zr5       1.0  0.11773695523442745  0.8825923581904148  0.3840545539463207  1.0000
  Zr  Zr6       1.0  0.8789198651328007  0.12073096111254968  0.622525820056147  1.0000
  H   H1        1.0  0.08992956696965872  0.7194058583891588  0.5957830743749923  1.0000
  H   H2        1.0  0.097416503479792  0.09417664816057682  0.2206893290923801  1.0000
  H   H3        1.0  0.0911279176466095  0.09339973105611683  0.6005918212025209  1.0000
  H   H4        1.0  0.7162626834999057  0.09840528403692163  0.5944449116233912  1.0000
  H   H5        1.0  0.1493048834974501  0.5796941046484748  0.38444656767271823  1.0000
  H   H6        1.0  0.8301115251239396  0.44512341627119417  0.5951799294947122  1.0000
  H   H7        1.0  0.6019378280620914  0.12931605558422615  0.9177687124698224  1.0000
  H   H8        1.0  0.40987141492014706  0.8571501477071592  0.10341421050502228  1.0000
  H   H9        1.0  0.832616805621761  0.09974602486501283  0.1309444114514163  1.0000
  H   H10       1.0  0.1446788763312623  0.8769603808571702  0.8985425563084845  1.0000
  H   H11       1.0  0.5946082411021365  0.41212243725121295  0.362287294781609  1.0000
  H   H12       1.0  0.41906460471953016  0.6084834450703979  0.627423106653488  1.0000
  H   H13       1.0  0.9593261796643588  0.5794821250291162  0.7470503156955456  1.0000
  H   H14       1.0  0.943765150497761  0.41781432808300417  0.7546518369327514  1.0000
  H   H15       1.0  0.97400926877409  0.23819112686094  0.07850689519054298  1.0000
  H   H16       1.0  0.9519196478423027  0.24617672924401998  0.9210150862826295  1.0000
  H   H17       1.0  0.049832727328308055  0.4770375801293342  0.14422182680234386  1.0000
  H   H18       1.0  0.04550510445997684  0.6475739727357208  0.9756923938445468  1.0000
  H   H19       1.0  0.5950304094677749  0.8642575774842527  0.6366292949343518  1.0000
  H   H20       1.0  0.41538560483353143  0.12582175844418936  0.35369930669759947  1.0000
  C   C1        1.0  0.9861298370485303  0.7072611053584125  0.49717224304461644  1.0000
  C   C2        1.0  0.3085411234968303  0.9986226263348641  0.2069552992245392  1.0000
  C   C3        1.0  0.99963086287579  0.3082474238170434  0.49503127788581497  1.0000
  C   C4        1.0  0.6977110563010029  0.9940499708247116  0.8087933932329604  1.0000
  C   C5        1.0  0.9946554316310952  0.6971541574824797  0.8063806853171585  1.0000
  C   C6        1.0  0.699454013310934  0.0051891725316651665  0.4904112430119481  1.0000
  C   C7        1.0  0.0016898937775665184  0.30417267436212814  0.1969299170412313  1.0000
  C   C8        1.0  0.30494107551444927  0.9906791150731421  0.5061074525221868  1.0000
  C   C9        1.0  0.30439743051131524  0.7011608204957723  0.4968484432190792  1.0000
  C   C10       1.0  0.9851207046399968  0.9960310014379912  0.8157740100615952  1.0000
  C   C11       1.0  0.7026933675002313  0.312404494160475  0.49982416230562177  1.0000
  C   C12       1.0  0.9997516112578638  0.9932955826495161  0.20318878766153145  1.0000
  C   C13       1.0  0.9988313481403992  0.41311230630253704  0.488299151955843  1.0000
  C   C14       1.0  0.9816182121221363  0.6101718719930885  0.4935527508512011  1.0000
  C   C15       1.0  0.08945244117120406  0.4528023954930304  0.4264903554020378  1.0000
  C   C16       1.0  0.8898116055639278  0.5725868331989687  0.5521385512531437  1.0000
  C   C17       1.0  0.079173713453372  0.5496788454481915  0.4304348516973704  1.0000
  C   C18       1.0  0.9002490491524354  0.4751841493389576  0.549038295130046  1.0000
  C   C19       1.0  0.41169340469759425  0.9984409078353021  0.10775056069021362  1.0000
  C   C20       1.0  0.5997530358904798  0.988544173701044  0.9131421383299809  1.0000
  C   C21       1.0  0.4677424264362243  0.07552377496522664  0.05532442592737397  1.0000
  C   C22       1.0  0.5452467601626901  0.9098597177089118  0.967003352050547  1.0000
  C   C23       1.0  0.5592444191962614  0.06939669032249153  0.9595486780812622  1.0000
  C   C24       1.0  0.45300410276310277  0.9166584530629223  0.062194069312148735  1.0000
  C   C25       1.0  0.9805524490542372  0.9929034085982024  0.9208459828332991  1.0000
  C   C26       1.0  0.9980075209578133  0.9861855735518501  0.10666866408487127  1.0000
  C   C27       1.0  0.8908157115631283  0.05520304893217087  0.9886655288211943  1.0000
  C   C28       1.0  0.08644020397939292  0.9210304312534133  0.04105390130424514  1.0000
  C   C29       1.0  0.9012302941899079  0.050832252557441344  0.07929372601199695  1.0000
  C   C30       1.0  0.07600541092610077  0.9256669968185417  0.9503169573592488  1.0000
  C   C31       1.0  0.4089676317823178  0.6037097322013165  0.49098106840749267  1.0000
  C   C32       1.0  0.6035534582424731  0.4156152544194781  0.5000235398473124  1.0000
  C   C33       1.0  0.46039271719145375  0.5478182801160043  0.4143599504354327  1.0000
  C   C34       1.0  0.553463687130673  0.47295937840772945  0.5750915431019337  1.0000
  C   C35       1.0  0.5555346186109134  0.4558967368423836  0.42049230460690984  1.0000
  C   C36       1.0  0.4581627864464297  0.5647499429314847  0.5691768131635015  1.0000
  C   C37       1.0  0.00046408127904136963  0.5908739352899487  0.9014985195703886  1.0000
  C   C38       1.0  0.9815154090537423  0.501918705962019  0.9070771751920362  1.0000
  C   C39       1.0  0.027684718004366095  0.580000728413843  0.9841670398507247  1.0000
  C   C40       1.0  0.965206066619906  0.504525024993299  0.8188665593563229  1.0000
  C   C41       1.0  0.9552922944429556  0.41423511227394966  0.823679851550274  1.0000
  C   C42       1.0  0.0062512732088678335  0.3989456895398433  0.09032522066227246  1.0000
  C   C43       1.0  0.03037504520589349  0.48438633918061663  0.07845647024218748  1.0000
  C   C44       1.0  0.9851257781231624  0.40339481100922103  0.003477226778507278  1.0000
  C   C45       1.0  0.9732481574026224  0.3125234468466475  0.005719559495105324  1.0000
  C   C46       1.0  0.9596985295181214  0.3174213550497811  0.9176637737395625  1.0000
  C   C47       1.0  0.4090152256932171  0.9871971266123437  0.5039488316461842  1.0000
  C   C48       1.0  0.6007486871076892  0.0033891464950527583  0.48711822308715824  1.0000
  C   C49       1.0  0.46180392706568796  0.9113360862103973  0.5839298477215918  1.0000
  C   C50       1.0  0.5496026432003233  0.0775581648886502  0.4056009154366507  1.0000
  C   C51       1.0  0.5551565239414203  0.9213689317548203  0.5742836500690557  1.0000
  C   C52       1.0  0.4555896260052563  0.06823032313921117  0.415773061426755  1.0000
  Cl  Cl1       1.0  0.21686590822124424  0.3868107687911006  0.3474707073581341  1.0000
  Cl  Cl2       1.0  0.7617878908635375  0.6408848519770133  0.6280397366015437  1.0000
  Cl  Cl3       1.0  0.43151185667159103  0.17960966045921364  0.10114907732595672  1.0000
  Cl  Cl4       1.0  0.5838307472293283  0.8036760728591116  0.92303060366482  1.0000
  Cl  Cl5       1.0  0.7653591882462365  0.13805344734591773  0.967918769257942  1.0000
  Cl  Cl6       1.0  0.21149948285465578  0.8362816702369072  0.06248590828216997  1.0000
  Cl  Cl7       1.0  0.4130802412587612  0.5839821279835532  0.31135310727864857  1.0000
  Cl  Cl8       1.0  0.6020593298009304  0.43772104477799434  0.6767938269101208  1.0000
  Cl  Cl9       1.0  0.4186742201668422  0.8041951997156431  0.6963738151422945  1.0000
  Cl  Cl10      1.0  0.5953419913559586  0.1820844010959776  0.29110986569774167  1.0000
  O   O1        1.0  0.912848547437747  0.7440125988244686  0.5763325410564092  1.0000
  O   O2        1.0  0.266263959962501  0.07553895363900416  0.2464951732625522  1.0000
  O   O3        1.0  0.07625639103358138  0.2657691855063931  0.42085343263005376  1.0000
  O   O4        1.0  0.7362042999716323  0.9213593384173605  0.7649383378874076  1.0000
  O   O5        1.0  0.06975371862245808  0.7384375589427064  0.7699173932319497  1.0000
  O   O6        1.0  0.7388004719563598  0.08312042647702346  0.41688675363312916  1.0000
  O   O7        1.0  0.9226645848960616  0.2659949619234681  0.23960767565071708  1.0000
  O   O8        1.0  0.26137473777956893  0.9170021366653244  0.5840258903541127  1.0000
  O   O9        1.0  0.2613230241423992  0.7405844172385725  0.42323177779449833  1.0000
  O   O10       1.0  0.9140986582700847  0.0763749852209088  0.7710010607206429  1.0000
  O   O11       1.0  0.7409984531891568  0.26819652054296467  0.5781809390801698  1.0000
  O   O12       1.0  0.07689531165090811  0.9202541761677309  0.2425196083837093  1.0000
  O   O13       1.0  0.06295099443949675  0.91972942951935  0.7767758159600291  1.0000
  O   O14       1.0  0.7400885354342391  0.27451868657880846  0.42266024840584027  1.0000
  O   O15       1.0  0.924175430154861  0.0728958437860569  0.23825803696838213  1.0000
  O   O16       1.0  0.2649049708926866  0.7370354786321941  0.5760319883197056  1.0000
  O   O17       1.0  0.9167607246899012  0.7398124929702445  0.7679495978653179  1.0000
  O   O18       1.0  0.2662478057172066  0.06944896745039127  0.4298084919378127  1.0000
  O   O19       1.0  0.07504983499481452  0.26841991461702003  0.2389839483527467  1.0000
  O   O20       1.0  0.7359253594879506  0.9286845194785727  0.5689369829740443  1.0000
  O   O21       1.0  0.7350688586555164  0.07235429188001766  0.77013460030701  1.0000
  O   O22       1.0  0.06613844309085681  0.7429481812808731  0.423123742632221  1.0000
  O   O23       1.0  0.2685180111542709  0.9229209867316471  0.24345487226928236  1.0000
  O   O24       1.0  0.9236348048098293  0.269067228440619  0.5747536946277378  1.0000
  O   O25       1.0  0.7963791111312092  0.07141344878128553  0.5678812736351233  1.0000
  O   O26       1.0  0.06483559804671304  0.06704381875994868  0.5730662927439454  1.0000
  O   O27       1.0  0.06816746106662924  0.06863059620550867  0.3009461364453614  1.0000
  O   O28       1.0  0.0632294020676838  0.7996335301530664  0.5701560011615855  1.0000
  O   O29       1.0  0.14651022992437382  0.9508036254528703  0.4557478187049496  1.0000
  O   O30       1.0  0.9485677966215532  0.9539621924011568  0.45165710062998693  1.0000
  O   O31       1.0  0.950385564056042  0.1501380259470578  0.4533520107661885  1.0000
  O   O32       1.0  0.9469084273831285  0.9518999965085227  0.6515382628268753  1.0000
