data_image0
_chemical_formula_structural       Zn2H6C38N22O36F4
_chemical_formula_sum              "Zn2 H6 C38 N22 O36 F4"
_cell_length_a       16.101441205603994
_cell_length_b       17.24100780781786
_cell_length_c       17.25471775679422
_cell_angle_alpha    91.9404156338202
_cell_angle_beta     96.49897417412062
_cell_angle_gamma    97.43638605160253

_space_group_name_H-M_alt    "P 1"
_space_group_IT_number       1

loop_
  _space_group_symop_operation_xyz
  'x, y, z'

loop_
  _atom_site_type_symbol
  _atom_site_label
  _atom_site_symmetry_multiplicity
  _atom_site_fract_x
  _atom_site_fract_y
  _atom_site_fract_z
  _atom_site_occupancy
  Zn  Zn1       1.0  0.41043907840010974  0.4893841711545053  0.49428650232631804  1.0000
  Zn  Zn2       1.0  0.5895321757709129  0.5106903553346953  0.505741437388977  1.0000
  H   H1        1.0  0.42624902142705434  0.5711036428753927  0.8933478153133408  1.0000
  H   H2        1.0  0.5737463830676077  0.42888723616960084  0.10672429749499202  1.0000
  H   H3        1.0  0.5898833051370007  0.1099717895531001  0.4441526567967031  1.0000
  H   H4        1.0  0.41016203104268106  0.8901706988340267  0.5555687429342484  1.0000
  H   H5        1.0  0.6938848523778987  0.432861257048053  0.41394421676263704  1.0000
  H   H6        1.0  0.30611181148218247  0.5669883944870122  0.5863058884794867  1.0000
  C   C1        1.0  0.49907664114321904  0.35058459754588983  0.5045258099096372  1.0000
  C   C2        1.0  0.5009246798061967  0.6494849706160863  0.4954739654644412  1.0000
  C   C3        1.0  0.5090347382968758  0.5041334251047259  0.6509452475187913  1.0000
  C   C4        1.0  0.4909076023786911  0.4959116659816303  0.3490790602266145  1.0000
  C   C5        1.0  0.4857170193396386  0.5011267643689052  0.2618557685939962  1.0000
  C   C6        1.0  0.5142678583370215  0.4989189347107014  0.7381699772399059  1.0000
  C   C7        1.0  0.5047118480928462  0.7365846595474751  0.4901912760747749  1.0000
  C   C8        1.0  0.49529340760364005  0.2634603856827908  0.509708705295246  1.0000
  C   C9        1.0  0.5339339965425794  0.4576506094389927  0.21829381679449264  1.0000
  C   C10       1.0  0.4660183602338891  0.5423561476590281  0.7817550649993663  1.0000
  C   C11       1.0  0.4510244417973936  0.7788907636981507  0.528458382321304  1.0000
  C   C12       1.0  0.5489915324415052  0.22121175368835816  0.47141222280443174  1.0000
  C   C13       1.0  0.5337934177641588  0.4617329661649592  0.13843218375065902  1.0000
  C   C14       1.0  0.46621959489708337  0.5382854365888222  0.8616205013689893  1.0000
  C   C15       1.0  0.45370029934908024  0.8593274138575425  0.5263428341016052  1.0000
  C   C16       1.0  0.5463341969013696  0.1407622547940832  0.4734074313101786  1.0000
  C   C17       1.0  0.4827332354708887  0.5109241875231803  0.09844680243401882  1.0000
  C   C18       1.0  0.5173911982901275  0.4891844947920632  0.9015928969824075  1.0000
  C   C19       1.0  0.5126823353157876  0.9010336326337764  0.4844955605056356  1.0000
  C   C20       1.0  0.48731674510834483  0.0990088166189409  0.5151835219131939  1.0000
  C   C21       1.0  0.43155617552071857  0.5532325275915824  0.1397996766885541  1.0000
  C   C22       1.0  0.5685985769779125  0.4469205681252647  0.8602318606286232  1.0000
  C   C23       1.0  0.5682056272402107  0.8609144474870407  0.4462247979643124  1.0000
  C   C24       1.0  0.43178344595605733  0.13906690532312635  0.553506851688276  1.0000
  C   C25       1.0  0.4333759442422931  0.5481634721435356  0.2202555024236403  1.0000
  C   C26       1.0  0.5666896959402693  0.4519473561641618  0.7797668801911897  1.0000
  C   C27       1.0  0.5640320520548416  0.78007155996945  0.4494717132209446  1.0000
  C   C28       1.0  0.43594869820994137  0.21992415054365472  0.5503527919516245  1.0000
  C   C29       1.0  0.7807381922277518  0.5462240490849198  0.5656621630265377  1.0000
  C   C30       1.0  0.2192262295755328  0.45399942277404653  0.4343572968626503  1.0000
  C   C31       1.0  0.8655290344003749  0.5369157542609957  0.5681912103789274  1.0000
  C   C32       1.0  0.13441112929699983  0.46319978599463957  0.4319535468431894  1.0000
  C   C33       1.0  0.8909349855660054  0.4879118822744745  0.5111402827959212  1.0000
  C   C34       1.0  0.10901899550427886  0.5120596612294649  0.48914120263215466  1.0000
  C   C35       1.0  0.8265739010045298  0.449380793965183  0.4560421644504444  1.0000
  C   C36       1.0  0.17340577741241253  0.5505206082469982  0.5442861813231445  1.0000
  C   C37       1.0  0.7434040926186828  0.46215841048364587  0.45746017358366237  1.0000
  C   C38       1.0  0.256575716475183  0.5377897063752712  0.5427478151517561  1.0000
  N   N1        1.0  0.48442317134913554  0.5254658057102545  0.018836728955179214  1.0000
  N   N2        1.0  0.5157673584426662  0.4746788174555406  0.9812192654520401  1.0000
  N   N3        1.0  0.5134679449493476  0.9815857976614454  0.47278041605415666  1.0000
  N   N4        1.0  0.48653718042072586  0.018457721940222903  0.5268539955722318  1.0000
  N   N5        1.0  0.7209192081123135  0.5106721878454152  0.5116593961676799  1.0000
  N   N6        1.0  0.2790691378220488  0.48944206067787377  0.48840899557344397  1.0000
  N   N7        1.0  0.9755243136414652  0.4740077148310533  0.5137825335627326  1.0000
  N   N8        1.0  0.024440495545903197  0.5259346283590034  0.48657361401612326  1.0000
  N   N9        1.0  0.37808292702457197  0.6046269313761317  0.0964874048951501  1.0000
  N   N10       1.0  0.6221412469819186  0.39560412719977484  0.9035573835885558  1.0000
  N   N11       1.0  0.6308537255063841  0.9062430057718844  0.40364949148155926  1.0000
  N   N12       1.0  0.36917626180805757  0.09366828798432891  0.5960805005056216  1.0000
  N   N13       1.0  0.378196149998587  0.5938630180418727  0.26157436048422517  1.0000
  N   N14       1.0  0.6218899590029423  0.4062984555396413  0.7384135898246313  1.0000
  N   N15       1.0  0.6258534894632177  0.7403389692309832  0.4100717440766886  1.0000
  N   N16       1.0  0.37414614193674833  0.259602856860802  0.5898056776376208  1.0000
  N   N17       1.0  0.2474430400387747  0.40361732890440294  0.3730127618739658  1.0000
  N   N18       1.0  0.752506953860376  0.5968421663080365  0.6268030841496284  1.0000
  N   N19       1.0  0.07256157789385041  0.42438596946992396  0.3678286091639009  1.0000
  N   N20       1.0  0.9273442251694706  0.5757757245721252  0.6323394237336473  1.0000
  N   N21       1.0  0.8443377876179171  0.3919381939347488  0.3968090176963345  1.0000
  N   N22       1.0  0.15566485588725246  0.6078282627284537  0.6036280292370648  1.0000
  O   O1        1.0  0.42831187498774886  0.3759397197619805  0.4994430276929123  1.0000
  O   O2        1.0  0.5716700063073149  0.6241150441456041  0.5005112988670746  1.0000
  O   O3        1.0  0.5787565886391661  0.5146256547151395  0.6227555475668254  1.0000
  O   O4        1.0  0.421201461689961  0.48549762249680845  0.3772790234737329  1.0000
  O   O5        1.0  0.571105781359215  0.39027468033835083  0.505386570697766  1.0000
  O   O6        1.0  0.428887115031664  0.6098155060660205  0.4946980420520292  1.0000
  O   O7        1.0  0.43550448701932976  0.4977104291270606  0.6144981432763217  1.0000
  O   O8        1.0  0.564443706071444  0.5022980032273665  0.38552199209113525  1.0000
  O   O9        1.0  0.39165886081227097  0.6749845501810724  0.11671856343696871  1.0000
  O   O10       1.0  0.32583561977048703  0.5731268502754361  0.0432101224013763  1.0000
  O   O11       1.0  0.6086399651398937  0.3252370286285355  0.8833645247201788  1.0000
  O   O12       1.0  0.6743814228603358  0.4271757242849005  0.9568027992340333  1.0000
  O   O13       1.0  0.6355307510738231  0.8827764963221371  0.3360162104851554  1.0000
  O   O14       1.0  0.6726724495072532  0.9646996235533437  0.4389175939408858  1.0000
  O   O15       1.0  0.3645201880624641  0.11713191662899189  0.6637161572555144  1.0000
  O   O16       1.0  0.3273862709650857  0.0352002429694167  0.5608141528978123  1.0000
  O   O17       1.0  0.3024232275391513  0.5830363763459803  0.2366343301530662  1.0000
  O   O18       1.0  0.41218946756671926  0.6386787479017855  0.3164112974751063  1.0000
  O   O19       1.0  0.6976868161958976  0.4172533472499752  0.7632547326487966  1.0000
  O   O20       1.0  0.587879451909835  0.36144286258858926  0.6836214151320591  1.0000
  O   O21       1.0  0.7002706356175639  0.7566610526138862  0.43821775216672176  1.0000
  O   O22       1.0  0.5978456850967364  0.6960708437655186  0.35317291745398904  1.0000
  O   O23       1.0  0.29972719132985043  0.24332043368109876  0.5616625107236288  1.0000
  O   O24       1.0  0.4022097170918217  0.30382390629569045  0.6467248416096467  1.0000
  O   O25       1.0  0.27636171730269155  0.34481881135594256  0.3955029277566169  1.0000
  O   O26       1.0  0.23903314269917086  0.4276161496558544  0.3065631609315673  1.0000
  O   O27       1.0  0.7236398832517711  0.655574828206916  0.6040554389932069  1.0000
  O   O28       1.0  0.7608250170631339  0.5730841103456187  0.6933501894851446  1.0000
  O   O29       1.0  0.023034861004475698  0.4660551792115939  0.33631484574836884  1.0000
  O   O30       1.0  0.0768535330500413  0.3551214273616523  0.3516366497973777  1.0000
  O   O31       1.0  0.9767127442475927  0.5340705047426867  0.6640282174762077  1.0000
  O   O32       1.0  0.9231777099112082  0.6450979451307222  0.6483468823441569  1.0000
  O   O33       1.0  0.7912978057469078  0.3759356372200743  0.3393867683254186  1.0000
  O   O34       1.0  0.9102806792025578  0.36257161193482557  0.4114101483018828  1.0000
  O   O35       1.0  0.20865416201504428  0.6236417415369147  0.6611167779663559  1.0000
  O   O36       1.0  0.08975654848713084  0.6372625037848964  0.5890699509159916  1.0000
  F   F1        1.0  0.41774403161183943  0.5912293297735616  0.7442040112421111  1.0000
  F   F2        1.0  0.5820899980316414  0.40867584137768637  0.25585589427879546  1.0000
  F   F3        1.0  0.6049651239398418  0.259812365974362  0.42875731065647227  1.0000
  F   F4        1.0  0.3951364285035198  0.7403408933273283  0.5712364969841134  1.0000
