data_image0
_chemical_formula_structural       Cd2H20C16Br4N8
_chemical_formula_sum              "Cd2 H20 C16 Br4 N8"
_cell_length_a       4.913908106641769
_cell_length_b       8.373283466115252
_cell_length_c       15.360937464084877
_cell_angle_alpha    87.26177741362373
_cell_angle_beta     80.76114462620565
_cell_angle_gamma    72.66565653043645

_space_group_name_H-M_alt    "P 1"
_space_group_IT_number       1

loop_
  _space_group_symop_operation_xyz
  'x, y, z'

loop_
  _atom_site_type_symbol
  _atom_site_label
  _atom_site_symmetry_multiplicity
  _atom_site_fract_x
  _atom_site_fract_y
  _atom_site_fract_z
  _atom_site_occupancy
  Cd  Cd1       1.0  0.6254462156230503  0.7478674385655993  0.0006517145255599936  1.0000
  Cd  Cd2       1.0  0.37572950197380806  0.24766546888663754  0.4994442728526919  1.0000
  H   H1        1.0  0.2154294860655383  0.353597662486692  0.2521500312518937  1.0000
  H   H2        1.0  0.42964134177142216  0.3515568154799666  0.747833469593381  1.0000
  H   H3        1.0  0.9271565209277024  0.8516254943151723  0.7522300548218083  1.0000
  H   H4        1.0  0.21766227289709397  0.853592617368001  0.24789705345496316  1.0000
  H   H5        1.0  0.5100294075427173  0.5897387778150502  0.20751240012403116  1.0000
  H   H6        1.0  0.8972972392285637  0.5898883794773369  0.792758552023784  1.0000
  H   H7        1.0  0.43921916255651194  0.08960614818182222  0.7074926711735612  1.0000
  H   H8        1.0  0.4680152481083366  0.0894966269638076  0.29250750221316213  1.0000
  H   H9        1.0  0.05562551179680501  0.21908331869823167  0.035003911078867085  1.0000
  H   H10       1.0  0.7276772100598092  0.2161399038366838  0.964629400703444  1.0000
  H   H11       1.0  0.4417155178182312  0.7164024303506834  0.5351784682143259  1.0000
  H   H12       1.0  0.8399218990211706  0.7189387402695004  0.4649172820191153  1.0000
  H   H13       1.0  0.8569385047096457  0.261088266293008  0.14428394483940818  1.0000
  H   H14       1.0  0.8849470051209496  0.260107176291541  0.8560045528665295  1.0000
  H   H15       1.0  0.49051504205849006  0.7601215005195883  0.6437504817801949  1.0000
  H   H16       1.0  0.7510413564128695  0.76118560934615  0.3556605351138841  1.0000
  H   H17       1.0  0.21104477308786324  0.11334484488280341  0.12609011792445557  1.0000
  H   H18       1.0  0.6813855543598207  0.11237330732885913  0.872719581032136  1.0000
  H   H19       1.0  0.3037704060512709  0.6123804058786391  0.6270926139460611  1.0000
  H   H20       1.0  0.08681767380482332  0.6133858910380567  0.3737853652051726  1.0000
  C   C1        1.0  0.29832818993158106  0.4563989559612054  0.045413930929342386  1.0000
  C   C2        1.0  0.24669641575199083  0.4563317690926567  0.9543708027656094  1.0000
  C   C3        1.0  0.9503358571042285  0.956287035034478  0.5456900326076803  1.0000
  C   C4        1.0  0.09331246945951233  0.9563673970630971  0.4546323780791396  1.0000
  C   C5        1.0  0.2721871522598748  0.4085601422315221  0.18914250076925745  1.0000
  C   C6        1.0  0.3183599779719161  0.40735555764172904  0.81077969655756  1.0000
  C   C7        1.0  0.8785795553077664  0.9072931099379887  0.689298656894067  1.0000
  C   C8        1.0  0.2114067511324721  0.9085428048260197  0.3108998691386162  1.0000
  C   C9        1.0  0.41425219427046045  0.5270773961071241  0.16618158613131578  1.0000
  C   C10       1.0  0.057286863863701645  0.5270073733897789  0.8338607860818426  1.0000
  C   C11       1.0  0.6403426391153526  0.026787892254994  0.6663002904056512  1.0000
  C   C12       1.0  0.3306463557066264  0.026955661175243496  0.3338758655056893  1.0000
  C   C13       1.0  0.07135702260323736  0.23180644137383416  0.10439802064398408  1.0000
  C   C14       1.0  0.6997779695135052  0.2303770795559004  0.8952141407227217  1.0000
  C   C15       1.0  0.34446609913769777  0.7304542000734885  0.6046180090831398  1.0000
  C   C16       1.0  0.92541138740674  0.7318253744119616  0.39554888088336776  1.0000
  Br  Br1       1.0  0.7684173812848626  0.8968198354185761  0.1209552442568267  1.0000
  Br  Br2       1.0  0.33333988113130175  0.9004842429104656  0.8806707947786448  1.0000
  Br  Br3       1.0  0.9629891776337157  0.40049825317140636  0.6193121491509359  1.0000
  Br  Br4       1.0  0.6391912604510636  0.396356713683197  0.37898064613544585  1.0000
  N   N1        1.0  0.42935235014891054  0.5558434319214811  0.0770193214596162  1.0000
  N   N2        1.0  0.015040545047582964  0.5564178973858134  0.9229106270604388  1.0000
  N   N3        1.0  0.6870468603614764  0.056212686898426505  0.5772391035727722  1.0000
  N   N4        1.0  0.256267741663926  0.0556955334120346  0.42304523018648865  1.0000
  N   N5        1.0  0.2015933543425063  0.3645487530458952  0.11254566147049869  1.0000
  N   N6        1.0  0.4350013173191556  0.3634715142631891  0.8872045304070822  1.0000
  N   N7        1.0  0.07164861642458924  0.8635320357408885  0.6128112261560118  1.0000
  N   N8        1.0  0.06380608016752395  0.8645888772541995  0.38748199914020615  1.0000
