data_image0
_chemical_formula_structural       Cu12H84C108N24
_chemical_formula_sum              "Cu12 H84 C108 N24"
_cell_length_a       27.789478777800902
_cell_length_b       29.770925094231767
_cell_length_c       30.758810375895116
_cell_angle_alpha    90.24653917670351
_cell_angle_beta     92.29695546893407
_cell_angle_gamma    90.65304012132721

_space_group_name_H-M_alt    "P 1"
_space_group_IT_number       1

loop_
  _space_group_symop_operation_xyz
  'x, y, z'

loop_
  _atom_site_type_symbol
  _atom_site_label
  _atom_site_symmetry_multiplicity
  _atom_site_fract_x
  _atom_site_fract_y
  _atom_site_fract_z
  _atom_site_occupancy
  Cu  Cu1       1.0  0.14682791812968793  0.22070051190738138  0.7805696918349625  1.0000
  Cu  Cu2       1.0  0.23496022024543348  0.15727477196920603  0.7998795683999731  1.0000
  Cu  Cu3       1.0  0.21297851819092983  0.23560155925361678  0.8664562872273791  1.0000
  Cu  Cu4       1.0  0.8897568288763509  0.2231140527685796  0.2197827941193111  1.0000
  Cu  Cu5       1.0  0.8086597953142199  0.14865821270046817  0.2141591118371338  1.0000
  Cu  Cu6       1.0  0.8014627357534818  0.23847089274979547  0.1562629650428136  1.0000
  Cu  Cu7       1.0  0.8142621338882564  0.7573688992585591  0.7334332500973632  1.0000
  Cu  Cu8       1.0  0.7267377497635366  0.8220439753096405  0.7401916307518234  1.0000
  Cu  Cu9       1.0  0.7556605283409963  0.7605698588238429  0.8206302179406251  1.0000
  Cu  Cu10      1.0  0.1426991401877942  0.7788410975274973  0.23007708066315052  1.0000
  Cu  Cu11      1.0  0.20912566725982626  0.865629334642911  0.2430758979947072  1.0000
  Cu  Cu12      1.0  0.23946342155326045  0.7868772720979823  0.18064616119342256  1.0000
  H   H1        1.0  0.0923904851269981  0.1674450147100971  0.7035755923441372  1.0000
  H   H2        1.0  0.2183350495930299  0.08444536668303473  0.7239436099060228  1.0000
  H   H3        1.0  0.17006221953248257  0.32598573651326035  0.9018036786187551  1.0000
  H   H4        1.0  0.0802460540497449  0.3067106905565922  0.7846672679603303  1.0000
  H   H5        1.0  0.3249994995106675  0.11359061550211186  0.8467803184447433  1.0000
  H   H6        1.0  0.2838244890459691  0.20724032318950247  0.946531502456537  1.0000
  H   H7        1.0  0.9428056412767133  0.19826350572332538  0.30908564079301476  1.0000
  H   H8        1.0  0.8377308323824764  0.08966617500420433  0.29818905158157344  1.0000
  H   H9        1.0  0.8351323494949625  0.3277252749761673  0.10730140682301943  1.0000
  H   H10       1.0  0.9650297735404862  0.2928553214200137  0.18166827443533154  1.0000
  H   H11       1.0  0.7240662603866993  0.0913080248997034  0.1684720178413386  1.0000
  H   H12       1.0  0.7026037412073975  0.21963973620344032  0.10501576924586692  1.0000
  H   H13       1.0  0.8698841130828541  0.8020660528212532  0.6564556722347916  1.0000
  H   H14       1.0  0.7517430884351767  0.8943240644909809  0.6689978356113286  1.0000
  H   H15       1.0  0.8134685681666625  0.6890291644367964  0.877450103389549  1.0000
  H   H16       1.0  0.8851759937093391  0.6773357624708256  0.755420176980941  1.0000
  H   H17       1.0  0.6305703628202365  0.864550585288868  0.7725928389640304  1.0000
  H   H18       1.0  0.6836935226729537  0.7987687838144171  0.890140001612238  1.0000
  H   H19       1.0  0.0705449429884055  0.7922349651846333  0.306424055218578  1.0000
  H   H20       1.0  0.16077028691703532  0.9111002814306632  0.3240588104295625  1.0000
  H   H21       1.0  0.22934145437067602  0.7024649417510535  0.11710386957549451  1.0000
  H   H22       1.0  0.08965814512124128  0.7006519194087701  0.1749685261122167  1.0000
  H   H23       1.0  0.2770309078991602  0.9442558178615247  0.2076406984735897  1.0000
  H   H24       1.0  0.332917963665416  0.8282883999614088  0.141570070673545  1.0000
  H   H25       1.0  0.5197700549410698  0.07853835579686576  0.0023690875873825013  1.0000
  H   H26       1.0  0.5519677795871588  0.9449841948200376  0.05020397788656081  1.0000
  H   H27       1.0  0.5062011233022474  0.9805008638775735  0.9188447343299444  1.0000
  H   H28       1.0  0.41038012582590966  0.9918110592525482  0.009779560046894195  1.0000
  H   H29       1.0  0.0940132591752629  0.015874431120451504  0.5240039630420412  1.0000
  H   H30       1.0  0.9703145275709204  0.9449773667662884  0.4660221922086976  1.0000
  H   H31       1.0  0.9739494888330569  0.08308515703130581  0.5102837704592744  1.0000
  H   H32       1.0  0.9855653162515453  0.9881890490137197  0.6002812179857457  1.0000
  H   H33       1.0  0.010702965213589299  0.518339883977042  0.9000090175415423  1.0000
  H   H34       1.0  0.951355166486664  0.5503289432562327  0.024361941371260798  1.0000
  H   H35       1.0  0.1017069864532587  0.5266341644945458  0.001792929020780301  1.0000
  H   H36       1.0  0.011476203585353098  0.42296582986041653  0.9877877772812483  1.0000
  H   H37       1.0  0.07004868098479732  0.11853719011617876  0.6410873582032365  1.0000
  H   H38       1.0  0.09689475067877851  0.0266219329849804  0.6005813668641409  1.0000
  H   H39       1.0  0.15226524343250963  0.0519256143725144  0.660063493311732  1.0000
  H   H40       1.0  0.0135162254655796  0.0921035679810842  0.5823249053204692  1.0000
  H   H41       1.0  0.8880173631059377  0.05411936022332502  0.36551654560522456  1.0000
  H   H42       1.0  0.9608022966256868  0.09370901553261755  0.43534422657637606  1.0000
  H   H43       1.0  0.9447256194794562  0.1430216566926177  0.3789254923103513  1.0000
  H   H44       1.0  0.9171449597619769  0.9985231434914257  0.4255319856686413  1.0000
  H   H45       1.0  0.8909239820853471  0.8529658792895849  0.5879160849697984  1.0000
  H   H46       1.0  0.8981042419016206  0.9574156838975871  0.5886184654837905  1.0000
  H   H47       1.0  0.8325394045258179  0.9291941238363822  0.6276005207356903  1.0000
  H   H48       1.0  0.9483280912549289  0.8883557891779221  0.531676461384791  1.0000
  H   H49       1.0  0.1212453849566231  0.9206957556712683  0.3949961045306551  1.0000
  H   H50       1.0  0.018578243726544492  0.9063799989613414  0.4291275726717103  1.0000
  H   H51       1.0  0.03976582840672901  0.8533031762136007  0.3696616187177071  1.0000
  H   H52       1.0  0.10647889843269809  0.9649494147443749  0.4581720800833367  1.0000
  H   H53       1.0  0.13378892083174782  0.40049651319999674  0.9073191073599247  1.0000
  H   H54       1.0  0.0329250781293453  0.4417812436224296  0.8873372477672845  1.0000
  H   H55       1.0  0.052555378186440294  0.3782185073651831  0.8392179395216529  1.0000
  H   H56       1.0  0.11184010393809979  0.4576581928761955  0.959157373880771  1.0000
  H   H57       1.0  0.0642974252736721  0.6427144995879674  0.1159900030566092  1.0000
  H   H58       1.0  0.1133492297497085  0.5896151477969414  0.0431348426924387  1.0000
  H   H59       1.0  0.166523797627498  0.6400019427343582  0.08065497528509981  1.0000
  H   H60       1.0  0.008605758593347399  0.589932776139186  0.0723058863435142  1.0000
  H   H61       1.0  0.8837881691392725  0.4013328560308906  0.08706000472452761  1.0000
  H   H62       1.0  0.9918846974519723  0.4134009688104428  0.0664057233806616  1.0000
  H   H63       1.0  0.9784999713542958  0.35553631739574604  0.11644534650989159  1.0000
  H   H64       1.0  0.9048974993604589  0.4726123000784953  0.041832585351201615  1.0000
  H   H65       1.0  0.8728347790819482  0.6308778749166921  0.9070841755293203  1.0000
  H   H66       1.0  0.9587289988190334  0.5756242393239718  0.8749094826731252  1.0000
  H   H67       1.0  0.9220359628159471  0.6221146810156243  0.8193886910792544  1.0000
  H   H68       1.0  0.9124052776293821  0.5841542980607245  0.9638465983690309  1.0000
  H   H69       1.0  0.38869568100791707  0.09022352149160895  0.8956205029513811  1.0000
  H   H70       1.0  0.418801730828207  0.0878061487339536  0.9941610450285696  1.0000
  H   H71       1.0  0.3545233160439381  0.14424546048791603  0.9740814910135498  1.0000
  H   H72       1.0  0.447701539488456  0.0349857570523895  0.9131547990889787  1.0000
  H   H73       1.0  0.6302639530019362  0.8599631487882322  0.9304657425495434  1.0000
  H   H74       1.0  0.5414387074110394  0.9162475937499727  0.9010684207814919  1.0000
  H   H75       1.0  0.5774098293377463  0.8817627873222166  0.843200891313096  1.0000
  H   H76       1.0  0.5920996469509204  0.9059082444212624  0.9913482484253748  1.0000
  H   H77       1.0  0.4044282778354855  0.8806697363419503  0.1235399839794127  1.0000
  H   H78       1.0  0.4035152354819473  0.9793230696373316  0.0904427662685734  1.0000
  H   H79       1.0  0.34328720649473604  0.9636785220525612  0.1426192856683741  1.0000
  H   H80       1.0  0.4749691465820333  0.902641114516904  0.0770357193499649  1.0000
  H   H81       1.0  0.6573771863218666  0.06106603826723502  0.115566365834546  1.0000
  H   H82       1.0  0.5794423419506174  0.10049890077795713  0.051891860912121515  1.0000
  H   H83       1.0  0.6340117067890674  0.15592083041344307  0.0813838680881531  1.0000
  H   H84       1.0  0.6015904210547731  0.0036516274111662007  0.08072637967533322  1.0000
  C   C1        1.0  0.1262103860656723  0.1520837884411179  0.7137355916211661  1.0000
  C   C2        1.0  0.14779430878579802  0.11277633014818633  0.6984103296898709  1.0000
  C   C3        1.0  0.1904231097353488  0.10964986469779354  0.7244451456483249  1.0000
  C   C4        1.0  0.15272119182429114  0.31521244573998797  0.8712155913680563  1.0000
  C   C5        1.0  0.11422940129695289  0.3346379240924764  0.8470568636412565  1.0000
  C   C6        1.0  0.10656301563995639  0.3050254438080275  0.8116454529940498  1.0000
  C   C7        1.0  0.3095679441492079  0.13973879091926733  0.8663721270412597  1.0000
  C   C8        1.0  0.3206154954598758  0.15247603687726047  0.9098184022795479  1.0000
  C   C9        1.0  0.2882503368821787  0.18742784236174975  0.9172688085153595  1.0000
  C   C10       1.0  0.9140353891093509  0.17471478627587095  0.2998086673118224  1.0000
  C   C11       1.0  0.8986139430044489  0.13596724168173324  0.3216012273312145  1.0000
  C   C12       1.0  0.8608053356042121  0.11887125996433671  0.2941800642019956  1.0000
  C   C13       1.0  0.8624730355169916  0.3140806565776091  0.1295270895105958  1.0000
  C   C14       1.0  0.911470794386865  0.3262102491490851  0.1355223548423652  1.0000
  C   C15       1.0  0.9289715367465446  0.29572457647652334  0.1670683060347855  1.0000
  C   C16       1.0  0.7255609855205591  0.12551565241191304  0.1565050626300675  1.0000
  C   C17       1.0  0.6948574291573948  0.14748906030386172  0.1260448274747645  1.0000
  C   C18       1.0  0.714563736689179  0.19121934586666364  0.12447202192404208  1.0000
  C   C19       1.0  0.836871035860817  0.8192738977986381  0.6635788116871951  1.0000
  C   C20       1.0  0.8202619526812499  0.8614098509305067  0.6491711738537094  1.0000
  C   C21       1.0  0.7769489418590683  0.8667173959219812  0.6707378252079366  1.0000
  C   C22       1.0  0.8261241477631387  0.6914911014670722  0.8446151223508663  1.0000
  C   C23       1.0  0.8632542540572317  0.668088877252906  0.8246778733239141  1.0000
  C   C24       1.0  0.8625250841002909  0.6856346798880325  0.7822021234185003  1.0000
  C   C25       1.0  0.6495079545826952  0.8448374523155168  0.7973460479954895  1.0000
  C   C26       1.0  0.6408964137401298  0.8413297423496007  0.8420276863462491  1.0000
  C   C27       1.0  0.6768891634427163  0.8118355105553621  0.857624721561301  1.0000
  C   C28       1.0  0.0971442267438647  0.8191142680106228  0.30494109820291737  1.0000
  C   C29       1.0  0.1034912033635038  0.8574323754798386  0.3316236100944394  1.0000
  C   C30       1.0  0.1435736030047323  0.8795121506617322  0.31433464601101957  1.0000
  C   C31       1.0  0.19779480697296484  0.7077363777981563  0.1361292044121001  1.0000
  C   C32       1.0  0.15259985924672753  0.6858128369630166  0.1328711208090922  1.0000
  C   C33       1.0  0.1263070160778028  0.706780487562604  0.1654059745081611  1.0000
  C   C34       1.0  0.28510893623225547  0.9112283320076034  0.1949028061901501  1.0000
  C   C35       1.0  0.32082132363383664  0.8987992308451073  0.16606189027535834  1.0000
  C   C36       1.0  0.3143021673942599  0.8519777518285996  0.1616844309315653  1.0000
  C   C37       1.0  0.47858721965763357  0.016295774444053307  0.9779533835829357  1.0000
  C   C38       1.0  0.5165912841519003  0.04228982458981531  0.0060542922336779045  1.0000
  C   C39       1.0  0.5439886705158018  0.016435201453418806  0.0330210665358877  1.0000
  C   C40       1.0  0.5299772857970523  0.9662595655314877  0.028425991377695  1.0000
  C   C41       1.0  0.5074529704108386  0.9810009456780764  0.9542875541205336  1.0000
  C   C42       1.0  0.5346513778798895  0.9539638902780256  0.9801453081128884  1.0000
  C   C43       1.0  0.4494828922293763  0.9897497718322515  0.010899385040076504  1.0000
  C   C44       1.0  0.4760496256317595  0.9635234933596454  0.03792631181689641  1.0000
  C   C45       1.0  0.0174081244823228  0.02846698078814571  0.5450385897559044  1.0000
  C   C46       1.0  0.0564586942078549  0.005482342988088401  0.519286412743142  1.0000
  C   C47       1.0  0.039964815988526  0.9748381875352694  0.4895259672081878  1.0000
  C   C48       1.0  0.984806172552183  0.96967428850914  0.4897189843838063  1.0000
  C   C49       1.0  0.9828688045846263  0.04754504515797461  0.5099114247919019  1.0000
  C   C50       1.0  0.9661845255365408  0.017419394542642408  0.47985612727862303  1.0000
  C   C51       1.0  0.9888452763374576  0.9896996884101485  0.5651791842372873  1.0000
  C   C52       1.0  0.9710456573366599  0.959025380647525  0.5363859855936042  1.0000
  C   C53       1.0  0.041143882544304206  0.4899529593297986  0.9639248892164929  1.0000
  C   C54       1.0  0.006418995743594301  0.5175607229307462  0.9350351829918822  1.0000
  C   C55       1.0  0.9733568084707328  0.5406082786794217  0.9569248766803113  1.0000
  C   C56       1.0  0.9781712063950961  0.5320235474723135  0.006249262274287999  1.0000
  C   C57       1.0  0.0627249338149198  0.5233308252834877  0.9974280448318495  1.0000
  C   C58       1.0  0.030161673019236397  0.5460473284177143  0.0201862344651147  1.0000
  C   C59       1.0  0.0081045553330767  0.4592641744804596  0.990216659375264  1.0000
  C   C60       1.0  0.975311695981226  0.48099259876861583  0.013177467454205803  1.0000
  C   C61       1.0  0.1310296093558989  0.08229422237701561  0.6642631443258296  1.0000
  C   C62       1.0  0.09156772835568461  0.08823126018682363  0.637590666087199  1.0000
  C   C63       1.0  0.07531055443393339  0.056889448321470616  0.6042858139710248  1.0000
  C   C64       1.0  0.0355497889011929  0.06221738491073843  0.5782298716328852  1.0000
  C   C65       1.0  0.9192879558841937  0.11979319512918356  0.3621497752014022  1.0000
  C   C66       1.0  0.9121640120413872  0.07917434209511504  0.381187919241235  1.0000
  C   C67       1.0  0.9374782801946039  0.06729990556105041  0.4207879721274423  1.0000
  C   C68       1.0  0.9376163089912736  0.02650479971089941  0.4406799342095766  1.0000
  C   C69       1.0  0.8438064363210672  0.8944286467639488  0.6228699818200808  1.0000
  C   C70       1.0  0.879931465473433  0.8873048372381978  0.5952060131297969  1.0000
  C   C71       1.0  0.9063607554261708  0.9237248268000048  0.5767444262091815  1.0000
  C   C72       1.0  0.9414554442162666  0.920673584658147  0.5473197490393886  1.0000
  C   C73       1.0  0.07426309293656173  0.8710268200456641  0.367063361752713  1.0000
  C   C74       1.0  0.08596750364311129  0.9040716364456929  0.3964705425235309  1.0000
  C   C75       1.0  0.0551616602348801  0.9203977864239623  0.429106897351609  1.0000
  C   C76       1.0  0.0690965281443212  0.9529029165154416  0.4585709709283776  1.0000
  C   C77       1.0  0.08686467197920679  0.373973271997393  0.8574136963102035  1.0000
  C   C78       1.0  0.0991993442205583  0.4039658564246908  0.8893675683612089  1.0000
  C   C79       1.0  0.0678642757459187  0.43818971218327374  0.9047043006970412  1.0000
  C   C80       1.0  0.07735375467743208  0.4623751557741401  0.9413281400335338  1.0000
  C   C81       1.0  0.13832681044377182  0.6512835352291618  0.1019197171241188  1.0000
  C   C82       1.0  0.09372538099577808  0.6322534641177956  0.0957301533041104  1.0000
  C   C83       1.0  0.08313205314581747  0.5991958643529784  0.0628770027954175  1.0000
  C   C84       1.0  0.039339690646016785  0.5795618078527344  0.0536216150185354  1.0000
  C   C85       1.0  0.9393832886628743  0.3597444571264675  0.1137365062365063  1.0000
  C   C86       1.0  0.9224863192702486  0.39478891582651704  0.08955545320375793  1.0000
  C   C87       1.0  0.9538903511895498  0.42292929028792514  0.06551598648708531  1.0000
  C   C88       1.0  0.9414979072124227  0.4593944612882909  0.04113689813874541  1.0000
  C   C89       1.0  0.8959864205645757  0.6348846208677018  0.8420702091408075  1.0000
  C   C90       1.0  0.8982741723527068  0.6187815073648083  0.8835039796175224  1.0000
  C   C91       1.0  0.9332407878460317  0.5871164984355776  0.898719855413418  1.0000
  C   C92       1.0  0.9376148571715532  0.5715414791609775  0.9403101510476617  1.0000
  C   C93       1.0  0.35543573515911225  0.13300241028078122  0.9401920513926144  1.0000
  C   C94       1.0  0.38747753685319  0.10111566115723046  0.9296244508381193  1.0000
  C   C95       1.0  0.419398502887823  0.07811711404288253  0.9597727799337292  1.0000
  C   C96       1.0  0.4479968925202654  0.04429192678454541  0.9476560271580965  1.0000
  C   C97       1.0  0.604781302524117  0.8657520482798305  0.8643632954658358  1.0000
  C   C98       1.0  0.6028839764977504  0.8738789703819879  0.9079121218320054  1.0000
  C   C99       1.0  0.5681025666385153  0.9034511356515867  0.9249904000708042  1.0000
  C   C100      1.0  0.5666434095963169  0.9191208633087701  0.9666309249917688  1.0000
  C   C101      1.0  0.3531190766418532  0.9281672187456781  0.143612903386618  1.0000
  C   C102      1.0  0.3925464060937216  0.9156004355942715  0.12187565031385363  1.0000
  C   C103      1.0  0.4181006353236755  0.9454705108884556  0.0943476182646563  1.0000
  C   C104      1.0  0.457288946421741  0.9349223663382563  0.0712871349300812  1.0000
  C   C105      1.0  0.6537312810050722  0.13078150318217752  0.10068578696785122  1.0000
  C   C106      1.0  0.6381183733221006  0.08728818511749382  0.0973277836812798  1.0000
  C   C107      1.0  0.5981786994296668  0.07356656698691923  0.0695759564374399  1.0000
  C   C108      1.0  0.5827985889042607  0.03034553568524961  0.0627777553073159  1.0000
  N   N1        1.0  0.19393237560130672  0.14436875692851467  0.7527554623038029  1.0000
  N   N2        1.0  0.1539455632353466  0.17063910407512148  0.7460570899968603  1.0000
  N   N3        1.0  0.1380763606222217  0.2709269212211751  0.8144720125896043  1.0000
  N   N4        1.0  0.166636050167476  0.2772749626677538  0.8515939863011824  1.0000
  N   N5        1.0  0.26035909358748205  0.19483710933148055  0.8811382014706481  1.0000
  N   N6        1.0  0.2735891150562537  0.165005925796507  0.8496084597831554  1.0000
  N   N7        1.0  0.8545931647621429  0.14543235769633614  0.259063561002236  1.0000
  N   N8        1.0  0.8878764414897091  0.18000008084629834  0.2624637836998431  1.0000
  N   N9        1.0  0.8932307511228074  0.2680689228635061  0.17903671287422898  1.0000
  N   N10       1.0  0.8519739001862235  0.2792565597121595  0.1554740647347899  1.0000
  N   N11       1.0  0.7538442445912777  0.19481825200250572  0.1514476391712165  1.0000
  N   N12       1.0  0.7605278209927846  0.15395598731065974  0.1714725743283694  1.0000
  N   N13       1.0  0.7685627435745559  0.8307159917372787  0.6958706214531176  1.0000
  N   N14       1.0  0.8060453258368696  0.801362007511415  0.6916726570150403  1.0000
  N   N15       1.0  0.8280497255877464  0.7168898936135691  0.7773703805124869  1.0000
  N   N16       1.0  0.8054416726390558  0.7204910442216319  0.8162309258807455  1.0000
  N   N17       1.0  0.7046222597873211  0.7993040745261056  0.8248174643383592  1.0000
  N   N18       1.0  0.687829839337837  0.8200759837189157  0.7873757134020138  1.0000
  N   N19       1.0  0.1594946662455854  0.856113634031978  0.2803002173724636  1.0000
  N   N20       1.0  0.1307340565777295  0.8184537430205483  0.2745104146380228  1.0000
  N   N21       1.0  0.153757377193223  0.7384998945417112  0.18597839725249804  1.0000
  N   N22       1.0  0.19822116350633934  0.739200893996504  0.1677643471918771  1.0000
  N   N23       1.0  0.2776176338785419  0.8379675105233207  0.1857657273515656  1.0000
  N   N24       1.0  0.2596447662057244  0.8747662222581456  0.2067274444151579  1.0000
