data_image0
_chemical_formula_structural       Cu6H60C60N56O4
_chemical_formula_sum              "Cu6 H60 C60 N56 O4"
_cell_length_a       13.241948819968991
_cell_length_b       14.54598911791784
_cell_length_c       15.515765219905687
_cell_angle_alpha    89.996855641249
_cell_angle_beta     91.36374642419159
_cell_angle_gamma    90.0033587394247

_space_group_name_H-M_alt    "P 1"
_space_group_IT_number       1

loop_
  _space_group_symop_operation_xyz
  'x, y, z'

loop_
  _atom_site_type_symbol
  _atom_site_label
  _atom_site_symmetry_multiplicity
  _atom_site_fract_x
  _atom_site_fract_y
  _atom_site_fract_z
  _atom_site_occupancy
  Cu  Cu1       1.0  0.9999820501976872  2.462892247480001e-05  0.9999159984700656  1.0000
  Cu  Cu2       1.0  0.49994920717724506  0.4999690336602001  0.4999425600200313  1.0000
  Cu  Cu3       1.0  0.9848385318301567  0.20760599247623188  0.10246872232691123  1.0000
  Cu  Cu4       1.0  0.5152613565510649  0.7075038619561981  0.3974219350663618  1.0000
  Cu  Cu5       1.0  0.0151199864711913  0.7922956365682906  0.8975414801208645  1.0000
  Cu  Cu6       1.0  0.48473186975341787  0.29263288378907487  0.6026070790461946  1.0000
  H   H1        1.0  0.5689157940050505  0.38068774841359965  0.7585552885291806  1.0000
  H   H2        1.0  0.9305852503077078  0.8803321648349468  0.7419791641317988  1.0000
  H   H3        1.0  0.4307714652825538  0.6194696051237827  0.24176726415517896  1.0000
  H   H4        1.0  0.0692877375243413  0.11945946424307151  0.2580929461290183  1.0000
  H   H5        1.0  0.6925700155283252  0.3385981572467288  0.87829026243616  1.0000
  H   H6        1.0  0.8071728307779226  0.8383415457522716  0.6220390469861459  1.0000
  H   H7        1.0  0.30725582827133024  0.6614725818481162  0.12190196004788593  1.0000
  H   H8        1.0  0.19272355062030042  0.16140746023295804  0.3780419629856128  1.0000
  H   H9        1.0  0.7336695266785398  0.077792887096706  0.7513512832039385  1.0000
  H   H10       1.0  0.7664128487184955  0.5771514002144685  0.7484067382734739  1.0000
  H   H11       1.0  0.26639982152315156  0.922527422720286  0.24846028577516688  1.0000
  H   H12       1.0  0.2337141293072875  0.42253436615217776  0.2516014138662045  1.0000
  H   H13       1.0  0.6090063750673951  0.13184988594514382  0.6359427088801016  1.0000
  H   H14       1.0  0.8908364522102235  0.6311537299800989  0.8640353554776043  1.0000
  H   H15       1.0  0.3909524137948495  0.8685398529964276  0.36397081088166067  1.0000
  H   H16       1.0  0.10918386958287839  0.3686186538725664  0.1360271402170099  1.0000
  H   H17       1.0  0.36985188729563845  0.3034352083406093  0.7590266812919  1.0000
  H   H18       1.0  0.12991924742780006  0.8032450122731589  0.7410628056962312  1.0000
  H   H19       1.0  0.6299987570895595  0.6966919112613822  0.2409282678049039  1.0000
  H   H20       1.0  0.8699465037402164  0.1966964895852925  0.2588905504756838  1.0000
  H   H21       1.0  0.24915613323526742  0.2071248228740359  0.8405775359335625  1.0000
  H   H22       1.0  0.2506542887213641  0.7070597258414183  0.6594204699482377  1.0000
  H   H23       1.0  0.7506622259151998  0.7929885486118949  0.15930193299329434  1.0000
  H   H24       1.0  0.749111295130831  0.29289827622046966  0.3404172258803016  1.0000
  H   H25       1.0  0.2532263749260366  0.011651053178830802  0.6310766770820494  1.0000
  H   H26       1.0  0.2470372430069006  0.5116216218971203  0.8689795139536475  1.0000
  H   H27       1.0  0.7471391602651279  0.9882595217040874  0.368994777806897  1.0000
  H   H28       1.0  0.7531254501811161  0.48842025950178675  0.13095337103928276  1.0000
  H   H29       1.0  0.3780925860284584  0.11479270809610398  0.5588966795401549  1.0000
  H   H30       1.0  0.12211638444572509  0.6146474491728001  0.941229029697084  1.0000
  H   H31       1.0  0.6222630253885342  0.8851639261764606  0.44121451302283543  1.0000
  H   H32       1.0  0.8780823796176166  0.3853628072176107  0.058775553743039714  1.0000
  H   H33       1.0  0.0915279287420177  0.2563498654066834  0.920824795896657  1.0000
  H   H34       1.0  0.4086327030169485  0.7563491371068454  0.5790772655626314  1.0000
  H   H35       1.0  0.9084856317509848  0.7437813803712032  0.07922787263206031  1.0000
  H   H36       1.0  0.5913542848546598  0.24357586417079352  0.4210231556582615  1.0000
  H   H37       1.0  0.9679524445599271  0.4807195445382036  0.8002289593760852  1.0000
  H   H38       1.0  0.5321073968325933  0.980758408221199  0.699717862849511  1.0000
  H   H39       1.0  0.03198061781882439  0.519280395244813  0.19969559970130046  1.0000
  H   H40       1.0  0.46796704685892376  0.019237411630904002  0.3001627900587566  1.0000
  H   H41       1.0  0.9648006949582497  0.47673835348438603  0.9158042507659305  1.0000
  H   H42       1.0  0.5353933274477924  0.9767532084493952  0.5841522052825355  1.0000
  H   H43       1.0  0.03517998729785181  0.5233619591043351  0.0841110521455164  1.0000
  H   H44       1.0  0.4646682457728773  0.023138114637781402  0.4157378318348537  1.0000
  H   H45       1.0  0.8672263297613156  0.42258120523657533  0.8519283090375682  1.0000
  H   H46       1.0  0.6328740289210374  0.92261383169582  0.6481171564131503  1.0000
  H   H47       1.0  0.13274661890861245  0.577473731846098  0.14805449641001195  1.0000
  H   H48       1.0  0.3671594994327521  0.07731530072460659  0.3518089932406384  1.0000
  H   H49       1.0  0.0413753116979123  0.34060777453324687  0.7249060679281032  1.0000
  H   H50       1.0  0.4586222937255543  0.8406545282052278  0.7750202462275626  1.0000
  H   H51       1.0  0.9586194624008187  0.6593632903110204  0.2751068721801673  1.0000
  H   H52       1.0  0.5414812399540523  0.15944165953855108  0.22500284235676565  1.0000
  H   H53       1.0  0.9301549273759376  0.2822740648512152  0.7571270842551956  1.0000
  H   H54       1.0  0.5698548502237841  0.7822690357926022  0.742857223944519  1.0000
  H   H55       1.0  0.06983604413095182  0.7177430604033789  0.24289608225512896  1.0000
  H   H56       1.0  0.4301905176097449  0.21774534101973592  0.2571639292751301  1.0000
  H   H57       1.0  0.0515019305157622  0.23772077818232867  0.7881486027308003  1.0000
  H   H58       1.0  0.44848670574994287  0.7377562747615941  0.7117737979969834  1.0000
  H   H59       1.0  0.9484617162613631  0.7622942825118033  0.21192358350023005  1.0000
  H   H60       1.0  0.5515070451914071  0.26227940968410485  0.2883415943744297  1.0000
  C   C1        1.0  0.6070296080006089  0.31427929602150334  0.7606023725696719  1.0000
  C   C2        1.0  0.8925506615343082  0.8138881943552433  0.7397568065782283  1.0000
  C   C3        1.0  0.3926987936797844  0.6858808123483725  0.2395876815689634  1.0000
  C   C4        1.0  0.107336661604478  0.18590068499431572  0.2603220674867331  1.0000
  C   C5        1.0  0.675591338907573  0.29081150959535057  0.8259113537039442  1.0000
  C   C6        1.0  0.8241841627719494  0.7904385889528741  0.6743148065907365  1.0000
  C   C7        1.0  0.32426945203553  0.7093327923586872  0.17420688086539127  1.0000
  C   C8        1.0  0.175772730885825  0.20930285723092376  0.3257366123479742  1.0000
  C   C9        1.0  0.7224289834103035  0.20432638670066444  0.8239429554017337  1.0000
  C   C10       1.0  0.7774879145482317  0.7038801429272041  0.6760981046301213  1.0000
  C   C11       1.0  0.2775204370829201  0.7958591687102087  0.17608315017054826  1.0000
  C   C12       1.0  0.22253477653315912  0.295827619528751  0.3239244859407507  1.0000
  C   C13       1.0  0.6981701949281316  0.1451465155015015  0.7550784280620421  1.0000
  C   C14       1.0  0.8017687343094834  0.6445902459269705  0.74488239214287  1.0000
  C   C15       1.0  0.3018096389084164  0.8551194773835107  0.24487423314376858  1.0000
  C   C16       1.0  0.19828341364057425  0.35512164207745667  0.2551421421327334  1.0000
  C   C17       1.0  0.629075980428432  0.17364859783788233  0.6920899526981188  1.0000
  C   C18       1.0  0.8707731747375647  0.67305369024065  0.8079563442860975  1.0000
  C   C19       1.0  0.37088415037292327  0.8266648295938523  0.3078867605859657  1.0000
  C   C20       1.0  0.1292434203853858  0.3266987573170256  0.19208673386123118  1.0000
  C   C21       1.0  0.7957036033307006  0.1764416698347659  0.8901534243716329  1.0000
  C   C22       1.0  0.7042986211560701  0.6760429753176993  0.6097852707398348  1.0000
  C   C23       1.0  0.20429056923121894  0.8237184521870304  0.10980342534520562  1.0000
  C   C24       1.0  0.29574451000249985  0.32367922510987057  0.39022101662881437  1.0000
  C   C25       1.0  0.3430235666804364  0.23797736693848037  0.7332253198206831  1.0000
  C   C26       1.0  0.15685445906273537  0.7378207302218345  0.7668215818190236  1.0000
  C   C27       1.0  0.656916199045483  0.7621236307048634  0.26673676708639965  1.0000
  C   C28       1.0  0.8430597071980089  0.26214139786434737  0.23310642523657082  1.0000
  C   C29       1.0  0.2746161242000156  0.18522987374581132  0.7776194693872187  1.0000
  C   C30       1.0  0.22527592313696232  0.6851577236684604  0.7223950155162486  1.0000
  C   C31       1.0  0.7253244739591197  0.8148395009479258  0.22231298950019615  1.0000
  C   C32       1.0  0.7745938288092943  0.3148291540927914  0.2774739979509918  1.0000
  C   C33       1.0  0.23979414944817992  0.10228139842724461  0.7414376719160247  1.0000
  C   C34       1.0  0.260217872618  0.6022556720646294  0.7585831141723961  1.0000
  C   C35       1.0  0.7602641956571077  0.8977295428448925  0.2585322092731844  1.0000
  C   C36       1.0  0.7397923473407886  0.3977772696260615  0.24130255522337055  1.0000
  C   C37       1.0  0.2773649643692266  0.07582793026472963  0.6613137205986706  1.0000
  C   C38       1.0  0.22276762860951047  0.5757653381548027  0.8387381808657468  1.0000
  C   C39       1.0  0.7228752510334432  0.9241321404711442  0.3387272334636578  1.0000
  C   C40       1.0  0.7773226026105674  0.42425385538520294  0.16117182521257695  1.0000
  C   C41       1.0  0.3462773411292163  0.13246849035888894  0.6208673458734852  1.0000
  C   C42       1.0  0.15382714025276562  0.6323539276916037  0.8792138793778792  1.0000
  C   C43       1.0  0.6539688635777666  0.8675073918425226  0.3791943651533814  1.0000
  C   C44       1.0  0.8462788060602267  0.3676535775310654  0.12075254847500362  1.0000
  C   C45       1.0  0.16824464639716305  0.04676666174371751  0.7884618894761319  1.0000
  C   C46       1.0  0.3317759440907082  0.5467789891544754  0.7115200575657783  1.0000
  C   C47       1.0  0.8317738060424986  0.9532539047594356  0.21145296607090108  1.0000
  C   C48       1.0  0.6682305413403072  0.4532532654393365  0.2883494161483427  1.0000
  C   C49       1.0  0.052283442559229315  0.32287484286408136  0.9295989899121512  1.0000
  C   C50       1.0  0.44789435983439324  0.8228814574599286  0.5703077545782238  1.0000
  C   C51       1.0  0.9477211889560808  0.6772529668249305  0.07040191963236711  1.0000
  C   C52       1.0  0.552104867940436  0.1770201716991409  0.42973428915440354  1.0000
  C   C53       1.0  0.9485770966296061  0.4385312089618055  0.8562208187912931  1.0000
  C   C54       1.0  0.551537331242244  0.9385585332388687  0.6437538852473923  1.0000
  C   C55       1.0  0.05139592480252019  0.5615168541861238  0.14373427463355887  1.0000
  C   C56       1.0  0.4485105653649627  0.0613891615289717  0.35616678275280134  1.0000
  C   C57       1.0  0.0077725957587447  0.3008817125668841  0.7773191074387713  1.0000
  C   C58       1.0  0.4922480218398491  0.8009016358111937  0.7226374825482156  1.0000
  C   C59       1.0  0.9922070245385516  0.699134724702404  0.2227115408519965  1.0000
  C   C60       1.0  0.5077972923520022  0.19913336463847034  0.2774042931832455  1.0000
  N   N1        1.0  0.583740935534337  0.2564062312274942  0.6954292012569427  1.0000
  N   N2        1.0  0.9158954639934295  0.7559190204677435  0.8048426941677465  1.0000
  N   N3        1.0  0.41605791167646095  0.7438350030561836  0.3046895873872586  1.0000
  N   N4        1.0  0.0840485709718308  0.2438705484180375  0.19521552727493946  1.0000
  N   N5        1.0  0.8415253120245156  0.09330856384914911  0.8910491049370324  1.0000
  N   N6        1.0  0.6584294072309261  0.5929281923348312  0.6088051702039652  1.0000
  N   N7        1.0  0.15847516476604542  0.9068433115374789  0.10880863099208685  1.0000
  N   N8        1.0  0.34165324628367705  0.40677751238532517  0.39110983157638674  1.0000
  N   N9        1.0  0.9025080260955037  0.0967393239378396  0.9591839440483414  1.0000
  N   N10       1.0  0.5975127573352665  0.596429930449517  0.5406265052641714  1.0000
  N   N11       1.0  0.0974939497585439  0.9033658030912123  0.040677693453808714  1.0000
  N   N12       1.0  0.4025713778856713  0.4033211473008721  0.4593001294153397  1.0000
  N   N13       1.0  0.8950505652887204  0.17808274071717287  0.9985636912340045  1.0000
  N   N14       1.0  0.6050259734154793  0.6778090330258948  0.501310183646382  1.0000
  N   N15       1.0  0.1049217454938756  0.8219838847210569  0.0013746287229636999  1.0000
  N   N16       1.0  0.39499750911220854  0.3220671610993763  0.4987008190392644  1.0000
  N   N17       1.0  0.8280267266707213  0.2298807170356127  0.9566154652483551  1.0000
  N   N18       1.0  0.6720234852978351  0.7295529980616989  0.5433505402310106  1.0000
  N   N19       1.0  0.1719333372843295  0.7702051555971822  0.04338381017891632  1.0000
  N   N20       1.0  0.3279650280880091  0.2702516953829175  0.45674282842312425  1.0000
  N   N21       1.0  0.37830980684497467  0.21233841177856055  0.65603592190476  1.0000
  N   N22       1.0  0.12166167166554939  0.7121603224417186  0.8440330712811461  1.0000
  N   N23       1.0  0.6217740992492011  0.7877247768371874  0.34398157517047434  1.0000
  N   N24       1.0  0.8783732200281023  0.2878279311807789  0.15594982380281414  1.0000
  N   N25       1.0  0.12582932052503545  0.07634202928898762  0.8617120331572397  1.0000
  N   N26       1.0  0.37411096670474814  0.5763649465149713  0.638228576586613  1.0000
  N   N27       1.0  0.8741333454378123  0.9236847243340236  0.13815904466587636  1.0000
  N   N28       1.0  0.6258193040089212  0.4236576824098961  0.3616089113527111  1.0000
  N   N29       1.0  0.0700206592125454  0.005980284983969901  0.8859300309576529  1.0000
  N   N30       1.0  0.4299347503431434  0.5060267378668969  0.6139836085019115  1.0000
  N   N31       1.0  0.9299141527873687  0.9940567811183456  0.11390433502048583  1.0000
  N   N32       1.0  0.5699880275742614  0.49399520407436637  0.3858305106320331  1.0000
  N   N33       1.0  0.0768116931012841  0.9358665876555464  0.8307311958118648  1.0000
  N   N34       1.0  0.42320874528342495  0.435923151066838  0.6691958665418485  1.0000
  N   N35       1.0  0.9231638907028954  0.0641560422910956  0.16911116643591845  1.0000
  N   N36       1.0  0.5767646014370343  0.5641063538916669  0.33063548917493085  1.0000
  N   N37       1.0  0.1383857392980659  0.9602884169937838  0.7681106679514899  1.0000
  N   N38       1.0  0.36167547464921074  0.4603120278301347  0.7318540674706641  1.0000
  N   N39       1.0  0.8616599765862462  0.0397287135916073  0.23177836892025286  1.0000
  N   N40       1.0  0.6383340713055503  0.5397181648498091  0.2680006506591823  1.0000
  N   N41       1.0  0.09041709086972824  0.1285159789700216  0.051147030391646815  1.0000
  N   N42       1.0  0.40957825975981876  0.6285672314878286  0.4488015231985117  1.0000
  N   N43       1.0  0.9095704810081815  0.8715162748295386  0.9487329795188659  1.0000
  N   N44       1.0  0.5905676669127047  0.37099961136918586  0.5508944671374041  1.0000
  N   N45       1.0  0.1799482306639248  0.1447982576194704  0.05494657376011251  1.0000
  N   N46       1.0  0.3200483641873007  0.6448960063840232  0.4449334928804164  1.0000
  N   N47       1.0  0.8200302245023678  0.8552511822356125  0.9449532127806324  1.0000
  N   N48       1.0  0.6801349754895227  0.3550826054936281  0.5557642384525252  1.0000
  N   N49       1.0  0.2668110919742901  0.15842756138042802  0.056740460141185216  1.0000
  N   N50       1.0  0.23320694190541502  0.6585697639430349  0.4430820175188118  1.0000
  N   N51       1.0  0.7331681067432712  0.8416232533107577  0.9431638544441657  1.0000
  N   N52       1.0  0.7670579263623054  0.3417979347690548  0.5585030692195262  1.0000
  N   N53       1.0  0.007468564068211899  0.3543717997547163  0.8564178054163638  1.0000
  N   N54       1.0  0.4926477364291842  0.8543833075980914  0.6435271951162633  1.0000
  N   N55       1.0  0.9925043575786319  0.645687261873995  0.14357531144225533  1.0000
  N   N56       1.0  0.5073939017558972  0.14557194684042676  0.3564751860082327  1.0000
  O   O1        1.0  0.04953703268750331  0.36212512508232214  0.0009197322108179007  1.0000
  O   O2        1.0  0.4506927138444397  0.8621171112178346  0.4989981327608249  1.0000
  O   O3        1.0  0.9504525414843386  0.6380391209373426  0.9990621509700335  1.0000
  O   O4        1.0  0.549292998984967  0.1376978967288949  0.5010113874137759  1.0000
