data_image0
_chemical_formula_structural       Sm4H16C32N8Cl12
_chemical_formula_sum              "Sm4 H16 C32 N8 Cl12"
_cell_length_a       6.3020858670161966
_cell_length_b       7.157508773076446
_cell_length_c       22.156174314286577
_cell_angle_alpha    89.99949799835962
_cell_angle_beta     90.00029413390551
_cell_angle_gamma    89.99994499345215

_space_group_name_H-M_alt    "P 1"
_space_group_IT_number       1

loop_
  _space_group_symop_operation_xyz
  'x, y, z'

loop_
  _atom_site_type_symbol
  _atom_site_label
  _atom_site_symmetry_multiplicity
  _atom_site_fract_x
  _atom_site_fract_y
  _atom_site_fract_z
  _atom_site_occupancy
  Sm  Sm1       1.0  0.45106249656041103  0.48959011123793067  0.24999758937744326  1.0000
  Sm  Sm2       1.0  0.9510610709022487  0.010418125012378703  0.7499996467210507  1.0000
  Sm  Sm3       1.0  0.048936646170844304  0.9895868819351321  0.24999749632378607  1.0000
  Sm  Sm4       1.0  0.5489447411868298  0.510409307151285  0.7500009077060525  1.0000
  H   H1        1.0  0.12276166647018272  0.609585039435153  0.1013153991435942  1.0000
  H   H2        1.0  0.6228073309148954  0.8904124815010734  0.898681292392382  1.0000
  H   H3        1.0  0.37723311119477637  0.10958170811863971  0.39868623181921237  1.0000
  H   H4        1.0  0.8772171272447339  0.39041681345315044  0.601314070818951  1.0000
  H   H5        1.0  0.8772059018654234  0.39041717324573705  0.8986826465693483  1.0000
  H   H6        1.0  0.37721260097445264  0.10957436276815002  0.1013099832544597  1.0000
  H   H7        1.0  0.6227884075877342  0.8904121216694706  0.6013167786961445  1.0000
  H   H8        1.0  0.1227869369616243  0.6096049590549343  0.3986866829366278  1.0000
  H   H9        1.0  0.6430272283207686  0.3543728610807761  0.9878310661341416  1.0000
  H   H10       1.0  0.14301460334356617  0.14560211641660462  0.0121630745395294  1.0000
  H   H11       1.0  0.8569750524618058  0.8543782826081524  0.5121653068345253  1.0000
  H   H12       1.0  0.3569928310323007  0.6456330024850134  0.4878361926501142  1.0000
  H   H13       1.0  0.35696572845920127  0.6456083945590553  0.0121683336502727  1.0000
  H   H14       1.0  0.8569624856751902  0.8543861248952213  0.9878367765659846  1.0000
  H   H15       1.0  0.14303059849356714  0.14561554726838466  0.4878313848904483  1.0000
  H   H16       1.0  0.6430556629143567  0.35438597572928643  0.5121650124790165  1.0000
  C   C1        1.0  0.7340799771147176  0.4624902927134472  0.1013728711396524  1.0000
  C   C2        1.0  0.2341237648755978  0.0374999725853655  0.8986308622351586  1.0000
  C   C3        1.0  0.7659071554361391  0.9625026012683195  0.3986260833009894  1.0000
  C   C4        1.0  0.2658892971736152  0.5375171471687566  0.6013766556362086  1.0000
  C   C5        1.0  0.2658939383840604  0.5374979485590787  0.8986301393540614  1.0000
  C   C6        1.0  0.7659072746030802  0.9624994456828306  0.1013762103509919  1.0000
  C   C7        1.0  0.2341175367917074  0.03750100858543701  0.6013669976897731  1.0000
  C   C8        1.0  0.7341036596796614  0.462483668244623  0.3986308682653786  1.0000
  C   C9        1.0  0.8684333698785736  0.4793878357955991  0.0499976351374585  1.0000
  C   C10       1.0  0.3684496690355488  0.020600913582043703  0.9500044618338421  1.0000
  C   C11       1.0  0.6315632657725417  0.9793863650011048  0.4500021718023106  1.0000
  C   C12       1.0  0.131531675049267  0.5205846025663162  0.5499999468918659  1.0000
  C   C13       1.0  0.1315453059530611  0.5206101854022976  0.9500062780276365  1.0000
  C   C14       1.0  0.6315512216570981  0.9793999018801643  0.049998999999616  1.0000
  C   C15       1.0  0.36842969094941946  0.0206172448434288  0.5499927145343193  1.0000
  C   C16       1.0  0.8684057446445195  0.4794092271950063  0.4500080283266287  1.0000
  C   C17       1.0  0.06988033246342701  0.5617281993027065  0.05708081479909309  1.0000
  C   C18       1.0  0.5698982942507272  0.9382372343226564  0.942916261599315  1.0000
  C   C19       1.0  0.43009386682366824  0.06176559536583431  0.44291734756289  1.0000
  C   C20       1.0  0.9301118331919653  0.43823707088977676  0.5570794108422064  1.0000
  C   C21       1.0  0.9301189713966738  0.4382293051001441  0.9429149742929468  1.0000
  C   C22       1.0  0.4301089434624786  0.0617384328440096  0.0570777221048999  1.0000
  C   C23       1.0  0.5699149577364437  0.9382436029094523  0.557085211580187  1.0000
  C   C24       1.0  0.0698906442466125  0.5617595532099671  0.4429208916082814  1.0000
  C   C25       1.0  0.799194589778324  0.417840339900181  0.9929194936333873  1.0000
  C   C26       1.0  0.2992025542862534  0.0821582507889502  0.0070721353823657  1.0000
  C   C27       1.0  0.7007647820494399  0.9178362507457367  0.5070771420733493  1.0000
  C   C28       1.0  0.20077797078456427  0.5821681869185936  0.49291739082979547  1.0000
  C   C29       1.0  0.2007809123893836  0.5821758441711326  0.0070744899906714  1.0000
  C   C30       1.0  0.700785642091404  0.9178397705443115  0.9929209455937453  1.0000
  C   C31       1.0  0.2992170673553646  0.08215757902502221  0.4929285764658005  1.0000
  C   C32       1.0  0.7992102255308993  0.4178424086918824  0.5070702740301485  1.0000
  N   N1        1.0  0.6258416511538769  0.4553224947180255  0.1438733820365172  1.0000
  N   N2        1.0  0.1258575828283597  0.04468323479505899  0.8561302151655851  1.0000
  N   N3        1.0  0.8741661169642257  0.9553106543566515  0.3561264964346549  1.0000
  N   N4        1.0  0.37416657914573653  0.5446754671603884  0.6438723166490732  1.0000
  N   N5        1.0  0.37416082633381365  0.5446867035193604  0.8561323364927701  1.0000
  N   N6        1.0  0.8741718698497394  0.9553273605703723  0.14387505203713863  1.0000
  N   N7        1.0  0.1258554017558211  0.04468736690953531  0.6438706466355271  1.0000
  N   N8        1.0  0.6258517661005385  0.4553407167407715  0.3561334018798092  1.0000
  Cl  Cl1       1.0  0.32603789557026636  0.7850696282815833  0.17583354619584668  1.0000
  Cl  Cl2       1.0  0.8260441285274566  0.7149277128185432  0.8241692684167035  1.0000
  Cl  Cl3       1.0  0.17395669962218113  0.2850669999146831  0.324170722712033  1.0000
  Cl  Cl4       1.0  0.6739614709042459  0.21492611282540958  0.67583428904085  1.0000
  Cl  Cl5       1.0  0.6739566480186668  0.21492001011597495  0.8241694643087669  1.0000
  Cl  Cl6       1.0  0.17395676215909361  0.2850758969177961  0.1758337420711413  1.0000
  Cl  Cl7       1.0  0.8260378439545664  0.7149282270311448  0.6758313851013682  1.0000
  Cl  Cl8       1.0  0.3260425933432956  0.7850788940320613  0.32416962412983  1.0000
  Cl  Cl9       1.0  0.8468678729589386  0.65176088656235  0.24999940270578241  1.0000
  Cl  Cl10      1.0  0.3468749607939898  0.8482462161009608  0.7499998273591827  1.0000
  Cl  Cl11      1.0  0.653130690205579  0.1517518051199076  0.2500013777741401  1.0000
  Cl  Cl12      1.0  0.153129844159352  0.3482552973944594  0.7500027050784723  1.0000
