data_image0
_chemical_formula_structural       Li2H26C22N8O2
_chemical_formula_sum              "Li2 H26 C22 N8 O2"
_cell_length_a       7.956652434537164
_cell_length_b       8.787319909907845
_cell_length_c       9.257063623991348
_cell_angle_alpha    61.66471973985945
_cell_angle_beta     87.98779145215487
_cell_angle_gamma    85.75711184351367

_space_group_name_H-M_alt    "P 1"
_space_group_IT_number       1

loop_
  _space_group_symop_operation_xyz
  'x, y, z'

loop_
  _atom_site_type_symbol
  _atom_site_label
  _atom_site_symmetry_multiplicity
  _atom_site_fract_x
  _atom_site_fract_y
  _atom_site_fract_z
  _atom_site_occupancy
  Li  Li1       1.0  0.8607385903758739  0.02273318685320899  0.13660396194273258  1.0000
  Li  Li2       1.0  0.36074611238044  0.15934053133828027  0.8633859962117612  1.0000
  H   H1        1.0  0.5797598218663893  0.9577448529877727  0.417678917838991  1.0000
  H   H2        1.0  0.07976531316003133  0.3754264151355782  0.5823130460331569  1.0000
  H   H3        1.0  0.5688881890375086  0.9873825296591288  0.673338784823251  1.0000
  H   H4        1.0  0.06888159404955731  0.6607296885484427  0.32665730805329213  1.0000
  H   H5        1.0  0.833659486557842  0.0622401606294501  0.7620252993750043  1.0000
  H   H6        1.0  0.3336524412793268  0.8242741725366683  0.23796782150802198  1.0000
  H   H7        1.0  0.09283900688153325  0.1034256468036502  0.5910250706584534  1.0000
  H   H8        1.0  0.5928317466420624  0.6944692889187181  0.40896762494429584  1.0000
  H   H9        1.0  0.3235609852348702  0.16258399271674048  0.41248388187487  1.0000
  H   H10       1.0  0.8235577169478462  0.5750921015112309  0.5875217748081027  1.0000
  H   H11       1.0  0.4852743899234967  0.20088656711354957  0.1288962115287049  1.0000
  H   H12       1.0  0.9852751252949332  0.3297990113714704  0.8711030200604739  1.0000
  H   H13       1.0  0.6490867512741758  0.8672832866275754  0.9797829252735467  1.0000
  H   H14       1.0  0.14909939230224017  0.8470650772995753  0.020219532712218366  1.0000
  H   H15       1.0  0.4567121426321137  0.5120383467139646  0.07905908364678271  1.0000
  H   H16       1.0  0.956709584357334  0.5910968921175764  0.920948003335397  1.0000
  H   H17       1.0  0.5326749906135788  0.7013867356689755  0.9084123476306089  1.0000
  H   H18       1.0  0.032677588270374314  0.6098003589621044  0.09159303140526741  1.0000
  H   H19       1.0  0.6382511657084252  0.4936196818731487  0.9678464436167217  1.0000
  H   H20       1.0  0.13824861721904108  0.46145926987976077  0.03216438329850038  1.0000
  H   H21       1.0  0.825157109588055  0.36889160928195247  0.22329771189807704  1.0000
  H   H22       1.0  0.32516618538627284  0.5921770820268788  0.776717082992313  1.0000
  H   H23       1.0  0.6419520230673043  0.372302041515013  0.33819111289592746  1.0000
  H   H24       1.0  0.14196456418272876  0.7104835884375615  0.6618130938610276  1.0000
  H   H25       1.0  0.818530965130883  0.486493449573409  0.3377613375716848  1.0000
  H   H26       1.0  0.3185404161412394  0.8242414163937609  0.6622533679814353  1.0000
  C   C1        1.0  0.6916512518657641  0.9892453394517345  0.46043986236986006  1.0000
  C   C2        1.0  0.19165224456123306  0.4496939858355373  0.5395517780410016  1.0000
  C   C3        1.0  0.6858723079383326  0.004272083208647346  0.6038847771334089  1.0000
  C   C4        1.0  0.18586922710984777  0.6081672177152624  0.39610841519373  1.0000
  C   C5        1.0  0.8326274466983536  0.04616626270031075  0.6522282941453169  1.0000
  C   C6        1.0  0.3326222391333432  0.6984074919751037  0.34776632960458903  1.0000
  C   C7        1.0  0.9764490163297666  0.07163770625329137  0.5559810812767196  1.0000
  C   C8        1.0  0.476445786985515  0.627634136057402  0.44401164530309245  1.0000
  C   C9        1.0  0.9708332837931833  0.05883095155503071  0.4104469142180348  1.0000
  C   C10       1.0  0.47083382070228214  0.46929290024566217  0.5895474555700061  1.0000
  C   C11       1.0  0.11448489807151672  0.09565677318389725  0.29958683256380425  1.0000
  C   C12       1.0  0.6144880804763562  0.39526488474290716  0.7004099952632076  1.0000
  C   C13       1.0  0.275316663817442  0.14477733638611298  0.3136689688087131  1.0000
  C   C14       1.0  0.7753166828708659  0.45846653693936185  0.6863312449071088  1.0000
  C   C15       1.0  0.3574750836953982  0.16631326335958352  0.17025188793123652  1.0000
  C   C16       1.0  0.8574771963080182  0.3365821797969061  0.8297461114817751  1.0000
  C   C17       1.0  0.7135879893453492  0.7623162518042644  0.0893893811755646  1.0000
  C   C18       1.0  0.2136061476972274  0.851706512932466  0.9106108157336052  1.0000
  C   C19       1.0  0.5697069327965706  0.576070477583748  0.013014911071969875  1.0000
  C   C20       1.0  0.06970759105770703  0.5890833156278671  0.9869921495852624  1.0000
  C   C21       1.0  0.7451306010257712  0.44895014177203757  0.2635224271714804  1.0000
  C   C22       1.0  0.24513697413368618  0.7124610935470131  0.7364877565669801  1.0000
  N   N1        1.0  0.8284515861630126  0.01673002685384257  0.36432377966420393  1.0000
  N   N2        1.0  0.3284529897608053  0.3810651926704832  0.6356693386628295  1.0000
  N   N3        1.0  0.10338420257922111  0.08937574699550045  0.1556550805422603  1.0000
  N   N4        1.0  0.6033887803641137  0.24504434402970068  0.844336054797452  1.0000
  N   N5        1.0  0.7531411637119803  0.20944562800146108  0.9238836704063756  1.0000
  N   N6        1.0  0.2531378257843216  0.13332535836501336  0.07611039158507539  1.0000
  N   N7        1.0  0.6765274315023647  0.6031377253794971  0.12174084603648083  1.0000
  N   N8        1.0  0.17653158599303254  0.7248709567580246  0.878266611695807  1.0000
  O   O1        1.0  0.8117367847886072  0.7942102637540244  0.17313311935632217  1.0000
  O   O2        1.0  0.3117480843426748  0.9673282840005154  0.8268754552432541  1.0000
