data_image0
_chemical_formula_structural       La2Cu2H26C30N4O26
_chemical_formula_sum              "La2 Cu2 H26 C30 N4 O26"
_cell_length_a       8.13133336865719
_cell_length_b       10.949941448975526
_cell_length_c       12.116714809358797
_cell_angle_alpha    101.06349480811753
_cell_angle_beta     106.48829903981812
_cell_angle_gamma    103.21486768306774

_space_group_name_H-M_alt    "P 1"
_space_group_IT_number       1

loop_
  _space_group_symop_operation_xyz
  'x, y, z'

loop_
  _atom_site_type_symbol
  _atom_site_label
  _atom_site_symmetry_multiplicity
  _atom_site_fract_x
  _atom_site_fract_y
  _atom_site_fract_z
  _atom_site_occupancy
  La  La1       1.0  0.9809465240915145  0.16228790062194068  0.91851733192874  1.0000
  La  La2       1.0  0.019054605859217654  0.8377120287750018  0.08148243996111407  1.0000
  Cu  Cu1       1.0  0.974195460432327  0.2675986389490177  0.4489587008236669  1.0000
  Cu  Cu2       1.0  0.02580605056946432  0.73240227156829  0.5510421343415146  1.0000
  H   H1        1.0  0.76460428892792  0.2761688093448527  0.07349411874557175  1.0000
  H   H2        1.0  0.23539428109367574  0.7238310847520493  0.9265034964471254  1.0000
  H   H3        1.0  0.8305809543054253  0.1744132537048557  0.14280682416369933  1.0000
  H   H4        1.0  0.1694163132648541  0.8255866391906393  0.8571921870576632  1.0000
  H   H5        1.0  0.23959184555081234  0.4315149941352273  0.038205099172344575  1.0000
  H   H6        1.0  0.7604041420548953  0.5684848811102439  0.9617928337004428  1.0000
  H   H7        1.0  0.18093205128210602  0.4007858352326821  0.1469840807535476  1.0000
  H   H8        1.0  0.819065612330398  0.5992150278174364  0.8530143441583179  1.0000
  H   H9        1.0  0.7767249631542228  0.37209670056431315  0.9284567958476657  1.0000
  H   H10       1.0  0.22327321082514828  0.6279022233779654  0.07154140565452845  1.0000
  H   H11       1.0  0.8368041517388107  0.37319294156801414  0.8153895302754535  1.0000
  H   H12       1.0  0.16319492115406586  0.6268050189039158  0.18460868629998123  1.0000
  H   H13       1.0  0.5923325381122808  0.816923480377859  0.8570387138818846  1.0000
  H   H14       1.0  0.4076829750538097  0.1830707698156431  0.14296539771780914  1.0000
  H   H15       1.0  0.3634739530404119  0.675790203728134  0.520606895207152  1.0000
  H   H16       1.0  0.6365262705012286  0.3242106946220176  0.47939368640186336  1.0000
  H   H17       1.0  0.5728891423503057  0.5618013262779086  0.626039661367841  1.0000
  H   H18       1.0  0.4271097937311835  0.438199559905101  0.37396066668501504  1.0000
  H   H19       1.0  0.48906544921180733  0.45211531871954946  0.7738684390264794  1.0000
  H   H20       1.0  0.5109318183584718  0.5478845741759457  0.22613057219487587  1.0000
  H   H21       1.0  0.32318386115613146  0.23865682259155815  0.4315306756255453  1.0000
  H   H22       1.0  0.6768189223146451  0.7613441110586336  0.5684720626806198  1.0000
  H   H23       1.0  0.5558583151715553  0.14422616060943477  0.5453707542808104  1.0000
  H   H24       1.0  0.44414319583023604  0.8557747499078658  0.4546300808843711  1.0000
  H   H25       1.0  0.4871066376600055  0.0363378145107447  0.6978830718519121  1.0000
  H   H26       1.0  0.5128915288237861  0.9636611149144085  0.3021159544426907  1.0000
  C   C1        1.0  0.20650102869026202  0.45290392479538616  0.8487600718564892  1.0000
  C   C2        1.0  0.7934930161822323  0.5470910722626241  0.1512366686016975  1.0000
  C   C3        1.0  0.2431095980213556  0.5044272209435405  0.7484272074517407  1.0000
  C   C4        1.0  0.7568876695489235  0.49557267195195454  0.2515718037696217  1.0000
  C   C5        1.0  0.1317427457890759  0.5640476998134004  0.6821408311245636  1.0000
  C   C6        1.0  0.8682557942501815  0.43595221621498575  0.31786008323778253  1.0000
  C   C7        1.0  0.6970620909982801  0.90671353814313  0.8658235575269799  1.0000
  C   C8        1.0  0.3029443031176982  0.09328353065993158  0.1341775914873367  1.0000
  C   C9        1.0  0.3345354941700407  0.624778001041875  0.584860534431975  1.0000
  C   C10       1.0  0.665465895011529  0.3752258242207702  0.4151407626257964  1.0000
  C   C11       1.0  0.9506028309445753  0.566970227520116  0.6886252038957964  1.0000
  C   C12       1.0  0.04939740009265135  0.43303066534716794  0.3113745529208103  1.0000
  C   C13       1.0  0.4477983755289685  0.5609381022360579  0.6427894286387712  1.0000
  C   C14       1.0  0.552198899536897  0.4390617851765697  0.3572087577901756  1.0000
  C   C15       1.0  0.4017851587477566  0.5007890663194273  0.7255344911286058  1.0000
  C   C16       1.0  0.5982117277714635  0.4992098454557023  0.274463456817422  1.0000
  C   C17       1.0  0.9377556317846185  0.13841499225109996  0.620168477798437  1.0000
  C   C18       1.0  0.06224421820154899  0.8615849194958185  0.3798302157428424  1.0000
  C   C19       1.0  0.1156398191854677  0.13346640305010737  0.6082552286080087  1.0000
  C   C20       1.0  0.8843646627788573  0.8665355019561144  0.39174552736000817  1.0000
  C   C21       1.0  0.19957233996647977  0.008333434130193502  0.7651076015895057  1.0000
  C   C22       1.0  0.8004321345022588  0.9916684763588959  0.234893979170927  1.0000
  C   C23       1.0  0.3062195926023747  0.19327707882361267  0.501588618629718  1.0000
  C   C24       1.0  0.6937879671535329  0.8067229168919353  0.4984132458333549  1.0000
  C   C25       1.0  0.4307775724784123  0.1397555054864128  0.563171224369107  1.0000
  C   C26       1.0  0.5692209600652588  0.8602444160248407  0.4368305147856546  1.0000
  C   C27       1.0  0.39291503905233327  0.07962780098769429  0.6480462223957347  1.0000
  C   C28       1.0  0.6070873558717981  0.9203721570250069  0.3519562774275188  1.0000
  C   C29       1.0  0.23294349114859614  0.075416265420003  0.6719057538425659  1.0000
  C   C30       1.0  0.7670550638818343  0.9245836396426413  0.32809351093495565  1.0000
  N   N1        1.0  0.18067111445271417  0.6250840175501506  0.6042340853172732  1.0000
  N   N2        1.0  0.8193274180909637  0.37491590396110297  0.3957676538374884  1.0000
  N   N3        1.0  0.15435001967917117  0.19014826293722817  0.5250696691218196  1.0000
  N   N4        1.0  0.8456527862783576  0.8098526542643538  0.4749305948071126  1.0000
  O   O1        1.0  0.8624140737807195  0.9083293811652168  0.9038454125013617  1.0000
  O   O2        1.0  0.1375956798444307  0.09166965776425677  0.0961558957987094  1.0000
  O   O3        1.0  0.8408712858910548  0.2186812990081179  0.0785004966379574  1.0000
  O   O4        1.0  0.15912854910394006  0.7813186237045429  0.9214998464881392  1.0000
  O   O5        1.0  0.2117064735444458  0.3615058677220873  0.07767441627389363  1.0000
  O   O6        1.0  0.788291190068058  0.638494995328031  0.9223240086379719  1.0000
  O   O7        1.0  0.6527484041537547  0.002838664659407201  0.8393633824492924  1.0000
  O   O8        1.0  0.34725279514811547  0.9971583883722983  0.16064170109484624  1.0000
  O   O9        1.0  0.8790131968647541  0.08580935119199747  0.6903789083723098  1.0000
  O   O10       1.0  0.12098613525896  0.9141925051456286  0.30962083337105645  1.0000
  O   O11       1.0  0.7975641304745977  0.31613647747168017  0.8628385177567495  1.0000
  O   O12       1.0  0.20243237499356334  0.6838614531830841  0.13715836691395114  1.0000
  O   O13       1.0  0.20971813665389052  0.07846842519155932  0.8644686435488182  1.0000
  O   O14       1.0  0.7902846693036378  0.9215324920100155  0.1355316203801137  1.0000
  O   O15       1.0  0.1395567796430441  0.33179329618334913  0.8280776902171781  1.0000
  O   O16       1.0  0.8604397333207032  0.6682046289885406  0.1719183696611069  1.0000
  O   O17       1.0  0.2596999155555507  0.5385994529272722  0.94926566399036  1.0000
  O   O18       1.0  0.7402969634680828  0.4613994643307321  0.0507331087480836  1.0000
  O   O19       1.0  0.8801370345851465  0.5031361173024677  0.7479798723304398  1.0000
  O   O20       1.0  0.1198631889564936  0.4968647810476908  0.25202070927857534  1.0000
  O   O21       1.0  0.87437639364002  0.6356235821304707  0.6282159579235724  1.0000
  O   O22       1.0  0.12562307529508132  0.36437534849607545  0.3717816723423725  1.0000
  O   O23       1.0  0.850881041937555  0.19688882436499708  0.5522851413613381  1.0000
  O   O24       1.0  0.14911918160408538  0.8031120739851544  0.4477154402476843  1.0000
  O   O25       1.0  0.1736131160540069  0.8860073861947625  0.7396196514930652  1.0000
  O   O26       1.0  0.8263849061228045  0.11399447442433798  0.26038231107136783  1.0000
