data_image0
_chemical_formula_structural       Zn2H10C22N6O16
_chemical_formula_sum              "Zn2 H10 C22 N6 O16"
_cell_length_a       9.831828825556306
_cell_length_b       10.945374984960274
_cell_length_c       11.122189849430724
_cell_angle_alpha    90.77753036921143
_cell_angle_beta     99.43602487906061
_cell_angle_gamma    91.04012806491299

_space_group_name_H-M_alt    "P 1"
_space_group_IT_number       1

loop_
  _space_group_symop_operation_xyz
  'x, y, z'

loop_
  _atom_site_type_symbol
  _atom_site_label
  _atom_site_symmetry_multiplicity
  _atom_site_fract_x
  _atom_site_fract_y
  _atom_site_fract_z
  _atom_site_occupancy
  Zn  Zn1       1.0  0.3647823321206474  0.49624095393995304  0.4816548964412777  1.0000
  Zn  Zn2       1.0  0.6492932956687839  0.5028326508845995  0.5296732861956601  1.0000
  H   H1        1.0  0.7259708973143689  0.5803123638920339  0.14999934704486864  1.0000
  H   H2        1.0  0.7224556224742145  0.5859450237342969  0.9262567134420154  1.0000
  H   H3        1.0  0.2845091017219588  0.284676944073091  0.8562986958171878  1.0000
  H   H4        1.0  0.19634774462362262  0.42184720310889645  0.07295417346656313  1.0000
  H   H5        1.0  0.7011440287543138  0.12086070769808543  0.5955150134620908  1.0000
  H   H6        1.0  0.7071533253140814  0.8921377902518305  0.5896820654242134  1.0000
  H   H7        1.0  0.2910483413832452  0.878407429607158  0.39592308888652644  1.0000
  H   H8        1.0  0.2849492236565183  0.1062211991103936  0.4009649929063246  1.0000
  H   H9        1.0  0.8987548201742543  0.6735546340577302  0.6156016627858067  1.0000
  H   H10       1.0  0.8487528134105065  0.32529770336684294  0.457436003058014  1.0000
  C   C1        1.0  0.4885209917270145  0.2630451721410624  0.5042693165036597  1.0000
  C   C2        1.0  0.5012463140306308  0.7357986968629219  0.4945848682678859  1.0000
  C   C3        1.0  0.52738186799062  0.4899214970979812  0.2727171554562561  1.0000
  C   C4        1.0  0.5239398197918066  0.5038778364309024  0.7436441447668971  1.0000
  C   C5        1.0  0.4190394408018748  0.4430536827315592  0.054419291418234615  1.0000
  C   C6        1.0  0.4162428560531809  0.4476858654225424  0.9292070462647718  1.0000
  C   C7        1.0  0.5280753979312394  0.4905039035764533  0.13861840622263347  1.0000
  C   C8        1.0  0.5230786002780123  0.49981306297673467  0.8776648207137898  1.0000
  C   C9        1.0  0.6374283552459872  0.5421858825200302  0.08814116517151402  1.0000
  C   C10       1.0  0.6351200198135559  0.5462286372212474  0.9620782476195092  1.0000
  C   C11       1.0  0.2820206786000199  0.374494767648656  0.9002509084931277  1.0000
  C   C12       1.0  0.28267059049410653  0.3757110676417453  0.04204693545452901  1.0000
  C   C13       1.0  0.6120479413283277  0.0668690255498419  0.5518077287006025  1.0000
  C   C14       1.0  0.6153566044056477  0.9400415506403093  0.5486727246464441  1.0000
  C   C15       1.0  0.49885949803642404  0.8719854037451144  0.4936100941614472  1.0000
  C   C16       1.0  0.4922653031388577  0.1269064066978487  0.4997069515096513  1.0000
  C   C17       1.0  0.38010585607561614  0.9320997055281739  0.4398551201503198  1.0000
  C   C18       1.0  0.37668568007566  0.05899535031136341  0.44292751885205944  1.0000
  C   C19       1.0  0.9431737069843392  0.5967099218317387  0.5735167928156886  1.0000
  C   C20       1.0  0.9153072353804463  0.40492566326201274  0.4846758493416915  1.0000
  C   C21       1.0  0.07908971388061303  0.5998931182571069  0.5512391551297214  1.0000
  C   C22       1.0  0.048530982581610316  0.4152401260223328  0.45924831020766294  1.0000
  N   N1        1.0  0.1334517352009499  0.5112112000509725  0.49217921003506165  1.0000
  N   N2        1.0  0.8634127137429318  0.498593588003004  0.5400567609868789  1.0000
  N   N3        1.0  0.16112252006109173  0.4391874390696201  0.8278516736740187  1.0000
  N   N4        1.0  0.2824721461209236  0.24712785024603084  0.09248718028011642  1.0000
  N   N5        1.0  0.1589249753028668  0.7134522537673859  0.593137693607602  1.0000
  N   N6        1.0  0.09263840780528913  0.31895209335628744  0.37985398926320363  1.0000
  O   O1        1.0  0.3703252899268605  0.312325352575307  0.48620440689950345  1.0000
  O   O2        1.0  0.3847330573823768  0.6785810474702031  0.4755366262358863  1.0000
  O   O3        1.0  0.6042064311961683  0.3209125169743317  0.5263988345321949  1.0000
  O   O4        1.0  0.6185828136849238  0.6858185882715873  0.515580323236968  1.0000
  O   O5        1.0  0.409282070126892  0.4870624283722904  0.30523280251370016  1.0000
  O   O6        1.0  0.408190706597381  0.4902450653721075  0.6739365613780708  1.0000
  O   O7        1.0  0.6439574040986926  0.4940430620932972  0.342282618030744  1.0000
  O   O8        1.0  0.6410956764466037  0.5194105318312267  0.7107233327078577  1.0000
  O   O9        1.0  0.10415767346899686  0.38766055327970866  0.7325023162029328  1.0000
  O   O10       1.0  0.12772779200353312  0.538086983355349  0.8676177049755655  1.0000
  O   O11       1.0  0.17741502432495787  0.1846311127375202  0.056383455834051716  1.0000
  O   O12       1.0  0.38465445607813104  0.21524045055875968  0.16365680284887676  1.0000
  O   O13       1.0  0.11938377718702502  0.8041348561064796  0.5331621538589746  1.0000
  O   O14       1.0  0.24589002801867824  0.709065404262475  0.6853588273619168  1.0000
  O   O15       1.0  0.06348625922365161  0.21275953510937745  0.40286768360856945  1.0000
  O   O16       1.0  0.147524004913052  0.3556056297231152  0.2946911468648495  1.0000
