data_image0
_chemical_formula_structural       Zn2H16C12N24
_chemical_formula_sum              "Zn2 H16 C12 N24"
_cell_length_a       7.738993610111644
_cell_length_b       8.6776314406478
_cell_length_c       9.115202017235726
_cell_angle_alpha    95.15240261669904
_cell_angle_beta     105.18776171976579
_cell_angle_gamma    101.02971378373097

_space_group_name_H-M_alt    "P 1"
_space_group_IT_number       1

loop_
  _space_group_symop_operation_xyz
  'x, y, z'

loop_
  _atom_site_type_symbol
  _atom_site_label
  _atom_site_symmetry_multiplicity
  _atom_site_fract_x
  _atom_site_fract_y
  _atom_site_fract_z
  _atom_site_occupancy
  Zn  Zn1       1.0  0.13112195036801214  0.6832637363385672  0.954776371820401  1.0000
  Zn  Zn2       1.0  0.8688740335636284  0.31673465285808067  0.0452242063522946  1.0000
  H   H1        1.0  0.4248526432808504  0.005704757616428  0.10536873650052314  1.0000
  H   H2        1.0  0.57514332746873  0.9942936330399448  0.8946296447566552  1.0000
  H   H3        1.0  0.3451550368427476  0.5813639790817646  0.29369466981317055  1.0000
  H   H4        1.0  0.654850606176801  0.41863559394733574  0.7063048286507649  1.0000
  H   H5        1.0  0.7019951562453884  0.23075980163952883  0.3300746713913655  1.0000
  H   H6        1.0  0.29800915466130107  0.7692397714390893  0.6699256333860077  1.0000
  H   H7        1.0  0.9167969268404262  0.6829746181622623  0.23145778870497213  1.0000
  H   H8        1.0  0.08320266489133839  0.31702733004141237  0.7685449841769338  1.0000
  H   H9        1.0  0.5726528675075784  0.6882089972034606  0.5641036294472315  1.0000
  H   H10       1.0  0.4273460819925247  0.3117905797225617  0.4358944082951055  1.0000
  H   H11       1.0  0.677997978413664  0.8952213211944126  0.6043378152922187  1.0000
  H   H12       1.0  0.3219996455646097  0.104778255051265  0.39566212722131405  1.0000
  H   H13       1.0  0.907208356383869  0.8478601501403135  0.4639452040581062  1.0000
  H   H14       1.0  0.09279359163983969  0.15214061086577146  0.5360557855426505  1.0000
  H   H15       1.0  0.9185401266920294  0.747178642765739  0.6276080027493549  1.0000
  H   H16       1.0  0.081461841104769  0.2528221160507441  0.37239628222466337  1.0000
  C   C1        1.0  0.44404418536458223  0.9177555677506958  0.18200201503795196  1.0000
  C   C2        1.0  0.5559534386136918  0.0822440084949818  0.8179979274755808  1.0000
  C   C3        1.0  0.3995416594480972  0.6995348250941616  0.27355626413721984  1.0000
  C   C4        1.0  0.6004620290000204  0.3004623745172168  0.7264426008738525  1.0000
  C   C5        1.0  0.746845245846906  0.3585746009871613  0.33727945174072715  1.0000
  C   C6        1.0  0.25315804088069177  0.6414261592395362  0.6627218300043508  1.0000
  C   C7        1.0  0.8560341062090161  0.5849713542414107  0.2819614371512174  1.0000
  C   C8        1.0  0.1439691871096187  0.4150294052554245  0.7180409430516193  1.0000
  C   C9        1.0  0.6504738960064742  0.7861626959483701  0.5233870912434709  1.0000
  C   C10       1.0  0.34952608426374343  0.21383569309971046  0.4766110679889194  1.0000
  C   C11       1.0  0.8336744844161927  0.7535447259017046  0.5122194997745667  1.0000
  C   C12       1.0  0.16632313297105128  0.24645485107384252  0.48777934428120767  1.0000
  N   N1        1.0  0.535419360616217  0.8072435316816707  0.37598485290470046  1.0000
  N   N2        1.0  0.46458288875023623  0.19275841715283093  0.6240152088925797  1.0000
  N   N3        1.0  0.5663727609722997  0.9470811863044731  0.31914740196904023  1.0000
  N   N4        1.0  0.43362547887350905  0.0529207641383138  0.6808528818530348  1.0000
  N   N5        1.0  0.33856965868523764  0.7661601897460102  0.14913224930548813  1.0000
  N   N6        1.0  0.6614316602888692  0.2338381985226903  0.8508662020712235  1.0000
  N   N7        1.0  0.8118067582455027  0.6052484864773006  0.4140335762854903  1.0000
  N   N8        1.0  0.18819889136508294  0.3947510858219375  0.585967020636204  1.0000
  N   N9        1.0  0.741884120690415  0.4621742314189916  0.45163637958064135  1.0000
  N   N10       1.0  0.25811856335170097  0.5378241531508651  0.5483667577714044  1.0000
  N   N11       1.0  0.8162088445674273  0.4293618812786377  0.2302964753989514  1.0000
  N   N12       1.0  0.18379412763537314  0.5706376925793676  0.7697035372341006  1.0000
  N   N13       1.0  0.14876274721832067  0.897978634230455  0.8804024721187104  1.0000
  N   N14       1.0  0.8512351781026908  0.1020221298436468  0.1195965425913315  1.0000
  N   N15       1.0  0.060304578590851976  0.9854109902469402  0.8209036259621456  1.0000
  N   N16       1.0  0.9396954148614328  0.014587397341408294  0.17909673018574787  1.0000
  N   N17       1.0  0.9783661180275871  0.07388498060809918  0.7594257858715281  1.0000
  N   N18       1.0  0.021632115227198816  0.92611697056455  0.24057339949278858  1.0000
  N   N19       1.0  0.871158473159113  0.5926466409987654  0.9443084326360492  1.0000
  N   N20       1.0  0.12883748440840043  0.4073517511173392  0.055687751705626495  1.0000
  N   N21       1.0  0.750605715457745  0.6654257719725506  0.9296402267681074  1.0000
  N   N22       1.0  0.24938480009849687  0.3345773702450999  0.0703584748423225  1.0000
  N   N23       1.0  0.6281734663186356  0.7281784644567751  0.9151560028215328  1.0000
  N   N24       1.0  0.3718268482494765  0.27182110877040344  0.08484672089614521  1.0000
