data_image0
_chemical_formula_structural       Zn2H60C56N8O10
_chemical_formula_sum              "Zn2 H60 C56 N8 O10"
_cell_length_a       10.649896623548646
_cell_length_b       10.649868672916009
_cell_length_c       13.690716462248417
_cell_angle_alpha    104.81345457867809
_cell_angle_beta     104.81356254156425
_cell_angle_gamma    108.00568912820798

_space_group_name_H-M_alt    "P 1"
_space_group_IT_number       1

loop_
  _space_group_symop_operation_xyz
  'x, y, z'

loop_
  _atom_site_type_symbol
  _atom_site_label
  _atom_site_symmetry_multiplicity
  _atom_site_fract_x
  _atom_site_fract_y
  _atom_site_fract_z
  _atom_site_occupancy
  Zn  Zn1       1.0  0.6450578033180393  0.35494384984108496  0.7500001839002481  1.0000
  Zn  Zn2       1.0  0.3549435966282957  0.6450574636868183  0.25000035088836375  1.0000
  H   H1        1.0  0.6954520443870463  0.06167414420897188  0.0066966667327292865  1.0000
  H   H2        1.0  0.9383256896864651  0.304546376717603  0.4933012356533127  1.0000
  H   H3        1.0  0.3045474134629914  0.9383271708752617  0.9933027519927012  1.0000
  H   H4        1.0  0.06167485836163422  0.6954528159890784  0.506697247528365  1.0000
  H   H5        1.0  0.6872508641744942  0.3142264204455287  0.9866521949990957  1.0000
  H   H6        1.0  0.6857699182017073  0.3127467886534915  0.5133449407482618  1.0000
  H   H7        1.0  0.31274913894495177  0.6857738336198479  0.013347121233096015  1.0000
  H   H8        1.0  0.31422911403996073  0.6872534663599765  0.48665418273097333  1.0000
  H   H9        1.0  0.2062038366770125  0.05948048994410729  0.5191647599397983  1.0000
  H   H10       1.0  0.9405192938787722  0.7937945556352515  0.980835180561613  1.0000
  H   H11       1.0  0.7937957415155524  0.9405187047302093  0.48083572216074105  1.0000
  H   H12       1.0  0.059482225387846206  0.20620463646318396  0.019164225930289484  1.0000
  H   H13       1.0  0.9692541368164026  0.968225126421245  0.3702723356351854  1.0000
  H   H14       1.0  0.03177800013141761  0.03074376893037109  0.12972770006230416  1.0000
  H   H15       1.0  0.0307448964475014  0.031775129611766297  0.6297289795158678  1.0000
  H   H16       1.0  0.968224489672231  0.969255421880135  0.8702711686252871  1.0000
  H   H17       1.0  0.10392793345756249  0.35113570039138137  0.30189254099515495  1.0000
  H   H18       1.0  0.6488675211767045  0.8960735265188613  0.1981079806422414  1.0000
  H   H19       1.0  0.8960710998063416  0.6488645556416299  0.6981087741558909  1.0000
  H   H20       1.0  0.35113582018443884  0.10392778477302039  0.8018922090950016  1.0000
  H   H21       1.0  0.7234131797509136  0.8535589515322641  0.7667867187542898  1.0000
  H   H22       1.0  0.14643859524034747  0.276586766668643  0.7332135495827858  1.0000
  H   H23       1.0  0.2765859731740221  0.14643918341113243  0.23321419865732912  1.0000
  H   H24       1.0  0.8535618341689571  0.7234145481471967  0.2667875230101445  1.0000
  H   H25       1.0  0.6874613439959492  0.8479847636395946  0.8852252762265782  1.0000
  H   H26       1.0  0.15201412557365043  0.3125374961322008  0.6147750097612602  1.0000
  H   H27       1.0  0.31253532156328845  0.15201443387898908  0.11477462761510544  1.0000
  H   H28       1.0  0.8479868491050624  0.6874627576647896  0.38522596033842416  1.0000
  H   H29       1.0  0.3404721624679751  0.44030015106056886  0.45005917506043164  1.0000
  H   H30       1.0  0.5597014862124681  0.6595293488512225  0.04994118398936106  1.0000
  H   H31       1.0  0.6595268704551812  0.5597001046325971  0.5499414095333536  1.0000
  H   H32       1.0  0.44029991373386673  0.3404719646766806  0.9500593507992436  1.0000
  H   H33       1.0  0.6728167540169637  0.9647241351091367  0.6288239020095077  1.0000
  H   H34       1.0  0.03527531256140291  0.32718282250117875  0.87117432339862  1.0000
  H   H35       1.0  0.3271822782247042  0.03527611990433139  0.3711752214697341  1.0000
  H   H36       1.0  0.9647251161664129  0.6728184916349703  0.12882528807976715  1.0000
  H   H37       1.0  0.5984713828126474  0.08945269950905298  0.6097081580410093  1.0000
  H   H38       1.0  0.9105453369783589  0.4015298563980351  0.8902908893321922  1.0000
  H   H39       1.0  0.4015277694307996  0.9105454347546522  0.3902912982560665  1.0000
  H   H40       1.0  0.08945272438553796  0.5984703995635243  0.10970804139410015  1.0000
  H   H41       1.0  0.49079397734899294  0.9236146045598943  0.6063390074281828  1.0000
  H   H42       1.0  0.07638513963211578  0.5092095258136735  0.8936606518415007  1.0000
  H   H43       1.0  0.5092079682074909  0.07638564828900479  0.39366215542445104  1.0000
  H   H44       1.0  0.9236147441670467  0.49079284968117043  0.1063397926873932  1.0000
  H   H45       1.0  0.472888462647191  0.7391228487967465  0.6538092970368369  1.0000
  H   H46       1.0  0.26087837469257374  0.5271111739141217  0.8461900483771673  1.0000
  H   H47       1.0  0.5271109948621059  0.2608784659476342  0.34618939113132546  1.0000
  H   H48       1.0  0.7391216284268651  0.47288908015126185  0.15380926785502416  1.0000
  H   H49       1.0  0.5135405072862724  0.6418232776194798  0.7324602730276414  1.0000
  H   H50       1.0  0.3581775023716673  0.4864584040672425  0.7675404339422942  1.0000
  H   H51       1.0  0.48645937685363794  0.3581790982152098  0.2675409020585278  1.0000
  H   H52       1.0  0.6418238975746747  0.5135429094606606  0.23246010084631055  1.0000
  H   H53       1.0  0.3612047350233283  0.8431775558801888  0.7705944319103752  1.0000
  H   H54       1.0  0.1568252788619162  0.63879721102883  0.7294069455673695  1.0000
  H   H55       1.0  0.6387942975590873  0.15682269947312472  0.22940542212613488  1.0000
  H   H56       1.0  0.8431747249390112  0.3612030437162516  0.27059383177936525  1.0000
  H   H57       1.0  0.4201424256346371  0.7720362195057503  0.8674131850696156  1.0000
  H   H58       1.0  0.22796395830459207  0.5798584626598284  0.6325875795720182  1.0000
  H   H59       1.0  0.5798566072885194  0.22796403618741576  0.1325873995241622  1.0000
  H   H60       1.0  0.7720346486694466  0.42014073262272683  0.36741197921830354  1.0000
  C   C1        1.0  0.023768732230273315  0.1559457056804021  0.329458609381554  1.0000
  C   C2        1.0  0.8440562728978165  0.9762326452000705  0.17054102928589288  1.0000
  C   C3        1.0  0.9762312715706613  0.8440545490646725  0.6705421679651736  1.0000
  C   C4        1.0  0.15594567197717882  0.023767606969137496  0.8294586724522051  1.0000
  C   C5        1.0  0.631857654316768  0.0730403837710796  0.764567261788372  1.0000
  C   C6        1.0  0.9269596574459056  0.3681450642183819  0.7354332563863651  1.0000
  C   C7        1.0  0.36814514211572213  0.9269619888794978  0.2354337609993778  1.0000
  C   C8        1.0  0.07303980074487981  0.631856251205697  0.2645668928963404  1.0000
  C   C9        1.0  0.4259253208402641  0.31327764918317047  0.5854766655444763  1.0000
  C   C10       1.0  0.6867212326935572  0.5740733460810002  0.9145223870203554  1.0000
  C   C11       1.0  0.5740732864745225  0.6867215464392372  0.4145236238031132  1.0000
  C   C12       1.0  0.3132783454990076  0.42592584859330873  0.08547809508018395  1.0000
  C   C13       1.0  0.6779605153071627  0.09430267789745267  0.9373955374062535  1.0000
  C   C14       1.0  0.9056946045662926  0.32203783154645993  0.5626035876929835  1.0000
  C   C15       1.0  0.3220389425428819  0.9056986371867803  0.06260388131917677  1.0000
  C   C16       1.0  0.09430539923464212  0.6779624231986148  0.4373971896537443  1.0000
  C   C17       1.0  0.6746996299710588  0.21796781636575688  0.9265186004344275  1.0000
  C   C18       1.0  0.7820331017844283  0.325298992493927  0.5734804491904698  1.0000
  C   C19       1.0  0.3253013436854103  0.7820324364116826  0.07348017799344571  1.0000
  C   C20       1.0  0.2179669013350107  0.6747012615714495  0.4265188670417217  1.0000
  C   C21       1.0  0.18232530343038889  0.12234137143442328  0.4711964835562342  1.0000
  C   C22       1.0  0.8776579648247562  0.8176747848715847  0.028803289459844426  1.0000
  C   C23       1.0  0.8176748200315771  0.8776567622210363  0.5288038960510661  1.0000
  C   C24       1.0  0.1223435547826099  0.18232440756670337  0.971196847589326  1.0000
  C   C25       1.0  0.0511593334067371  0.07159014444903278  0.3887326707382357  1.0000
  C   C26       1.0  0.9284088177252272  0.9488385037494705  0.11126650306215417  1.0000
  C   C27       1.0  0.948839819177451  0.9284079901545184  0.6112675161161152  1.0000
  C   C28       1.0  0.071592701882139  0.05116068868881739  0.8887336339870234  1.0000
  C   C29       1.0  0.2861174811687306  0.2566912590610996  0.49488996423780673  1.0000
  C   C30       1.0  0.7433088612565795  0.7138829580275253  0.005109274450205665  1.0000
  C   C31       1.0  0.7138830679016052  0.7433079346651252  0.5051107106156891  1.0000
  C   C32       1.0  0.2566930836184156  0.28611729414167536  0.9948904272878923  1.0000
  C   C33       1.0  0.1259214302150369  0.2890652872146474  0.351116555618198  1.0000
  C   C34       1.0  0.7109362946150526  0.8740787526214572  0.14888346737897962  1.0000
  C   C35       1.0  0.8740781483182687  0.7109339077995144  0.6488846570396092  1.0000
  C   C36       1.0  0.2890656506006906  0.1259214998875962  0.8511169649163864  1.0000
  C   C37       1.0  0.6478734748133802  0.8602967549118783  0.8076346843545397  1.0000
  C   C38       1.0  0.139702228044527  0.35212654668616483  0.6923650745876629  1.0000
  C   C39       1.0  0.3521251321606584  0.13970244037066948  0.19236487443578207  1.0000
  C   C40       1.0  0.8602983206850682  0.6478726467002074  0.30763486970855786  1.0000
  C   C41       1.0  0.25719033822386445  0.3389354549772249  0.43408165316609637  1.0000
  C   C42       1.0  0.661065334382677  0.7428088808710668  0.06591809927964934  1.0000
  C   C43       1.0  0.7428082687501741  0.6610637403053302  0.5659179056242254  1.0000
  C   C44       1.0  0.3389352143469182  0.25719031251531277  0.9340818450165715  1.0000
  C   C45       1.0  0.5973674477814086  0.009404173620538397  0.646275010128143  1.0000
  C   C46       1.0  0.9905957151671674  0.40263397691905567  0.8537237878823308  1.0000
  C   C47       1.0  0.4026335262158085  0.9905960794967541  0.35372449885699825  1.0000
  C   C48       1.0  0.009404713901396557  0.5973673375569388  0.14627655415332436  1.0000
  C   C49       1.0  0.5020148605198642  0.7422313817495264  0.7377569041378607  1.0000
  C   C50       1.0  0.2577684640891817  0.4979857747789467  0.7622431214739651  1.0000
  C   C51       1.0  0.4979851429403226  0.25776887265570275  0.2622431426516059  1.0000
  C   C52       1.0  0.7422305684932338  0.5020144805743668  0.2377567325625449  1.0000
  C   C53       1.0  0.38403351057689866  0.7518452005313135  0.7796137431531208  1.0000
  C   C54       1.0  0.24815520457455162  0.6159680791020321  0.7203864602785688  1.0000
  C   C55       1.0  0.6159655220055099  0.24815505482199995  0.22038611088338914  1.0000
  C   C56       1.0  0.751843828007864  0.38403217625128133  0.2796133937579413  1.0000
  N   N1        1.0  0.6467151535112592  0.2038615821879474  0.8192541065467795  1.0000
  N   N2        1.0  0.796136696088972  0.3532846404836362  0.6807431770541046  1.0000
  N   N3        1.0  0.35328679136373614  0.7961386699812607  0.18074559519131844  1.0000
  N   N4        1.0  0.20386373229809612  0.6467166733126604  0.31925570386701463  1.0000
  N   N5        1.0  0.6514336801873098  0.004081307730452  0.8347485834320383  1.0000
  N   N6        1.0  0.9959198287095888  0.3485667541292868  0.6652495925270899  1.0000
  N   N7        1.0  0.3485663229321289  0.9959189463349314  0.1652507328001532  1.0000
  N   N8        1.0  0.0040811452876283365  0.6514334989880054  0.3347499164580513  1.0000
  O   O1        1.0  0.5162297075461381  0.4364639487053166  0.6104725012037236  1.0000
  O   O2        1.0  0.5635331907317109  0.4837709044367385  0.8895243686662655  1.0000
  O   O3        1.0  0.4837708408427091  0.56353524434121  0.38952671253522925  1.0000
  O   O4        1.0  0.4364658415099568  0.5162293505767365  0.11047475481297646  1.0000
  O   O5        1.0  0.4481957219963065  0.2307931981313516  0.6365312915134214  1.0000
  O   O6        1.0  0.7692079813340982  0.551802462932329  0.8634726053647129  1.0000
  O   O7        1.0  0.5518052540453837  0.7692070570250278  0.3634726008153493  1.0000
  O   O8        1.0  0.23079408490564648  0.4481956698464983  0.1365303514203049  1.0000
  O   O9        1.0  0.8907718038434922  0.10922825963925929  0.24999920841199946  1.0000
  O   O10       1.0  0.10922777400832463  0.8907709346952043  0.7500005431312716  1.0000
