data_image0
_chemical_formula_structural       Ni7H38C18N6O20
_chemical_formula_sum              "Ni7 H38 C18 N6 O20"
_cell_length_a       9.485798029027606
_cell_length_b       9.485793737029685
_cell_length_c       9.48584153241508
_cell_angle_alpha    101.70948849180705
_cell_angle_beta     101.70976691376023
_cell_angle_gamma    101.70924187337346

_space_group_name_H-M_alt    "P 1"
_space_group_IT_number       1

loop_
  _space_group_symop_operation_xyz
  'x, y, z'

loop_
  _atom_site_type_symbol
  _atom_site_label
  _atom_site_symmetry_multiplicity
  _atom_site_fract_x
  _atom_site_fract_y
  _atom_site_fract_z
  _atom_site_occupancy
  Ni  Ni1       1.0  0.4999997623745926  0.49999954859497103  0.5000012062102993  1.0000
  Ni  Ni2       1.0  0.3264779975139476  0.4283845977097371  0.18111730965028267  1.0000
  Ni  Ni3       1.0  0.1811208637653152  0.32647512132325573  0.42838296810268867  1.0000
  Ni  Ni4       1.0  0.4283806792625882  0.18112189703735743  0.3264755075703291  1.0000
  Ni  Ni5       1.0  0.8188808078736186  0.6735239778781121  0.5716177653537  1.0000
  Ni  Ni6       1.0  0.5716159191851203  0.8188827397155477  0.6735263728944074  1.0000
  Ni  Ni7       1.0  0.673528236831224  0.5716156096649313  0.8188782318581926  1.0000
  H   H1        1.0  0.06809466832302037  0.43139618630803506  0.17107837030881964  1.0000
  H   H2        1.0  0.1710760515534986  0.06808856004015947  0.4313960709959088  1.0000
  H   H3        1.0  0.4313966182869464  0.17107634910418307  0.06809261368115216  1.0000
  H   H4        1.0  0.8289183292095287  0.9319115906043577  0.5685981443891278  1.0000
  H   H5        1.0  0.5685964178423433  0.8289182807881373  0.9319107718014191  1.0000
  H   H6        1.0  0.9319142279657413  0.5685973819199573  0.8289205932176811  1.0000
  H   H7        1.0  0.03283263333396751  0.24664149759718162  0.9479901184521534  1.0000
  H   H8        1.0  0.9479863505582102  0.03283012832451251  0.24664384821364385  1.0000
  H   H9        1.0  0.24664144523207196  0.9479876497204883  0.03283272280847873  1.0000
  H   H10       1.0  0.05200720971801336  0.9671666961685051  0.7533527011019528  1.0000
  H   H11       1.0  0.7533518598239722  0.0520080843222743  0.9671688286545855  1.0000
  H   H12       1.0  0.9671692821253259  0.7533542673249514  0.0520099973673779  1.0000
  H   H13       1.0  0.0959704306049645  0.38887328995397047  0.8627177329039525  1.0000
  H   H14       1.0  0.8627162425510592  0.09597188457847493  0.38887649541393177  1.0000
  H   H15       1.0  0.38887338987651526  0.8627144255222204  0.09597110765238875  1.0000
  H   H16       1.0  0.13727515712885463  0.904024924202922  0.611118564737893  1.0000
  H   H17       1.0  0.611117729476824  0.13727685437924464  0.9040301710295605  1.0000
  H   H18       1.0  0.9040274029132219  0.6111191046989645  0.13727773090854348  1.0000
  H   H19       1.0  0.1834806065940455  0.649931505124229  0.01573775732197191  1.0000
  H   H20       1.0  0.01573439104472379  0.18347795810687015  0.6499306936591862  1.0000
  H   H21       1.0  0.6499286616172101  0.015731681686638407  0.1834779572302381  1.0000
  H   H22       1.0  0.9842602518140849  0.8165188765253149  0.35006712825961717  1.0000
  H   H23       1.0  0.35006543881925  0.98426294007794  0.8165224766849234  1.0000
  H   H24       1.0  0.8165221521963204  0.3500676087830428  0.9842653047802866  1.0000
  H   H25       1.0  0.1839661561229704  0.688547405719767  0.20674989116396597  1.0000
  H   H26       1.0  0.2067487753050088  0.18396538364726917  0.68854704154878  1.0000
  H   H27       1.0  0.6885447527547938  0.20674530246873957  0.18396616916189143  1.0000
  H   H28       1.0  0.793248287939143  0.8160325617135129  0.31144832342896217  1.0000
  H   H29       1.0  0.31144639627378706  0.7932504204291319  0.8160349491800641  1.0000
  H   H30       1.0  0.8160352169139743  0.3114461463347524  0.7932528366519305  1.0000
  H   H31       1.0  0.1548212327998897  0.15481909487295553  0.15482268067366076  1.0000
  H   H32       1.0  0.8451752880219131  0.8451766376202201  0.8451752963004464  1.0000
  H   H33       1.0  0.29399050805244537  0.6177856587460085  0.41997311282249666  1.0000
  H   H34       1.0  0.4199739239838039  0.29399000706430206  0.6177874924672364  1.0000
  H   H35       1.0  0.6177879401896718  0.41997315623628856  0.29399242383301055  1.0000
  H   H36       1.0  0.5800210152148749  0.7060079591186936  0.38221483168798887  1.0000
  H   H37       1.0  0.3822126191914421  0.5800214898294983  0.7060071973601649  1.0000
  H   H38       1.0  0.7060062725583977  0.38221116876415095  0.5800209180467915  1.0000
  C   C1        1.0  0.03554050458654248  0.36262477215396416  0.9454756643793726  1.0000
  C   C2        1.0  0.9454740244506752  0.035538262347259306  0.3626257463573593  1.0000
  C   C3        1.0  0.36262207551330045  0.9454735559466271  0.035539600889414664  1.0000
  C   C4        1.0  0.054518175178515184  0.9644574387226829  0.6373692522892184  1.0000
  C   C5        1.0  0.6373693127667933  0.054518828105280186  0.9644598437730347  1.0000
  C   C6        1.0  0.9644613971661895  0.6373709790679882  0.05452128331219792  1.0000
  C   C7        1.0  0.47362607810484997  0.4180916520360043  0.9516039688265675  1.0000
  C   C8        1.0  0.9516105229420971  0.47362069485409103  0.4180888813616688  1.0000
  C   C9        1.0  0.41807850027701926  0.9516276181348927  0.47359720465295385  1.0000
  C   C10       1.0  0.04840336936916149  0.5263929033505476  0.5819129752639822  1.0000
  C   C11       1.0  0.5819123071803176  0.0484013993327892  0.526396794624155  1.0000
  C   C12       1.0  0.5264152224704403  0.5819198005502102  0.04838817764471762  1.0000
  C   C13       1.0  0.12215631352034255  0.6176152590803101  0.09576648985299134  1.0000
  C   C14       1.0  0.09576364831293918  0.1221555281773092  0.6176131779759045  1.0000
  C   C15       1.0  0.6176123519375523  0.095758077446412  0.12215580357964476  1.0000
  C   C16       1.0  0.9042334195000664  0.8778424217502022  0.3823832430445008  1.0000
  C   C17       1.0  0.38238011892511997  0.9042343167446633  0.8778449136860117  1.0000
  C   C18       1.0  0.8778448202650964  0.38238163182018076  0.9042379116424114  1.0000
  N   N1        1.0  0.12092931919690389  0.4608825046540943  0.09245604197950288  1.0000
  N   N2        1.0  0.09245299476567229  0.12092542836703048  0.4608818911310094  1.0000
  N   N3        1.0  0.4608800808465787  0.0924531524108261  0.12092828797604932  1.0000
  N   N4        1.0  0.9075411216394684  0.8790736226937668  0.5391152143161902  1.0000
  N   N5        1.0  0.5391121507645876  0.9075425806262204  0.879074102969113  1.0000
  N   N6        1.0  0.8790771726751956  0.539114382141527  0.9075420500200904  1.0000
  O   O1        1.0  0.369525603948432  0.3306037148519608  0.9811477836799083  1.0000
  O   O2        1.0  0.9811484073397166  0.36951850811050246  0.3306052769743458  1.0000
  O   O3        1.0  0.33061314866123587  0.9811492114937936  0.36952398752022475  1.0000
  O   O4        1.0  0.018867337828154945  0.6304895495254569  0.6693979510892588  1.0000
  O   O5        1.0  0.6693929811467001  0.018867709383336304  0.6304833070743283  1.0000
  O   O6        1.0  0.6304896011038252  0.6693977188870832  0.01886560901863991  1.0000
  O   O7        1.0  0.5380093356573851  0.3821013767482668  0.8499107761658348  1.0000
  O   O8        1.0  0.8499202348762935  0.5380106550127551  0.3821016727332418  1.0000
  O   O9        1.0  0.38209155874273654  0.8499115111760248  0.5380192214289464  1.0000
  O   O10       1.0  0.15009606185162735  0.46199962462426214  0.6179010554193167  1.0000
  O   O11       1.0  0.61790251252026  0.1501043127546993  0.46200336565884453  1.0000
  O   O12       1.0  0.4619994332498721  0.617908882148548  0.1500946602334636  1.0000
  O   O13       1.0  0.23148536526385752  0.23148512443440689  0.23148397884281016  1.0000
  O   O14       1.0  0.7685119714758956  0.7685139296435467  0.7685106081580881  1.0000
  O   O15       1.0  0.299794043543578  0.515325182707997  0.3853265808090639  1.0000
  O   O16       1.0  0.3853273159978841  0.2997928680011697  0.5153238025441238  1.0000
  O   O17       1.0  0.5153238693960134  0.3853294876451443  0.29979439786939094  1.0000
  O   O18       1.0  0.6146684436875985  0.7002084243333258  0.48467618768054865  1.0000
  O   O19       1.0  0.48467648040882966  0.61467294026302  0.7002067366633039  1.0000
  O   O20       1.0  0.7002078787466886  0.4846750023768962  0.6146680944572009  1.0000
