data_image0
_chemical_formula_structural       Na2Ho2H32C36O24
_chemical_formula_sum              "Na2 Ho2 H32 C36 O24"
_cell_length_a       6.788172873307606
_cell_length_b       7.456381098204188
_cell_length_c       19.845374804745763
_cell_angle_alpha    90.00068988800845
_cell_angle_beta     99.86518516136111
_cell_angle_gamma    90.00036907742874

_space_group_name_H-M_alt    "P 1"
_space_group_IT_number       1

loop_
  _space_group_symop_operation_xyz
  'x, y, z'

loop_
  _atom_site_type_symbol
  _atom_site_label
  _atom_site_symmetry_multiplicity
  _atom_site_fract_x
  _atom_site_fract_y
  _atom_site_fract_z
  _atom_site_occupancy
  Na  Na1       1.0  0.8364670591210411  0.24996694539702702  0.6722615129951349  1.0000
  Na  Na2       1.0  0.16353377373615527  0.7499633949304325  0.3277377898017945  1.0000
  Ho  Ho1       1.0  0.7071765030036372  0.749965032371371  0.4147131221158773  1.0000
  Ho  Ho2       1.0  0.2928273230930926  0.2499599434268448  0.5852858540442014  1.0000
  H   H1        1.0  0.7659701274843653  0.147946983537004  0.9372616864959865  1.0000
  H   H2        1.0  0.23402521778418617  0.647944697833154  0.0627393520391237  1.0000
  H   H3        1.0  0.17175327162357226  0.3523419964764543  0.9370502060731168  1.0000
  H   H4        1.0  0.8282440614131799  0.8523270743438759  0.0629503575649295  1.0000
  H   H5        1.0  0.7042371717852304  0.15141293073731532  0.8103016153625048  1.0000
  H   H6        1.0  0.29575372684728046  0.6514244792741694  0.1896981676478688  1.0000
  H   H7        1.0  0.1070931642022828  0.34889439356154395  0.8100815357582363  1.0000
  H   H8        1.0  0.8929026402473993  0.8488919818370636  0.1899189218760426  1.0000
  H   H9        1.0  0.2821019647630719  0.14627135685196183  0.1572251682862102  1.0000
  H   H10       1.0  0.7178918854574333  0.6462554213463959  0.8427727507610285  1.0000
  H   H11       1.0  0.874822293590526  0.353483519394267  0.157398829488514  1.0000
  H   H12       1.0  0.12517504227379558  0.8534735246342395  0.8426032511509263  1.0000
  H   H13       1.0  0.4937396471993693  0.2682967700279875  0.4354863361160923  1.0000
  H   H14       1.0  0.5062762992285598  0.768288081008521  0.5645169675592142  1.0000
  H   H15       1.0  0.9418391895374754  0.23169586560323557  0.4355498031475378  1.0000
  H   H16       1.0  0.0581734283202096  0.7316711612229698  0.5644501153984081  1.0000
  H   H17       1.0  0.5642494128535346  0.11513273464546361  0.3443115284245266  1.0000
  H   H18       1.0  0.43576206512521753  0.6151171838934533  0.6556898140739165  1.0000
  H   H19       1.0  0.7800365942343389  0.38487815795048874  0.34434687238287853  1.0000
  H   H20       1.0  0.21995806067484117  0.8848680586894349  0.6556541828574678  1.0000
  H   H21       1.0  0.9807412083040671  0.9089422137849897  0.7356732699609339  1.0000
  H   H22       1.0  0.01925669226399409  0.40894800125098385  0.2643240545716097  1.0000
  H   H23       1.0  0.7552257371485281  0.5909682716809571  0.7355932796098159  1.0000
  H   H24       1.0  0.24476906730008344  0.0909700066749437  0.2644054551037626  1.0000
  H   H25       1.0  0.7456483467090607  0.8971300338933336  0.7271296884234956  1.0000
  H   H26       1.0  0.25434644622577446  0.3971428260583495  0.27286790285921814  1.0000
  H   H27       1.0  0.9816815084364661  0.6031878551772112  0.7270053168496773  1.0000
  H   H28       1.0  0.018313417079177396  0.1031831872173328  0.272992976070455  1.0000
  H   H29       1.0  0.2183399441189238  0.14836130239862652  0.0306916523959444  1.0000
  H   H30       1.0  0.7816554160749617  0.648340423372339  0.9693073732579476  1.0000
  H   H31       1.0  0.8124391971457638  0.3515527520898731  0.030889021946634884  1.0000
  H   H32       1.0  0.18756559629508726  0.8515404873117022  0.9691134916736742  1.0000
  C   C1        1.0  0.6229288074862325  0.19583798636563907  0.9094779644759754  1.0000
  C   C2        1.0  0.3770565403301518  0.6958401080419281  0.0905216895362315  1.0000
  C   C3        1.0  0.2871420975791636  0.3043534587358536  0.909362441320617  1.0000
  C   C4        1.0  0.7128502767340944  0.8043535105525451  0.09063912457639128  1.0000
  C   C5        1.0  0.5886426906426934  0.19643354672628996  0.8383959317816972  1.0000
  C   C6        1.0  0.41133968343510924  0.6964368150233116  0.1616015332078291  1.0000
  C   C7        1.0  0.2506691577697424  0.3037755213555472  0.8382884572129825  1.0000
  C   C8        1.0  0.7493247144417194  0.8037727088575367  0.1617116831006129  1.0000
  C   C9        1.0  0.3973268815979054  0.19367091470425632  0.1295082586662133  1.0000
  C   C10       1.0  0.6026614411795704  0.693659225969391  0.8704905539664126  1.0000
  C   C11       1.0  0.7319106739860002  0.30612053927941224  0.12960896948192158  1.0000
  C   C12       1.0  0.268087698411449  0.8061082457300872  0.8703929595642493  1.0000
  C   C13       1.0  0.6456673020383619  0.08636834028050802  0.510513303377472  1.0000
  C   C14       1.0  0.35434689333706604  0.586345624231946  0.4894870629028816  1.0000
  C   C15       1.0  0.8649817706048636  0.4137583594840423  0.5105394900000702  1.0000
  C   C16       1.0  0.1350385834430199  0.9137598507132126  0.4894632171386207  1.0000
  C   C17       1.0  0.3637467959021946  0.24982696913235716  0.7265519156499706  1.0000
  C   C18       1.0  0.6362450805896174  0.7498297799456993  0.273443832719849  1.0000
  C   C19       1.0  0.40169994558475947  0.25001203544475464  0.802387203900615  1.0000
  C   C20       1.0  0.5982889339261773  0.7500135252671573  0.19760987949482706  1.0000
  C   C21       1.0  0.6307514865191877  0.18661691430051522  0.44299738642382636  1.0000
  C   C22       1.0  0.36926816281494  0.6865991410549627  0.5570042575548513  1.0000
  C   C23       1.0  0.8123333905376383  0.3134189007099835  0.44302877046301586  1.0000
  C   C24       1.0  0.18767552482948693  0.8134027543199739  0.5569728079971553  1.0000
  C   C25       1.0  0.5827557823101016  0.24991245858167593  0.1659168610426605  1.0000
  C   C26       1.0  0.41723456666313297  0.7498985209021073  0.8340848439672754  1.0000
  C   C27       1.0  0.6208328438290636  0.24991647737528672  0.24206887996236048  1.0000
  C   C28       1.0  0.3791619882112299  0.7499038900660724  0.7579335944707423  1.0000
  C   C29       1.0  0.5108030516319885  0.24996357136195976  0.0215828544993641  1.0000
  C   C30       1.0  0.4891947906778994  0.749960063288121  0.9784162711701183  1.0000
  C   C31       1.0  0.473320569388683  0.25003333422712615  0.9461830322843596  1.0000
  C   C32       1.0  0.5266802558010184  0.7500177081097167  0.05381778201964949  1.0000
  C   C33       1.0  0.3618110819827292  0.1952414758630638  0.05846073132685348  1.0000
  C   C34       1.0  0.6381772559853188  0.695225575289527  0.941538089258259  1.0000
  C   C35       1.0  0.6965862912435837  0.30467891596858726  0.05856571730319619  1.0000
  C   C36       1.0  0.30341355693383315  0.8046637504862773  0.9414373004489036  1.0000
  O   O1        1.0  0.478744526064041  0.20765881640992498  0.274153418632892  1.0000
  O   O2        1.0  0.5212469144055731  0.7076379742428431  0.7258471532103812  1.0000
  O   O3        1.0  0.7950462220153652  0.2921994052728963  0.2741660185093266  1.0000
  O   O4        1.0  0.2049505312760331  0.7921820906070638  0.7258337364503191  1.0000
  O   O5        1.0  0.8583079310563021  0.9808145031137419  0.7342575577354822  1.0000
  O   O6        1.0  0.14168472032515916  0.4808197058268605  0.2657332284478997  1.0000
  O   O7        1.0  0.8763466470064357  0.5192930783889339  0.7341064241974706  1.0000
  O   O8        1.0  0.12364598725142167  0.0192928167564048  0.26588833240802495  1.0000
  O   O9        1.0  0.596331440859153  0.1678576118316145  0.5615967345770798  1.0000
  O   O10       1.0  0.4036790525942421  0.6678603601321884  0.4384047867414154  1.0000
  O   O11       1.0  0.9656260289356382  0.3324264532247838  0.5616283450524335  1.0000
  O   O12       1.0  0.034378606711513285  0.8324015745587519  0.4383690342236121  1.0000
  O   O13       1.0  0.7072328964725256  0.9264892316308891  0.5121921291469745  1.0000
  O   O14       1.0  0.29279507084199  0.4264756392761059  0.4878085666099636  1.0000
  O   O15       1.0  0.8049091108663047  0.573581051077973  0.5121813073185493  1.0000
  O   O16       1.0  0.19508699563000675  0.07357091525626201  0.4878219613656753  1.0000
  O   O17       1.0  0.508866151435832  0.23577982471624642  0.6931995697278026  1.0000
  O   O18       1.0  0.4911330542421766  0.7357721377635118  0.3067985651036125  1.0000
  O   O19       1.0  0.18514444237418806  0.26369859549284774  0.6932214421588014  1.0000
  O   O20       1.0  0.8148490526586443  0.7636887641291711  0.3067764800017372  1.0000
  O   O21       1.0  0.6201815830478097  0.0554572287904804  0.3899235249979753  1.0000
  O   O22       1.0  0.37983829950227477  0.5554385435029943  0.6100760313186981  1.0000
  O   O23       1.0  0.7698711067850322  0.4445646530805618  0.3899492600639647  1.0000
  O   O24       1.0  0.2301301099842803  0.9445571679526525  0.6100519482963164  1.0000
