data_image0
_chemical_formula_structural       Zn2H8C4O12
_chemical_formula_sum              "Zn2 H8 C4 O12"
_cell_length_a       5.518077785270081
_cell_length_b       6.4968877688049735
_cell_length_c       8.166590708161058
_cell_angle_alpha    80.60312063439954
_cell_angle_beta     70.30465682656056
_cell_angle_gamma    64.84336524017412

_space_group_name_H-M_alt    "P 1"
_space_group_IT_number       1

loop_
  _space_group_symop_operation_xyz
  'x, y, z'

loop_
  _atom_site_type_symbol
  _atom_site_label
  _atom_site_symmetry_multiplicity
  _atom_site_fract_x
  _atom_site_fract_y
  _atom_site_fract_z
  _atom_site_occupancy
  Zn  Zn1       1.0  0.4267285179927641  0.7500212183191551  0.7501202204992694  1.0000
  Zn  Zn2       1.0  0.5732707774096754  0.24997992280601264  0.24988141167303007  1.0000
  H   H1        1.0  0.18908341746114857  0.17606249231826607  0.642450377752361  1.0000
  H   H2        1.0  0.5076014332399269  0.3239437826272749  0.857406681791204  1.0000
  H   H3        1.0  0.8109161800717998  0.823938663701668  0.3575450643532961  1.0000
  H   H4        1.0  0.49239215187139257  0.6760573598649771  0.1425949085657834  1.0000
  H   H5        1.0  0.12239235066616061  0.17554707432150002  0.8512551850171944  1.0000
  H   H6        1.0  0.6496788282840739  0.3245408722625669  0.6487076119410276  1.0000
  H   H7        1.0  0.8776028681622348  0.8244574822662827  0.14874100641895893  1.0000
  H   H8        1.0  0.3503166251048669  0.6754619725356078  0.351293144338598  1.0000
  C   C1        1.0  0.9765257653773532  0.74880090368449  0.6487013944238172  1.0000
  C   C2        1.0  0.874238919028862  0.7511259874586929  0.8514892843953561  1.0000
  C   C3        1.0  0.023499052632203674  0.25119172854029165  0.3513001224326757  1.0000
  C   C4        1.0  0.12578285186272345  0.24887344453470925  0.1485137729374202  1.0000
  O   O1        1.0  0.810773892374762  0.7478545392657028  0.5734571578545768  1.0000
  O   O2        1.0  0.6325529934258969  0.7520300156987216  0.9267388169009932  1.0000
  O   O3        1.0  0.18922110815000787  0.2521364083202258  0.42654044740820746  1.0000
  O   O4        1.0  0.36743004781303057  0.24796261255837493  0.07326817349309782  1.0000
  O   O5        1.0  0.2189560075225642  0.7478224638295714  0.5727608210649607  1.0000
  O   O6        1.0  0.04009759756611005  0.7521361216563704  0.927332638928817  1.0000
  O   O7        1.0  0.7810442301471383  0.25217186805283387  0.42724338340372003  1.0000
  O   O8        1.0  0.9598969135555676  0.24787353238457402  0.07266554505443415  1.0000
  O   O9        1.0  0.2661650598220078  0.1071033253678806  0.7412205388567016  1.0000
  O   O10       1.0  0.6146064614463926  0.3928886685834313  0.7589174730865338  1.0000
  O   O11       1.0  0.7338336988893984  0.8928995126521428  0.25878271853876805  1.0000
  O   O12       1.0  0.3853913969111886  0.6071141816258177  0.2410808238925597  1.0000
