data_image0
_chemical_formula_structural       CuH20C10N8Cl2O6
_chemical_formula_sum              "Cu1 H20 C10 N8 Cl2 O6"
_cell_length_a       6.493748334286391
_cell_length_b       7.28295177483607
_cell_length_c       9.348126144132449
_cell_angle_alpha    74.03339995504506
_cell_angle_beta     91.27657502217019
_cell_angle_gamma    86.49196362180271

_space_group_name_H-M_alt    "P 1"
_space_group_IT_number       1

loop_
  _space_group_symop_operation_xyz
  'x, y, z'

loop_
  _atom_site_type_symbol
  _atom_site_label
  _atom_site_symmetry_multiplicity
  _atom_site_fract_x
  _atom_site_fract_y
  _atom_site_fract_z
  _atom_site_occupancy
  Cu  Cu1       1.0  0.9999988776448279  0.49999899496327066  0.9999988315392582  1.0000
  H   H1        1.0  0.783124849811074  0.1004730071769302  0.014090617459046889  1.0000
  H   H2        1.0  0.2168625742055994  0.8995248651950049  0.985907830399476  1.0000
  H   H3        1.0  0.6137732435875877  0.6061661330109231  0.20194221470539722  1.0000
  H   H4        1.0  0.3862279416122192  0.39383322311262964  0.7980570879992893  1.0000
  H   H5        1.0  0.5994835151408611  0.8275622903413903  0.06223527107108846  1.0000
  H   H6        1.0  0.40051913054902133  0.17243850370347494  0.9377658730856236  1.0000
  H   H7        1.0  0.9682573025341483  0.6874930321502433  0.236342427081972  1.0000
  H   H8        1.0  0.03174522881452901  0.3125091935635851  0.7636584083529453  1.0000
  H   H9        1.0  0.33186686640171803  0.7325941596581559  0.31740833208664987  1.0000
  H   H10       1.0  0.6681297169925032  0.2674051794330126  0.6825920092715732  1.0000
  H   H11       1.0  0.3569039906464084  0.9272068025162736  0.39534806273609024  1.0000
  H   H12       1.0  0.6430970802122006  0.07279398527624889  0.604650931246816  1.0000
  H   H13       1.0  0.290271641157439  0.1302167147571254  0.17037847142008636  1.0000
  H   H14       1.0  0.7097293504137525  0.8697855051971146  0.8296223536053018  1.0000
  H   H15       1.0  0.676362379057629  0.7992296475967675  0.5278824073112885  1.0000
  H   H16       1.0  0.32363718707726724  0.200771134928921  0.47211871602635086  1.0000
  H   H17       1.0  0.6487100956161597  0.590336000680658  0.4676992937734849  1.0000
  H   H18       1.0  0.3512911246374273  0.40966335593564895  0.5323021486954784  1.0000
  H   H19       1.0  0.999395364419897  0.6683721656456855  0.5373362183901944  1.0000
  H   H20       1.0  0.0006071494018869015  0.3316300598217694  0.4626635471625917  1.0000
  C   C1        1.0  0.7857207095308567  0.13959515338316208  0.11847626380154706  1.0000
  C   C2        1.0  0.21427407034968837  0.8604070427936109  0.8815213099393017  1.0000
  C   C3        1.0  0.6296367642217364  0.8471017252238296  0.28853994256345317  1.0000
  C   C4        1.0  0.3703644385049643  0.15289763114609664  0.7114604300233721  1.0000
  C   C5        1.0  0.6781771256183051  0.7473389319503952  0.16770238651852748  1.0000
  C   C6        1.0  0.3218256344127753  0.2526604304254931  0.8322990663599722  1.0000
  C   C7        1.0  0.39251791191920665  0.8747981211208683  0.29850112368976056  1.0000
  C   C8        1.0  0.6074817685568874  0.12520122973585046  0.7015003083696668  1.0000
  C   C9        1.0  0.7194267466647872  0.7293540446759011  0.44156188341136  1.0000
  C   C10       1.0  0.2805744560619133  0.2706453116940253  0.558438489175465  1.0000
  N   N1        1.0  0.7191880739404226  0.0355620227791107  0.24920453682371851  1.0000
  N   N2        1.0  0.28081004923128466  0.9644373220716459  0.7507958149440338  1.0000
  N   N3        1.0  0.7513441717526419  0.1287565959597288  0.3533433851408957  1.0000
  N   N4        1.0  0.24865853569775712  0.8712427656770386  0.6466548580911959  1.0000
  N   N5        1.0  0.8361166254320551  0.2849534445935689  0.2884506661518812  1.0000
  N   N6        1.0  0.1638859501502523  0.7150473484657949  0.7115461984762914  1.0000
  N   N7        1.0  0.8584280611319599  0.29577617471867523  0.14213523674664683  1.0000
  N   N8        1.0  0.1415669299040871  0.7042231578737842  0.8578618845556389  1.0000
  Cl  Cl1       1.0  0.2900486262512628  0.42032506874613773  0.1634127428661002  1.0000
  Cl  Cl2       1.0  0.7099462062099564  0.5796771281697559  0.8365880405211424  1.0000
  O   O1        1.0  0.8928800111247386  0.7317732454489986  0.1392273995467973  1.0000
  O   O2        1.0  0.1071211123145446  0.2682275430826451  0.8607748040825097  1.0000
  O   O3        1.0  0.29475569309980904  0.9950815973486017  0.16614447736424842  1.0000
  O   O4        1.0  0.7052453952856865  0.0049191906903018985  0.8338555865007888  1.0000
  O   O5        1.0  0.9380082075120056  0.7047382725704026  0.43543027900279424  1.0000
  O   O6        1.0  0.0619926697179807  0.2952653790528074  0.5645702373008061  1.0000
