data_image0
_chemical_formula_structural       Co4P2H44C22N2O12
_chemical_formula_sum              "Co4 P2 H44 C22 N2 O12"
_cell_length_a       6.190355398127937
_cell_length_b       8.569627795398889
_cell_length_c       14.867790046547388
_cell_angle_alpha    106.39221556596348
_cell_angle_beta     90.00067476680616
_cell_angle_gamma    89.99951468717713

_space_group_name_H-M_alt    "P 1"
_space_group_IT_number       1

loop_
  _space_group_symop_operation_xyz
  'x, y, z'

loop_
  _atom_site_type_symbol
  _atom_site_label
  _atom_site_symmetry_multiplicity
  _atom_site_fract_x
  _atom_site_fract_y
  _atom_site_fract_z
  _atom_site_occupancy
  Co  Co1       1.0  0.9015241502105196  0.8077819097275311  0.0366327028106994  1.0000
  Co  Co2       1.0  0.4015277475691619  0.1922146388597668  0.9633692333729371  1.0000
  Co  Co3       1.0  0.15676854633679937  0.5038080940297787  0.008077551082386876  1.0000
  Co  Co4       1.0  0.6567654150132466  0.4961870474235894  0.991921653673238  1.0000
  P   P1        1.0  0.9069489261732784  0.1600487742110985  0.020175892810435397  1.0000
  P   P2        1.0  0.406948875546668  0.8399477510138453  0.9798260655733984  1.0000
  H   H1        1.0  0.09794892624953629  0.1423378662382717  0.1527120455096309  1.0000
  H   H2        1.0  0.5979358933612458  0.8576417316786193  0.8472851257500837  1.0000
  H   H3        1.0  0.8613701875431943  0.264231501702163  0.1885766059760883  1.0000
  H   H4        1.0  0.361337373310313  0.7357628309658182  0.8114268108485518  1.0000
  H   H5        1.0  0.7561813902901876  0.8712141945155523  0.24771995212448414  1.0000
  H   H6        1.0  0.25620383575054717  0.1287877871757388  0.752279448726199  1.0000
  H   H7        1.0  0.12986460424905033  0.8056860210028417  0.1829076213110312  1.0000
  H   H8        1.0  0.6298776152652437  0.19431059775702417  0.8170984122384086  1.0000
  H   H9        1.0  0.13167206858587827  0.8689388351487182  0.3065996540102063  1.0000
  H   H10       1.0  0.6317048373559331  0.1310396188771037  0.6934075892086824  1.0000
  H   H11       1.0  0.21605085510847027  0.0051796538096838  0.24313853595772628  1.0000
  H   H12       1.0  0.716059497227654  0.9948096009199645  0.7568808845958372  1.0000
  H   H13       1.0  0.9490169691287135  0.21018551562337962  0.3319186897506015  1.0000
  H   H14       1.0  0.44901170489290365  0.7898131447793232  0.668078421200768  1.0000
  H   H15       1.0  0.47622399039723007  0.1052199469834605  0.32904766205069086  1.0000
  H   H16       1.0  0.9762264376950113  0.8948028199168475  0.6709486322306475  1.0000
  H   H17       1.0  0.580868988274659  0.23280603919531734  0.2643651712228561  1.0000
  H   H18       1.0  0.08085947228911998  0.7672062537523346  0.7356269314943233  1.0000
  H   H19       1.0  0.6893645080932345  0.43864031734334924  0.41030516206756573  1.0000
  H   H20       1.0  0.18934664789498612  0.5613763587694154  0.5896874691364077  1.0000
  H   H21       1.0  0.4102579969476566  0.3981450704285124  0.4111873327427844  1.0000
  H   H22       1.0  0.9102452410084254  0.6018814843203941  0.5888025118193312  1.0000
  H   H23       1.0  0.5813327386151741  0.40971936759217453  0.5660297233932354  1.0000
  H   H24       1.0  0.08131973991489619  0.5903087203209268  0.43396417389818254  1.0000
  H   H25       1.0  0.46311043946300146  0.2190643155964693  0.5129741570373909  1.0000
  H   H26       1.0  0.9631185538757376  0.7809633583370117  0.4870221679224258  1.0000
  H   H27       1.0  0.8242992257464932  0.1746418839321038  0.5732211613941303  1.0000
  H   H28       1.0  0.3242995042571906  0.8253804663761031  0.4267810702102467  1.0000
  H   H29       1.0  0.9459368553539634  0.30187606547350043  0.5132003621875683  1.0000
  H   H30       1.0  0.44593546774379433  0.6981335691114836  0.48679911940336507  1.0000
  H   H31       1.0  0.7232126822678068  0.9748250344723743  0.4222769332821414  1.0000
  H   H32       1.0  0.2232118721133176  0.025186906539389008  0.5777279005234776  1.0000
  H   H33       1.0  0.0034889308964735997  0.0146621836311169  0.4272680098009261  1.0000
  H   H34       1.0  0.5034891256348004  0.9853555980625974  0.5727380335885359  1.0000
  H   H35       1.0  0.1287245984019521  0.5382427699152146  0.22268307906262658  1.0000
  H   H36       1.0  0.6287237301863797  0.4617318303237  0.7773134589510065  1.0000
  H   H37       1.0  0.31399633953810024  0.5570603801241917  0.3186030404941746  1.0000
  H   H38       1.0  0.8139880652285924  0.4429327951422763  0.6813932435453083  1.0000
  H   H39       1.0  0.2759175920713872  0.3672286405326659  0.23310611582400043  1.0000
  H   H40       1.0  0.7759112500004404  0.6327552589787968  0.7669019919849589  1.0000
  H   H41       1.0  0.6562955104398043  0.012147496760618999  0.1439514356492069  1.0000
  H   H42       1.0  0.15629343236939514  0.9878572752461139  0.8560445613309824  1.0000
  H   H43       1.0  0.8327570193311047  0.5914193508341654  0.1418510984651533  1.0000
  H   H44       1.0  0.33274380990258123  0.40855190888058257  0.8581445453344827  1.0000
  C   C1        1.0  0.9237122855538829  0.150271400988089  0.1409519794208265  1.0000
  C   C2        1.0  0.4236924776645807  0.849726268329121  0.8590502373622684  1.0000
  C   C3        1.0  0.8673779579285751  0.9703595151165344  0.2450055778535898  1.0000
  C   C4        1.0  0.3673886843822345  0.029640901945690207  0.7550001625448604  1.0000
  C   C5        1.0  0.0992963832196025  0.9093762754231705  0.24427592308296656  1.0000
  C   C6        1.0  0.5993104127012856  0.09061083198917429  0.7557325162626398  1.0000
  C   C7        1.0  0.8239697352138508  0.11737233111044532  0.3310102787748264  1.0000
  C   C8        1.0  0.32397636675943176  0.8826269260448782  0.6689890199225275  1.0000
  C   C9        1.0  0.602232393146089  0.19626339371492926  0.32900051487224863  1.0000
  C   C10       1.0  0.10223513218305409  0.8037562063938851  0.6709975385735518  1.0000
  C   C11       1.0  0.5705932396766471  0.34452220306594933  0.4139897303262288  1.0000
  C   C12       1.0  0.07057420428829889  0.6554913359207576  0.5860018452114418  1.0000
  C   C13       1.0  0.5965287125846997  0.3002661377926402  0.5060570531076038  1.0000
  C   C14       1.0  0.09650651266642998  0.6997570341237137  0.49393682202302364  1.0000
  C   C15       1.0  0.8123343003310664  0.2149666272507105  0.5092668937508407  1.0000
  C   C16       1.0  0.3123401166513275  0.7850618268927081  0.49073488814023863  1.0000
  C   C17       1.0  0.8449620515599675  0.0694629742229438  0.4228060982922344  1.0000
  C   C18       1.0  0.3449687157558756  0.9305434610650635  0.5771930754139376  1.0000
  C   C19       1.0  0.4687772731345347  0.5332009260411893  0.18618239902994563  1.0000
  C   C20       1.0  0.9687854801017649  0.46676357920701156  0.8138088031222992  1.0000
  C   C21       1.0  0.284068391981485  0.4994418448229041  0.24422120114481777  1.0000
  C   C22       1.0  0.7840599987608597  0.5005393547717675  0.755775761863383  1.0000
  N   N1        1.0  0.8202943552022504  0.0026602501717932006  0.1528965061874672  1.0000
  N   N2        1.0  0.32029352628458696  0.9973402681345791  0.8471043170800528  1.0000
  O   O1        1.0  0.9149831535443339  0.986314820911055  0.9561269627372369  1.0000
  O   O2        1.0  0.4149961158030493  0.013687765526754003  0.043876652545321804  1.0000
  O   O3        1.0  0.10797793395033749  0.26384616924521254  0.011832256383975403  1.0000
  O   O4        1.0  0.6079703540752063  0.7361505002967661  0.9881716627995658  1.0000
  O   O5        1.0  0.7030842641281366  0.25555039014045616  0.005036789234111381  1.0000
  O   O6        1.0  0.20308250477134487  0.7444568305872752  0.9949699025436232  1.0000
  O   O7        1.0  0.8963324046038322  0.6021110608266725  0.08156875721898871  1.0000
  O   O8        1.0  0.3963259057994578  0.3978806886312754  0.9184344231566328  1.0000
  O   O9        1.0  0.4244247999725346  0.5299390027863498  0.10029534567467381  1.0000
  O   O10       1.0  0.9244273761097118  0.4700598941972913  0.8997077387942127  1.0000
  O   O11       1.0  0.6556037340063696  0.5587831844316041  0.22070588212376663  1.0000
  O   O12       1.0  0.1555652584745033  0.4411452561447931  0.7792916517909988  1.0000
