data_image0
_chemical_formula_structural       Cd6H56C24N16Cl12O4
_chemical_formula_sum              "Cd6 H56 C24 N16 Cl12 O4"
_cell_length_a       9.07253461
_cell_length_b       9.882768685725356
_cell_length_c       15.656
_cell_angle_alpha    90.0
_cell_angle_beta     90.0
_cell_angle_gamma    109.43261071859891

_space_group_name_H-M_alt    "P 1"
_space_group_IT_number       1

loop_
  _space_group_symop_operation_xyz
  'x, y, z'

loop_
  _atom_site_type_symbol
  _atom_site_label
  _atom_site_symmetry_multiplicity
  _atom_site_fract_x
  _atom_site_fract_y
  _atom_site_fract_z
  _atom_site_occupancy
  Cd  Cd1       1.0  0.08747198253721677  0.6889989887571915  0.9599252682677599  1.0000
  Cd  Cd2       1.0  0.5874633500650219  0.189001212950977  0.5400740929994896  1.0000
  Cd  Cd3       1.0  0.9125347349637637  0.3109976358417725  0.040070260602966784  1.0000
  Cd  Cd4       1.0  0.4125313716402275  0.811001849567191  0.4599284619315256  1.0000
  Cd  Cd5       1.0  2.87755256044807e-07  0.9999987705720272  0.9999968063362272  1.0000
  Cd  Cd6       1.0  0.5000001485997246  0.5000031407388832  0.5000006387327574  1.0000
  H   H1        1.0  0.37753780537734366  0.6353861436221706  0.0041370720490548  1.0000
  H   H2        1.0  0.87753623948813  0.13539265976208983  0.4958654828819604  1.0000
  H   H3        1.0  0.6224630121235891  0.36460940799026537  0.9958654828819602  1.0000
  H   H4        1.0  0.12246107553372806  0.8646114757426133  0.5041338783852822  1.0000
  H   H5        1.0  0.26457051999432935  0.502979605382933  0.9576718191108851  1.0000
  H   H6        1.0  0.7645681763831575  0.0029839755497818  0.5423307358201299  1.0000
  H   H7        1.0  0.7354310752285613  0.49701809220256626  0.0423294583546223  1.0000
  H   H8        1.0  0.23542874977772493  0.997019086968379  0.45766798671435527  1.0000
  H   H9        1.0  0.9926929964469835  0.006642859629167201  0.6136420541645364  1.0000
  H   H10       1.0  0.4926858732239054  0.5066427814084449  0.886357307102706  1.0000
  H   H11       1.0  0.007303283432463556  0.9933462540640647  0.3863553909044484  1.0000
  H   H12       1.0  0.5073135175433521  0.4933549161770472  0.1136484414920815  1.0000
  H   H13       1.0  0.1848569454362874  0.0438540326124439  0.6146039856923835  1.0000
  H   H14       1.0  0.6848547608701524  0.5438507354321304  0.8853915431783363  1.0000
  H   H15       1.0  0.8151414074582704  0.9561468839326537  0.3853896269800714  1.0000
  H   H16       1.0  0.3151423610863588  0.4561437431937705  0.11460845682166368  1.0000
  H   H17       1.0  0.1535378178178206  0.6353807786895019  0.7562640521205919  1.0000
  H   H18       1.0  0.6535230251948293  0.135387294829421  0.7437404190086878  1.0000
  H   H19       1.0  0.8464706509227042  0.3646115539633286  0.24373722534491543  1.0000
  H   H20       1.0  0.3464749388387531  0.8646125487291414  0.2562698007153799  1.0000
  H   H21       1.0  0.2027777026505575  0.7363305707248458  0.6608214103219223  1.0000
  H   H22       1.0  0.7027586325568153  0.2363252840128993  0.839177950945327  1.0000
  H   H23       1.0  0.7972289504953171  0.26366283491451276  0.3391773122125698  1.0000
  H   H24       1.0  0.29722694955033563  0.7636616837072624  0.16082907511497516  1.0000
  H   H25       1.0  0.9836866283627758  0.5104175480334519  0.6332632856412843  1.0000
  H   H26       1.0  0.48366547307945507  0.010411188334970201  0.8667341594276932  1.0000
  H   H27       1.0  0.016322811165046865  0.4895865874712442  0.36673479816045057  1.0000
  H   H28       1.0  0.5163120045720151  0.9895747063986563  0.1332639243740417  1.0000
  H   H29       1.0  0.9135830506623251  0.6560186016756688  0.6206234031681175  1.0000
  H   H30       1.0  0.413559366417509  0.1560143879502576  0.8793791517629046  1.0000
  H   H31       1.0  0.08642710223234222  0.343984460842492  0.3793753193663746  1.0000
  H   H32       1.0  0.5864263443998752  0.843979017689108  0.120622125702603  1.0000
  H   H33       1.0  0.8710482719426055  0.551203912146498  0.7160954266734831  1.0000
  H   H34       1.0  0.37103742557059155  0.0511986254345516  0.7839001021972436  1.0000
  H   H35       1.0  0.12895786090177808  0.4488002233581981  0.2838962698007137  1.0000
  H   H36       1.0  0.6289548986136851  0.9487947802048141  0.21609478794072595  1.0000
  H   H37       1.0  0.9676889948606231  0.188764082927058  0.8240846959632078  1.0000
  H   H38       1.0  0.4676866023243846  0.6887800995043492  0.6759178589678072  1.0000
  H   H39       1.0  0.03231441595691815  0.8112325416718988  0.17591083290751183  1.0000
  H   H40       1.0  0.5323259453609667  0.3112508606636908  0.32409236075626063  1.0000
  H   H41       1.0  0.9465951288900244  0.15593391396024  0.7129094276954502  1.0000
  H   H42       1.0  0.4465826232381076  0.6559402736587217  0.7870892948390418  1.0000
  H   H43       1.0  0.05340529974993294  0.8440605646656536  0.2870880173735344  1.0000
  H   H44       1.0  0.5534041870768079  0.3440713727517135  0.21291645375574564  1.0000
  H   H45       1.0  0.1558008698741915  0.3885820731226843  0.742218318855393  1.0000
  H   H46       1.0  0.6558043895124754  0.888588432821166  0.7577867910066445  1.0000
  H   H47       1.0  0.8442006609935789  0.6114124055032093  0.25777146142053897  1.0000
  H   H48       1.0  0.34421140323149063  0.11142106761619891  0.2422317322432264  1.0000
  H   H49       1.0  0.2414730249442343  0.2698475292938554  0.6945190342360731  1.0000
  H   H50       1.0  0.7414642270111997  0.7698442321135417  0.8054867143587143  1.0000
  H   H51       1.0  0.7585273393406098  0.7301437303724398  0.3054675523760863  1.0000
  H   H52       1.0  0.258534970690711  0.23014380859315514  0.1945337250894212  1.0000
  H   H53       1.0  0.2566509580969338  0.3006240020354767  0.8073946090955528  1.0000
  H   H54       1.0  0.7566404732794823  0.800628215760895  0.6926098620337271  1.0000
  H   H55       1.0  0.7433543326703784  0.6993747685365506  0.1925926162493639  1.0000
  H   H56       1.0  0.24336014842582193  0.199375919743801  0.3074099386816584  1.0000
  C   C1        1.0  0.08934791218445068  0.8193647066096261  0.7546531681144586  1.0000
  C   C2        1.0  0.589333055206339  0.3193680037899469  0.745346193152784  1.0000
  C   C3        1.0  0.910665094177567  0.1806340639624011  0.2453461931527841  1.0000
  C   C4        1.0  0.4106624442208684  0.6806372047012843  0.2546544455799662  1.0000
  C   C5        1.0  0.048718894078803004  0.0248857766724697  0.781287685232499  1.0000
  C   C6        1.0  0.5487040647052056  0.5248932093574865  0.7187110373019931  1.0000
  C   C7        1.0  0.9512893788660933  0.975115139872628  0.2187072049054706  1.0000
  C   C8        1.0  0.4512859879380429  0.4751152180933502  0.2812921563617792  1.0000
  C   C9        1.0  0.11097594226409059  0.6960034448481593  0.7091326009197727  1.0000
  C   C10       1.0  0.6109636142474743  0.19600459605540982  0.7908680378129773  1.0000
  C   C11       1.0  0.8890281819202883  0.3039921067642695  0.2908667603474697  1.0000
  C   C12       1.0  0.3890344141412214  0.8039984664627511  0.20913323965253025  1.0000
  C   C13       1.0  0.9602294564231927  0.5980075847396549  0.6673556463975456  1.0000
  C   C14       1.0  0.46021432985015315  0.09800873594690532  0.8326437148696968  1.0000
  C   C15       1.0  0.03978069647146748  0.401995477778506  0.3326405212059242  1.0000
  C   C16       1.0  0.539776243094586  0.9019889616385868  0.16735373019928795  1.0000
  C   C17       1.0  0.026265778162525105  0.1653804874015563  0.7674163260091973  1.0000
  C   C18       1.0  0.5262598309665592  0.6653911390461715  0.7325849514563103  1.0000
  C   C19       1.0  0.9737399014657627  0.8346193561570132  0.232577925396015  1.0000
  C   C20       1.0  0.473739428360183  0.3346183613911933  0.2674252682677575  1.0000
  C   C21       1.0  0.1802848345448993  0.288195599017449  0.7515642565150742  1.0000
  C   C22       1.0  0.6802812876001951  0.788197666769797  0.748440853346956  1.0000
  C   C23       1.0  0.8197189651336175  0.7118020985680503  0.248423607562593  1.0000
  C   C24       1.0  0.3197248452441812  0.2118064687348991  0.2515795861011725  1.0000
  N   N1        1.0  0.07994697005901942  0.9660505496372522  0.6288355901890623  1.0000
  N   N2        1.0  0.5799405420424576  0.4660527738310378  0.8711631323454296  1.0000
  N   N3        1.0  0.9200545608087513  0.0339439289886414  0.3711599386816572  1.0000
  N   N4        1.0  0.4200552818906118  0.533950288687123  0.12883622892181984  1.0000
  N   N5        1.0  0.07377275992210736  0.9395188116223281  0.7170701328564133  1.0000
  N   N6        1.0  0.5737593296776708  0.4395199628295856  0.7829266734798137  1.0000
  N   N7        1.0  0.9262291598066456  0.060476739990100704  0.2829253960143063  1.0000
  N   N8        1.0  0.42622832544459754  0.5604788077424487  0.2170726877874287  1.0000
  N   N9        1.0  0.07667087684230005  0.8322866834330895  0.838234542667351  1.0000
  N   N10       1.0  0.5766586131807969  0.3322910535999384  0.6617648185998988  1.0000
  N   N11       1.0  0.9233314961025415  0.16771316012547294  0.16176417986714134  1.0000
  N   N12       1.0  0.4233314394624514  0.6677173738508912  0.3382351814001012  1.0000
  N   N13       1.0  0.04992214165074663  0.9592070415263194  0.8546902146142088  1.0000
  N   N14       1.0  0.5499080623945929  0.4592124846797034  0.6453085079202836  1.0000
  N   N15       1.0  0.9500821112438659  0.0407949480053134  0.1453053142565182  1.0000
  N   N16       1.0  0.45008309247646855  0.5407959427711262  0.3546921308124666  1.0000
  Cl  Cl1       1.0  0.24141771852941926  0.9226375144900986  0.0329675523760855  1.0000
  Cl  Cl2       1.0  0.7414182927407185  0.4226408116704122  0.4670330863566718  1.0000
  Cl  Cl3       1.0  0.7585823856046758  0.07735911010886551  0.9670247828308618  1.0000
  Cl  Cl4       1.0  0.258581226736773  0.5773633238342839  0.5329681911088426  1.0000
  Cl  Cl5       1.0  0.8072848294532521  0.7219879597309743  0.0006636433316273998  1.0000
  Cl  Cl6       1.0  0.3072811783744527  0.2219934028843653  0.4993325242718426  1.0000
  Cl  Cl7       1.0  0.19271747913647633  0.2780086648679898  0.9993338017373501  1.0000
  Cl  Cl8       1.0  0.6927168500142429  0.7780096596338028  0.5006668369953999  1.0000
  Cl  Cl9       1.0  0.9507482368152723  0.4519333440361422  0.886607690342359  1.0000
  Cl  Cl10      1.0  0.45074818017518237  0.9519375577615605  0.6133903934593761  1.0000
  Cl  Cl11      1.0  0.04925258068566047  0.5480622075762867  0.11338783852836087  1.0000
  Cl  Cl12      1.0  0.5492550348467304  0.0480676507296707  0.38661152273888877  1.0000
  O   O1        1.0  0.3214419029713085  0.6069820441062106  0.9497413132345398  1.0000
  O   O2        1.0  0.8214388459932991  0.10698748725959462  0.5502606029637176  1.0000
  O   O3        1.0  0.678561507846233  0.3930145804927534  0.0502606029637178  1.0000
  O   O4        1.0  0.17856248907884256  0.8930155752585662  0.4497400357690324  1.0000
