data_image0
_chemical_formula_structural       Cd2H22C20N2O20
_chemical_formula_sum              "Cd2 H22 C20 N2 O20"
_cell_length_a       7.749946505491386
_cell_length_b       7.868273679669158
_cell_length_c       11.08113283451331
_cell_angle_alpha    95.38196474687162
_cell_angle_beta     90.58449256168994
_cell_angle_gamma    108.76281789253392

_space_group_name_H-M_alt    "P 1"
_space_group_IT_number       1

loop_
  _space_group_symop_operation_xyz
  'x, y, z'

loop_
  _atom_site_type_symbol
  _atom_site_label
  _atom_site_symmetry_multiplicity
  _atom_site_fract_x
  _atom_site_fract_y
  _atom_site_fract_z
  _atom_site_occupancy
  Cd  Cd1       1.0  0.7354398644318679  0.9000331409592732  0.5524178633207413  1.0000
  Cd  Cd2       1.0  0.2645624807906586  0.0999738465191342  0.4475808884231895  1.0000
  H   H1        1.0  0.37070143023101554  0.5752024538506787  0.5242066344430114  1.0000
  H   H2        1.0  0.6292995697545436  0.4248004575643947  0.47579452470373707  1.0000
  H   H3        1.0  0.3992294638509221  0.7556865596851663  0.45740918481068604  1.0000
  H   H4        1.0  0.6007732895468861  0.24431772614592256  0.5425902865104533  1.0000
  H   H5        1.0  0.02352564979985773  0.9157047853008466  0.710847237142289  1.0000
  H   H6        1.0  0.9764666736305472  0.08429535183826428  0.2891572323873248  1.0000
  H   H7        1.0  0.8574669061805551  0.7439089912273005  0.7374462263148872  1.0000
  H   H8        1.0  0.14252588826138896  0.2560884911008189  0.2625544544164811  1.0000
  H   H9        1.0  0.42944893942637213  0.7818858520832704  0.7715849657608801  1.0000
  H   H10       1.0  0.5705468882932365  0.21811300165458652  0.22841494513705377  1.0000
  H   H11       1.0  0.5180465045790044  0.9935579061544147  0.8621073579230369  1.0000
  H   H12       1.0  0.48195185266637003  0.006432858369741701  0.1378938263485239  1.0000
  H   H13       1.0  0.9525593124521664  0.8363294403866773  0.9826099683948399  1.0000
  H   H14       1.0  0.047438228442644004  0.1636667274321013  0.017389776722303896  1.0000
  H   H15       1.0  0.8843298309821394  0.6829055541570527  0.166439191639931  1.0000
  H   H16       1.0  0.115668531333796  0.31709327483370237  0.8335643585925537  1.0000
  H   H17       1.0  0.46666738476783826  0.7340938698185581  0.9667474672895223  1.0000
  H   H18       1.0  0.5333297454164097  0.26590096741423963  0.03325037526995091  1.0000
  H   H19       1.0  0.9040782834908896  0.3811336817954897  0.38055049123945395  1.0000
  H   H20       1.0  0.09592833210239606  0.6188665815179705  0.6194487477275885  1.0000
  H   H21       1.0  0.8108563754803342  0.4617339025742737  0.2600244414409758  1.0000
  H   H22       1.0  0.18914798801938565  0.5382635901663306  0.7399808945196469  1.0000
  C   C1        1.0  0.4038805908908927  0.004709336137736401  0.6872833041127606  1.0000
  C   C2        1.0  0.5961182575391177  0.995290879642589  0.3127167386268397  1.0000
  C   C3        1.0  0.4043547429861718  0.9099140825886706  0.8001403116318643  1.0000
  C   C4        1.0  0.5956436695987719  0.09008478387114138  0.1998596319002459  1.0000
  C   C5        1.0  0.21200002559383793  0.7932059850111414  0.9598984523207648  1.0000
  C   C6        1.0  0.7879919448917009  0.2067848039117024  0.040097240314800296  1.0000
  C   C7        1.0  0.04884748368704095  0.7775446382524934  0.019389091624248105  1.0000
  C   C8        1.0  0.951147494941651  0.2224475033455562  0.9806076345280701  1.0000
  C   C9        1.0  0.01068891354039888  0.689427390841942  0.12286597171731019  1.0000
  C   C10       1.0  0.9893051833661842  0.3105660749811107  0.8771326406755904  1.0000
  C   C11       1.0  0.1302036081640381  0.6079934066796823  0.1700921389332706  1.0000
  C   C12       1.0  0.8697991200992661  0.3920108604168817  0.8299091357380562  1.0000
  C   C13       1.0  0.2960475372756335  0.6296069332417743  0.11161041817059206  1.0000
  C   C14       1.0  0.703956052645829  0.3704040553618597  0.8883931395712565  1.0000
  C   C15       1.0  0.33717067910833265  0.7224871514573081  0.0076267430104977035  1.0000
  C   C16       1.0  0.6628256347253441  0.2775130890701191  0.9923696603945515  1.0000
  C   C17       1.0  0.9259241505169697  0.49563019693493965  0.326689402721442  1.0000
  C   C18       1.0  0.074077706056201  0.5043713715205981  0.6733116735349114  1.0000
  C   C19       1.0  0.9256363460493873  0.6629526536288566  0.4089460899152897  1.0000
  C   C20       1.0  0.07436940038904541  0.33704894327688345  0.5910541336172415  1.0000
  N   N1        1.0  0.4353174496047958  0.5638708131136668  0.15674079324073634  1.0000
  N   N2        1.0  0.5646822830826039  0.4361321106749544  0.8432585462387436  1.0000
  O   O1        1.0  0.5595550369889323  0.0712315200214064  0.643353927987654  1.0000
  O   O2        1.0  0.4404390649882188  0.9287700102682521  0.35664705036616334  1.0000
  O   O3        1.0  0.25433670069426734  0.0122334925101342  0.6442291977258776  1.0000
  O   O4        1.0  0.7456621628382721  0.9877707648707528  0.355771126319091  1.0000
  O   O5        1.0  0.23424420122966444  0.8795241950108875  0.857051277162661  1.0000
  O   O6        1.0  0.7657555138199258  0.12047065494386539  0.1429465980309885  1.0000
  O   O7        1.0  0.5946464699722255  0.6353284359193053  0.1251944726458945  1.0000
  O   O8        1.0  0.4053524312620738  0.3646758495633763  0.874803146373793  1.0000
  O   O9        1.0  0.39458510017445997  0.43882264005290483  0.22380311335960099  1.0000
  O   O10       1.0  0.6054181191643336  0.561170926500587  0.7761902032023685  1.0000
  O   O11       1.0  0.09362722570089232  0.5128322818362961  0.2679254835789422  1.0000
  O   O12       1.0  0.90636775546308  0.48716389199505267  0.7320724255538379  1.0000
  O   O13       1.0  0.057173940961604296  0.8056439098695874  0.409949486553856  1.0000
  O   O14       1.0  0.9428417116284038  0.19436042083677305  0.5900519512883591  1.0000
  O   O15       1.0  0.7821731181842395  0.6390851603645801  0.47053404389972536  1.0000
  O   O16       1.0  0.21784463569231602  0.3609218285074647  0.5294721170500125  1.0000
  O   O17       1.0  0.4308426574856128  0.7083732634560462  0.5311831229459258  1.0000
  O   O18       1.0  0.5691583550672022  0.2916296573262827  0.4688171345257288  1.0000
  O   O19       1.0  0.8904079235051227  0.871591680611978  0.7233803066044118  1.0000
  O   O20       1.0  0.10958442505977932  0.12840847526165794  0.2766223595750219  1.0000
