data_image0
_chemical_formula_structural       U4H24C20O24
_chemical_formula_sum              "U4 H24 C20 O24"
_cell_length_a       5.95773211335372
_cell_length_b       9.460373162432608
_cell_length_c       13.94318655577989
_cell_angle_alpha    90.00103062139996
_cell_angle_beta     88.74884672661202
_cell_angle_gamma    90.00095061225494

_space_group_name_H-M_alt    "P 1"
_space_group_IT_number       1

loop_
  _space_group_symop_operation_xyz
  'x, y, z'

loop_
  _atom_site_type_symbol
  _atom_site_label
  _atom_site_symmetry_multiplicity
  _atom_site_fract_x
  _atom_site_fract_y
  _atom_site_fract_z
  _atom_site_occupancy
  U   U1        1.0  0.9321738954223805  0.2165169714787821  0.49140284922192035  1.0000
  U   U2        1.0  0.06778478182138771  0.7165124821339146  0.008603392575544403  1.0000
  U   U3        1.0  0.0677930767594646  0.7834908666607489  0.5085895299514293  1.0000
  U   U4        1.0  0.9322036010314394  0.2835069855510355  0.9914103783441706  1.0000
  H   H1        1.0  0.5917477051001327  0.8332806241037432  0.31324688497984016  1.0000
  H   H2        1.0  0.40824159206464816  0.3332808433022052  0.18674719293284178  1.0000
  H   H3        1.0  0.40824279849232425  0.16670713044249644  0.6867439233978703  1.0000
  H   H4        1.0  0.5917707363017614  0.6667195960136496  0.8132434881415808  1.0000
  H   H5        1.0  0.8428171904364136  0.8587574443416202  0.2489836552282868  1.0000
  H   H6        1.0  0.1571902294554448  0.3587776997823866  0.2510111051515481  1.0000
  H   H7        1.0  0.15717836340682825  0.14123982357560289  0.7510064062950479  1.0000
  H   H8        1.0  0.8428135527723911  0.641243880906721  0.7489875144982963  1.0000
  H   H9        1.0  0.5743522031189059  0.9014178243744694  0.1329029267570263  1.0000
  H   H10       1.0  0.42562601761157753  0.40142050892807646  0.3670976106815474  1.0000
  H   H11       1.0  0.4256182097110326  0.09856358742605659  0.8670851297851601  1.0000
  H   H12       1.0  0.574374365693302  0.59857464588066  0.6329031811095123  1.0000
  H   H13       1.0  0.6446799527328579  0.07558215346323037  0.16724299047836416  1.0000
  H   H14       1.0  0.3553615363684344  0.5755916097679616  0.3327416216111204  1.0000
  H   H15       1.0  0.3553477197437189  0.9244288554250202  0.8327354083030871  1.0000
  H   H16       1.0  0.6446607130207767  0.42443314228080453  0.667256890522616  1.0000
  H   H17       1.0  0.2442677132549989  0.9099632311001924  0.25077165973872445  1.0000
  H   H18       1.0  0.7557637561696495  0.40991671557016224  0.2492474769439711  1.0000
  H   H19       1.0  0.7557291050998886  0.09006997804081608  0.74923991007924  1.0000
  H   H20       1.0  0.24427514384301224  0.5900551852622229  0.750758111944201  1.0000
  H   H21       1.0  0.2918821427582046  0.0946325927775575  0.2656326175918267  1.0000
  H   H22       1.0  0.708198929102551  0.5945798416784313  0.23437584924338495  1.0000
  H   H23       1.0  0.708153523409628  0.9054080151157322  0.7343665332870445  1.0000
  H   H24       1.0  0.2918617957092096  0.4054005157605544  0.7656296124544826  1.0000
  C   C1        1.0  0.7664803255679759  0.01674638414999659  0.3498639931996977  1.0000
  C   C2        1.0  0.23350469993561523  0.5167502026466338  0.15012839905878655  1.0000
  C   C3        1.0  0.23349155892877602  0.9832540553139636  0.6501348125783155  1.0000
  C   C4        1.0  0.7665295636778711  0.48325552166913605  0.8498564165043521  1.0000
  C   C5        1.0  0.6916216163605216  0.9146582054357211  0.2753890370060504  1.0000
  C   C6        1.0  0.3083834325998183  0.4146484281571147  0.22460418123604606  1.0000
  C   C7        1.0  0.30838050097464276  0.0853401202746511  0.7246088757309368  1.0000
  C   C8        1.0  0.6916289233613072  0.5853541251191458  0.7753850651804657  1.0000
  C   C9        1.0  0.5641431602261733  0.977405959681768  0.19208147997559177  1.0000
  C   C10       1.0  0.43587122948054  0.47739360938206243  0.3079076092276623  1.0000
  C   C11       1.0  0.4358793239317863  0.022600821644786606  0.807904838526156  1.0000
  C   C12       1.0  0.5641274887494276  0.5226089446298232  0.6920924748314621  1.0000
  C   C13       1.0  0.3150810372251058  0.005335213906974399  0.21637762279758024  1.0000
  C   C14       1.0  0.6849509935556883  0.5052944114597293  0.2836222800057513  1.0000
  C   C15       1.0  0.6849379925376766  0.9946884804523606  0.7836137358902351  1.0000
  C   C16       1.0  0.31508615855393174  0.4946859459798745  0.7163869049265231  1.0000
  C   C17       1.0  0.18782367271532507  0.030006696193517292  0.12586818811488604  1.0000
  C   C18       1.0  0.8121706471501184  0.5299793347624798  0.37415571628567096  1.0000
  C   C19       1.0  0.8121948187494114  0.9700096012420616  0.8741511454984734  1.0000
  C   C20       1.0  0.1878263233213389  0.47000736391926506  0.6258479644671695  1.0000
  O   O1        1.0  0.1818734711705403  0.22948213997486988  0.41659550644027393  1.0000
  O   O2        1.0  0.8180900608500181  0.7294712383251181  0.08341144797851292  1.0000
  O   O3        1.0  0.8181117474526617  0.770505615596555  0.5834082426497533  1.0000
  O   O4        1.0  0.1818650906916018  0.27049960353969743  0.91658458705237  1.0000
  O   O5        1.0  0.6820914512952713  0.19728286147802268  0.5659573033988823  1.0000
  O   O6        1.0  0.31788925608982044  0.6973042450997723  0.9340580688434347  1.0000
  O   O7        1.0  0.31790715646786083  0.8027260352628075  0.4340485188964892  1.0000
  O   O8        1.0  0.68209078771676  0.3027300208056261  0.06595288131045861  1.0000
  O   O9        1.0  0.8817990078734326  0.9703887114657231  0.421908833324011  1.0000
  O   O10       1.0  0.11818023719896327  0.4704018959058446  0.07807940068995123  1.0000
  O   O11       1.0  0.11817112895906937  0.02958001705678729  0.5780935695713795  1.0000
  O   O12       1.0  0.8818304951798694  0.5295943148621018  0.9219069864596537  1.0000
  O   O13       1.0  0.7275424741004812  0.14807127383462415  0.34659054807200124  1.0000
  O   O14       1.0  0.272474235356853  0.6480714022126932  0.15341184623744655  1.0000
  O   O15       1.0  0.2724496944663457  0.8519259941605384  0.6534009675857392  1.0000
  O   O16       1.0  0.7275360414389526  0.3519353809610095  0.8465982115532714  1.0000
  O   O17       1.0  0.182033520658905  0.9299014240284436  0.06426927947216401  1.0000
  O   O18       1.0  0.8178886148668312  0.42988709480003  0.435747991083993  1.0000
  O   O19       1.0  0.8178678114379849  0.07008844430319532  0.9357320886829686  1.0000
  O   O20       1.0  0.1820980480547121  0.5700795210072797  0.5642679429165512  1.0000
  O   O21       1.0  0.09231309652565761  0.14829660560407382  0.11181660657339883  1.0000
  O   O22       1.0  0.907705275474065  0.648264658664118  0.38818648408570783  1.0000
  O   O23       1.0  0.9076585946321317  0.8517186332781744  0.8881922410191979  1.0000
  O   O24       1.0  0.0923303358625418  0.3517114699853607  0.6118155377188971  1.0000
