data_image0
_chemical_formula_structural       AlH24C45N3O12
_chemical_formula_sum              "Al1 H24 C45 N3 O12"
_cell_length_a       3.9737774531673526
_cell_length_b       23.499533279073532
_cell_length_c       23.534291559516795
_cell_angle_alpha    59.98189030917649
_cell_angle_beta     86.72111954098759
_cell_angle_gamma    86.35120215520823

_space_group_name_H-M_alt    "P 1"
_space_group_IT_number       1

loop_
  _space_group_symop_operation_xyz
  'x, y, z'

loop_
  _atom_site_type_symbol
  _atom_site_label
  _atom_site_symmetry_multiplicity
  _atom_site_fract_x
  _atom_site_fract_y
  _atom_site_fract_z
  _atom_site_occupancy
  Al  Al1       1.0  0.019573540976054484  0.4989473678133722  0.5005963927019079  1.0000
  H   H1        1.0  0.4628327969983489  0.3274520385894917  0.6792795517818249  1.0000
  H   H2        1.0  0.4458053365466841  0.263152893976752  0.8007675840273336  1.0000
  H   H3        1.0  0.7878369216798405  0.22726267909732198  0.8901416527475021  1.0000
  H   H4        1.0  0.8158642923799775  0.16570663191866694  0.01057266792076917  1.0000
  H   H5        1.0  0.5033074868538564  0.8053472712944937  0.2505568548476091  1.0000
  H   H6        1.0  0.2326545509610939  0.8998077533082448  0.2202680266407597  1.0000
  H   H7        1.0  0.25157818377952174  0.019821766420463405  0.16204119033301367  1.0000
  H   H8        1.0  0.5264951809371468  0.106378345543952  0.1049204935153938  1.0000
  H   H9        1.0  0.4904017386461491  0.6774267434722246  0.4940567249653469  1.0000
  H   H10       1.0  0.4738890023210234  0.7990242875160192  0.43748229353671747  1.0000
  H   H11       1.0  0.7658945082819176  0.8891423209691567  0.38000472220554826  1.0000
  H   H12       1.0  0.7893615421049635  0.009201681580350398  0.321222545314626  1.0000
  H   H13       1.0  0.5884832562796448  0.25105239070198593  0.44096299822186313  1.0000
  H   H14       1.0  0.2609501767570066  0.2236134247478248  0.38375092229131985  1.0000
  H   H15       1.0  0.26420612262372606  0.1643801646072589  0.3224960542749641  1.0000
  H   H16       1.0  0.5438839515863381  0.10466062751214622  0.2882924049256417  1.0000
  H   H17       1.0  0.5136422901968771  0.49510106429197254  0.32734475318495976  1.0000
  H   H18       1.0  0.48982432786404945  0.4387029825516819  0.2626270159829573  1.0000
  H   H19       1.0  0.8119741487391253  0.37861552923273933  0.22393574438537195  1.0000
  H   H20       1.0  0.822359666108703  0.31849571970047214  0.16334358880487793  1.0000
  H   H21       1.0  0.5146114100804127  0.4428550855148571  0.8066171028089782  1.0000
  H   H22       1.0  0.19931241052691465  0.38257965411456496  0.9002940008126502  1.0000
  H   H23       1.0  0.2220595698346486  0.3203976687003731  0.020700940795180017  1.0000
  H   H24       1.0  0.5419506943912965  0.2882506831344216  0.10629213932174507  1.0000
  C   C1        1.0  0.5041889378323746  0.45629081325443366  0.6007285463007647  1.0000
  C   C2        1.0  0.5541879970463344  0.4424689042166534  0.45670608254778244  1.0000
  C   C3        1.0  0.5034356273820394  0.5992877947484345  0.4431988763150372  1.0000
  C   C4        1.0  0.4735441367417154  0.35227266009073327  0.7077758432732963  1.0000
  C   C5        1.0  0.466174882996505  0.3163843586990325  0.7760530686865295  1.0000
  C   C6        1.0  0.6577989873276027  0.2474466855404245  0.9186667448902952  1.0000
  C   C7        1.0  0.6729243380426128  0.21259434711792835  0.9867692993542505  1.0000
  C   C8        1.0  0.49336337524984236  0.710738492501541  0.33661586110548564  1.0000
  C   C9        1.0  0.49088156659177434  0.7790123943491523  0.30397225722479243  1.0000
  C   C10       1.0  0.3614590550079342  0.9233580191201581  0.24226896102025103  1.0000
  C   C11       1.0  0.37261325519966004  0.9914679925234681  0.2092071027197232  1.0000
  C   C12       1.0  0.4932995937825881  0.42087410763357275  0.6743222101981131  1.0000
  C   C13       1.0  0.4818722077103177  0.34744891536168854  0.8136813566921789  1.0000
  C   C14       1.0  0.4917161026459311  0.30966869185783696  0.88595640998998  1.0000
  C   C15       1.0  0.5211283755809009  0.23827605789341527  0.025053340384559385  1.0000
  C   C16       1.0  0.5343182753336821  0.20141720120197698  0.09740677170647423  1.0000
  C   C17       1.0  0.5331658368476013  0.13257336848754867  0.13212519834297615  1.0000
  C   C18       1.0  0.49151141327693193  0.7062278098700076  0.4405621762280703  1.0000
  C   C19       1.0  0.48438904794341664  0.7745739901722999  0.40839569851264906  1.0000
  C   C20       1.0  0.6463402420265185  0.9175775745427615  0.33264954956273834  1.0000
  C   C21       1.0  0.6589351645765903  0.9857609261659236  0.29931484137050257  1.0000
  C   C22       1.0  0.5742296337253024  0.3369285115653256  0.4502485411664381  1.0000
  C   C23       1.0  0.5645520196637223  0.3045206349075187  0.41464834569188724  1.0000
  C   C24       1.0  0.38942086462441244  0.24427275925310005  0.335727385881988  1.0000
  C   C25       1.0  0.3929288156413265  0.2105727742464225  0.3011891731915597  1.0000
  C   C26       1.0  0.4973363646488167  0.6727955973344067  0.40512244332239067  1.0000
  C   C27       1.0  0.4891188674812383  0.8124230463828609  0.33942970138065237  1.0000
  C   C28       1.0  0.4982293517376918  0.8847927485577574  0.304781485318763  1.0000
  C   C29       1.0  0.5228323722744012  0.024377420433985695  0.23672259949287167  1.0000
  C   C30       1.0  0.5348823428034354  0.0968756190297313  0.2009308936399421  1.0000
  C   C31       1.0  0.542689018940088  0.13169544920449994  0.23482593344441938  1.0000
  C   C32       1.0  0.5313540867451608  0.4415413225463922  0.35167185671689066  1.0000
  C   C33       1.0  0.5191766737721225  0.4095134973302521  0.3155937254313342  1.0000
  C   C34       1.0  0.6855327907694291  0.3321188038286351  0.2453588375262328  1.0000
  C   C35       1.0  0.6913148144808691  0.2980311100370088  0.2110887185826016  1.0000
  C   C36       1.0  0.49933775282604387  0.4515932650044618  0.7120794215354563  1.0000
  C   C37       1.0  0.49513621113141676  0.41612390087325923  0.7803133957978048  1.0000
  C   C38       1.0  0.33974257870176683  0.33539879660585825  0.924175036336969  1.0000
  C   C39       1.0  0.35341849651354823  0.3003388278288455  0.9922198736119014  1.0000
  C   C40       1.0  0.5598112539285509  0.40559835305901976  0.41999965520344057  1.0000
  C   C41       1.0  0.5379123788978505  0.34044859956436824  0.3462394656350725  1.0000
  C   C42       1.0  0.5359108956416989  0.3057549968727002  0.3085848796291232  1.0000
  C   C43       1.0  0.5448133248277003  0.2365282274290479  0.2381528425773851  1.0000
  C   C44       1.0  0.5455296577000511  0.20056671644316995  0.20157610258917907  1.0000
  C   C45       1.0  0.5417128373207304  0.23467752650117288  0.1328212332205254  1.0000
  N   N1        1.0  0.6204664181021686  0.2960622411242255  0.5216508146664012  1.0000
  N   N2        1.0  0.5308246991077682  0.5234553990182462  0.6803585466599741  1.0000
  N   N3        1.0  0.5165726583805892  0.6792095916468597  0.2956717295564032  1.0000
  O   O1        1.0  0.27636502370862104  0.5695018366243829  0.4338452969713273  1.0000
  O   O2        1.0  0.25998198570004394  0.4955742854439365  0.570526074952184  1.0000
  O   O3        1.0  0.30987462652365855  0.43324950810384877  0.49722993925573183  1.0000
  O   O4        1.0  0.7315352445137436  0.5725355477751395  0.4855916225411647  1.0000
  O   O5        1.0  0.7834276517023397  0.483432498748904  0.4410541923962512  1.0000
  O   O6        1.0  0.7532165452890712  0.4400613694898609  0.5747437685257638  1.0000
  O   O7        1.0  0.7621191626143542  0.321057527317862  0.5489491502814233  1.0000
  O   O8        1.0  0.5195654838256872  0.23923025572773324  0.5492789631256443  1.0000
  O   O9        1.0  0.6660224392574959  0.5516599725060446  0.6248085022168226  1.0000
  O   O10       1.0  0.4239989565261696  0.550606559182647  0.7118216837559572  1.0000
  O   O11       1.0  0.6813133781493123  0.6264032790440622  0.3168737275082094  1.0000
  O   O12       1.0  0.374134677294066  0.7085772521241439  0.24230354999199466  1.0000
