data_image0
_chemical_formula_structural       K2Tb2H6C14O18
_chemical_formula_sum              "K2 Tb2 H6 C14 O18"
_cell_length_a       6.705521168639873
_cell_length_b       7.549259842035812
_cell_length_c       10.981997341577024
_cell_angle_alpha    99.47565143802231
_cell_angle_beta     103.72334350001255
_cell_angle_gamma    107.61099039352509

_space_group_name_H-M_alt    "P 1"
_space_group_IT_number       1

loop_
  _space_group_symop_operation_xyz
  'x, y, z'

loop_
  _atom_site_type_symbol
  _atom_site_label
  _atom_site_symmetry_multiplicity
  _atom_site_fract_x
  _atom_site_fract_y
  _atom_site_fract_z
  _atom_site_occupancy
  K   K1        1.0  0.6311276457430848  0.3729760734082177  0.8964829936986336  1.0000
  K   K2        1.0  0.36891667944850315  0.6270321029014524  0.10351487887523796  1.0000
  Tb  Tb1       1.0  0.3620940725508817  0.15203246663199366  0.2568665134094985  1.0000
  Tb  Tb2       1.0  0.6379055829924596  0.8479640015030513  0.7431344208711296  1.0000
  H   H1        1.0  0.9368737065103615  0.7825147312841878  0.43473942055621256  1.0000
  H   H2        1.0  0.06312792417628536  0.21749039099938017  0.565260088765463  1.0000
  H   H3        1.0  0.8663067198120799  0.23742405389867827  0.7259722029524697  1.0000
  H   H4        1.0  0.1336910602564956  0.7625753489093868  0.2740233413052238  1.0000
  H   H5        1.0  0.6363329060273271  0.17969732905746133  0.6100594064065349  1.0000
  H   H6        1.0  0.3636618013550289  0.8203020677919994  0.3899356910313543  1.0000
  C   C1        1.0  0.8986870365819468  0.48573407786033584  0.368437746930283  1.0000
  C   C2        1.0  0.10131346984582724  0.5142796376908194  0.6315644332994239  1.0000
  C   C3        1.0  0.9351853561869916  0.3258834531589868  0.40612091336245026  1.0000
  C   C4        1.0  0.06482392949922658  0.6741216290987425  0.5938842556955208  1.0000
  C   C5        1.0  0.9638108334196073  0.6577910267142072  0.4634253858836175  1.0000
  C   C6        1.0  0.03618658080132776  0.3422112588238235  0.5365695344478213  1.0000
  C   C7        1.0  0.7937757110849261  0.48004608438579777  0.2291534989145845  1.0000
  C   C8        1.0  0.20622437791541864  0.5199590239340068  0.7708466955345444  1.0000
  C   C9        1.0  0.8671826074269902  0.13456719778412213  0.31079448538227444  1.0000
  C   C10       1.0  0.13282053822999262  0.8654378835408778  0.6892088814987289  1.0000
  C   C11       1.0  0.533428765744773  0.43904744578825466  0.5451726762970281  1.0000
  C   C12       1.0  0.4665634194683434  0.5609533165582122  0.4548276795556917  1.0000
  C   C13       1.0  0.9814373534531738  0.0972488361197037  0.00869138004972572  1.0000
  C   C14       1.0  0.018544730757689417  0.9027345950280508  0.9913118406186358  1.0000
  O   O1        1.0  0.8933278309628105  0.6057712694360334  0.18015750670991082  1.0000
  O   O2        1.0  0.10666188016980976  0.3942309572676379  0.8198399307214359  1.0000
  O   O3        1.0  0.6041331470323427  0.3513983002158484  0.16750934429849457  1.0000
  O   O4        1.0  0.39586460632025217  0.6486010476698781  0.8324907426459804  1.0000
  O   O5        1.0  0.6627387497623258  0.04091338664641601  0.2587416461524725  1.0000
  O   O6        1.0  0.3372638026321224  0.959090235347247  0.7412632837927404  1.0000
  O   O7        1.0  0.01772080107870269  0.0753925719725785  0.29195603351363536  1.0000
  O   O8        1.0  0.9822779006976743  0.9246053305455746  0.7080449313675885  1.0000
  O   O9        1.0  0.5101220810609561  0.268198198300631  0.49067129010006755  1.0000
  O   O10       1.0  0.4898708839361772  0.7317968974460879  0.509322136768951  1.0000
  O   O11       1.0  0.6056114289044743  0.5168755238208719  0.6651027741599054  1.0000
  O   O12       1.0  0.3943805876688841  0.4831210172934206  0.3348897747723569  1.0000
  O   O13       1.0  0.8055246106086712  0.09797746374751878  0.9345152173135176  1.0000
  O   O14       1.0  0.1944788226001818  0.9020131899638457  0.06549195432619827  1.0000
  O   O15       1.0  0.12807253761557993  0.2385304468288538  0.09489136466388001  1.0000
  O   O16       1.0  0.8719315297491972  0.7614731342062415  0.9051174228406611  1.0000
  O   O17       1.0  0.7126600781241734  0.14089506189220197  0.6843494416333513  1.0000
  O   O18       1.0  0.2873328815297639  0.8591000228700523  0.315644893773019  1.0000
