data_image0
_chemical_formula_structural       Zn2H32C34N4O12
_chemical_formula_sum              "Zn2 H32 C34 N4 O12"
_cell_length_a       9.249181105620183
_cell_length_b       10.210381390206148
_cell_length_c       11.014067724398206
_cell_angle_alpha    107.86918697394825
_cell_angle_beta     100.94499630914086
_cell_angle_gamma    99.05616434134939

_space_group_name_H-M_alt    "P 1"
_space_group_IT_number       1

loop_
  _space_group_symop_operation_xyz
  'x, y, z'

loop_
  _atom_site_type_symbol
  _atom_site_label
  _atom_site_symmetry_multiplicity
  _atom_site_fract_x
  _atom_site_fract_y
  _atom_site_fract_z
  _atom_site_occupancy
  Zn  Zn1       1.0  0.7863670921278043  0.6477553996219002  0.5528182844149682  1.0000
  Zn  Zn2       1.0  0.21363374726040973  0.35224418778305744  0.44718166855798097  1.0000
  H   H1        1.0  0.8582477045241603  0.6846990731586686  0.30595880816004234  1.0000
  H   H2        1.0  0.1417509452425563  0.31530050669555015  0.6940389656920657  1.0000
  H   H3        1.0  0.9962455175534686  0.5665642013159484  0.6283306451623785  1.0000
  H   H4        1.0  0.0037555929311921593  0.4334321610451185  0.37166667287057464  1.0000
  H   H5        1.0  0.058125039031892804  0.665068218685569  0.5545436582247945  1.0000
  H   H6        1.0  0.9418782695629415  0.33493241461457757  0.4454578898507008  1.0000
  H   H7        1.0  0.7535189360667404  0.5569816671042606  0.06318387088136035  1.0000
  H   H8        1.0  0.24648053143245366  0.4430168592165631  0.9368146637902514  1.0000
  H   H9        1.0  0.53934318580243  0.3410437762802658  0.9829268706006927  1.0000
  H   H10       1.0  0.46065572503336233  0.658952654387349  0.01707191934830373  1.0000
  H   H11       1.0  0.5626223148340372  0.39468895296389667  0.3908090807588564  1.0000
  H   H12       1.0  0.43737279039950033  0.605318085032124  0.6091891975144534  1.0000
  H   H13       1.0  0.1691810511029459  0.10202686018426022  0.15674878793298316  1.0000
  H   H14       1.0  0.8308195222025105  0.8979759143359444  0.8432519744615232  1.0000
  H   H15       1.0  0.11821996066657192  0.9239724622723388  0.865885707325134  1.0000
  H   H16       1.0  0.881782516693434  0.07602499910151292  0.1341148545276026  1.0000
  H   H17       1.0  0.2278598551088534  0.8963006184242345  0.002442764901935782  1.0000
  H   H18       1.0  0.7721393287596853  0.10370122776210171  0.9975629685057965  1.0000
  H   H19       1.0  0.9676254628347465  0.7378959327528137  0.9229474278103779  1.0000
  H   H20       1.0  0.032374548793626404  0.2621047840428332  0.0770554153799665  1.0000
  H   H21       1.0  0.001206245053744193  0.8531112929453641  0.08805087587776224  1.0000
  H   H22       1.0  0.9987918490177208  0.1468905115369594  0.9119519424510967  1.0000
  H   H23       1.0  0.4906101267585258  0.937571301534284  0.6975478368440803  1.0000
  H   H24       1.0  0.5093898948972181  0.062429339404069084  0.3024513553093654  1.0000
  H   H25       1.0  0.40127881827762485  0.16009943640048624  0.7606328854146368  1.0000
  H   H26       1.0  0.5987200985400064  0.8399012766197983  0.23936886821528694  1.0000
  H   H27       1.0  0.5345902813321362  0.37210559249618314  0.7236139992625182  1.0000
  H   H28       1.0  0.4654141195666028  0.6278950635436616  0.2763895511326239  1.0000
  H   H29       1.0  0.8483606329730762  0.13830355580513748  0.5701383892722589  1.0000
  H   H30       1.0  0.1516360907480632  0.8616928483474169  0.4298573087966702  1.0000
  H   H31       1.0  0.3816703571831966  0.22403024761996457  0.23473064894832163  1.0000
  H   H32       1.0  0.6183272012477588  0.7759736297758693  0.7652699117835053  1.0000
  C   C1        1.0  0.7687540995323163  0.5886922699798234  0.2669198689526126  1.0000
  C   C2        1.0  0.2312450993772686  0.4113094624205758  0.7330803878997755  1.0000
  C   C3        1.0  0.7087658743680052  0.5165860490732541  0.1325109017909439  1.0000
  C   C4        1.0  0.2912349600065269  0.4834135762603538  0.867490876700458  1.0000
  C   C5        1.0  0.5895266083930579  0.3973269047708571  0.08750901888275556  1.0000
  C   C6        1.0  0.41047121862749963  0.602673766545408  0.9124898196682949  1.0000
  C   C7        1.0  0.5314528624558221  0.35250229324096694  0.18081376570207647  1.0000
  C   C8        1.0  0.468544426417381  0.6475004699531298  0.8191837280111612  1.0000
  C   C9        1.0  0.602322703314286  0.4265542222729125  0.3147648238885452  1.0000
  C   C10       1.0  0.3976742984532748  0.5734475594697128  0.6852359921206739  1.0000
  C   C11       1.0  0.2920363982991034  0.1826416886466049  0.03829545108781927  1.0000
  C   C12       1.0  0.7079661301658786  0.8173597137220837  0.9616916447798188  1.0000
  C   C13       1.0  0.1531159470724219  0.09311910074887919  0.05270272271155818  1.0000
  C   C14       1.0  0.8468829747588914  0.9068815743427552  0.9472972053999129  1.0000
  C   C15       1.0  0.1286259606529328  0.9359584378378261  0.9702317654080517  1.0000
  C   C16       1.0  0.8713748762284439  0.06404116853146039  0.029769100324131163  1.0000
  C   C17       1.0  0.9866108567921046  0.8495540284804266  0.9853385040100873  1.0000
  C   C18       1.0  0.013390534245822008  0.1504476925063898  0.0146630192039225  1.0000
  C   C19       1.0  0.7294437284802769  0.8919467628182718  0.5913172146123885  1.0000
  C   C20       1.0  0.27055354187688613  0.10805181284477783  0.4086818792160471  1.0000
  C   C21       1.0  0.6753558205573924  0.024795032015241195  0.6305150506227051  1.0000
  C   C22       1.0  0.3246452984159377  0.9752055937341669  0.3694843183319422  1.0000
  C   C23       1.0  0.5497115733190653  0.03128286320579579  0.6843398902578953  1.0000
  C   C24       1.0  0.45028927108283057  0.9687166862705253  0.315658237196608  1.0000
  C   C25       1.0  0.49875581853768847  0.1559068558197012  0.718640611515589  1.0000
  C   C26       1.0  0.5012474875503018  0.8440937964447673  0.28136184931913283  1.0000
  C   C27       1.0  0.5730933129332457  0.27415887348615786  0.6984585309440234  1.0000
  C   C28       1.0  0.426909716076473  0.7258407214695454  0.301543601149774  1.0000
  C   C29       1.0  0.6993161036957786  0.26925277938693176  0.6451597906570186  1.0000
  C   C30       1.0  0.30068473569243537  0.7307468080180256  0.35484016231593063  1.0000
  C   C31       1.0  0.7769860323073702  0.3953908351071433  0.6214332827890984  1.0000
  C   C32       1.0  0.22301728130114637  0.6046097602643529  0.378566439767944  1.0000
  C   C33       1.0  0.7508554637003684  0.1444076408300745  0.6120266349169724  1.0000
  C   C34       1.0  0.24914784489446615  0.8555929924700647  0.38797491315852267  1.0000
  N   N1        1.0  0.7166325618713641  0.5413774600552371  0.35595403354201943  1.0000
  N   N2        1.0  0.2833633475922922  0.45862429894769713  0.6440447801475456  1.0000
  N   N3        1.0  0.4057686926830826  0.24314298697597536  0.15289215239689463  1.0000
  N   N4        1.0  0.5942266551034976  0.7568567143024013  0.8471087420885083  1.0000
  O   O1        1.0  0.6634163778356169  0.7856407060256814  0.6201918657198675  1.0000
  O   O2        1.0  0.33658556137703494  0.2143588472260021  0.37980735129506366  1.0000
  O   O3        1.0  0.010054866112149289  0.666541852933129  0.6286508598294771  1.0000
  O   O4        1.0  0.9899478908329726  0.3334566467851587  0.37134911800495723  1.0000
  O   O5        1.0  0.8341235078704018  0.8798573826309521  0.534306141216966  1.0000
  O   O6        1.0  0.1658770594532228  0.12014110953659698  0.4656916574966202  1.0000
  O   O7        1.0  0.906261406945518  0.39658696140491406  0.5962547512366143  1.0000
  O   O8        1.0  0.09374134999960403  0.6034115383133739  0.40374522659782025  1.0000
  O   O9        1.0  0.7092644335534928  0.4969088906175046  0.6273257747740999  1.0000
  O   O10       1.0  0.29073969528065646  0.5030906701849247  0.3726756213616794  1.0000
  O   O11       1.0  0.2992948303533751  0.20212676690474754  0.9339243792808245  1.0000
  O   O12       1.0  0.700705416307514  0.7978666700662275  0.06608381839928508  1.0000
