data_image0
_chemical_formula_structural       Zn4H42C70N16O4
_chemical_formula_sum              "Zn4 H42 C70 N16 O4"
_cell_length_a       20.00289832943667
_cell_length_b       20.07859267150592
_cell_length_c       19.539901820536734
_cell_angle_alpha    104.51756333784988
_cell_angle_beta     112.14218564696124
_cell_angle_gamma    112.26108264401748

_space_group_name_H-M_alt    "P 1"
_space_group_IT_number       1

loop_
  _space_group_symop_operation_xyz
  'x, y, z'

loop_
  _atom_site_type_symbol
  _atom_site_label
  _atom_site_symmetry_multiplicity
  _atom_site_fract_x
  _atom_site_fract_y
  _atom_site_fract_z
  _atom_site_occupancy
  Zn  Zn1       1.0  0.5943565783818059  0.10257544482271183  0.003930441366868716  1.0000
  Zn  Zn2       1.0  0.39065952884644173  0.8879467205585526  0.000795743615022107  1.0000
  Zn  Zn3       1.0  0.6026672385897885  0.9942738876575351  0.1059594658537223  1.0000
  Zn  Zn4       1.0  0.3873935517241876  0.9831319952954446  0.8853752722396921  1.0000
  H   H1        1.0  0.633110335071443  0.01654585477957939  0.8729895827468892  1.0000
  H   H2        1.0  0.34788805066159517  0.3581920862612975  0.016266916164319377  1.0000
  H   H3        1.0  0.9510728854899926  0.9622824594607025  0.8198553262686874  1.0000
  H   H4        1.0  0.8105041673973689  0.8116009138462558  0.940493584417091  1.0000
  H   H5        1.0  0.3622648636348416  0.006601316491440958  0.7123890102472075  1.0000
  H   H6        1.0  0.6360247074789244  0.12974875922039078  0.2688389257341512  1.0000
  H   H7        1.0  0.36410850531009237  0.7242904679798345  0.0327060211544961  1.0000
  H   H8        1.0  0.6137988876943868  0.24442848988363874  0.1473363219579299  1.0000
  H   H9        1.0  0.3962646982453322  0.86820958425605  0.7414216986413538  1.0000
  H   H10       1.0  0.812383766115218  0.11664049777722578  0.25810505950384044  1.0000
  H   H11       1.0  0.6416637910109203  0.23743499655207506  0.5421543062502466  1.0000
  H   H12       1.0  0.2057250616922062  0.8503811118102506  0.9918348389446126  1.0000
  H   H13       1.0  0.353321229703866  0.053931331068717676  0.4713115984736477  1.0000
  H   H14       1.0  0.19231669711798827  0.4802923491775744  0.6258099453006026  1.0000
  H   H15       1.0  0.0952629797686413  0.47060590240083394  0.3468289841785293  1.0000
  H   H16       1.0  0.8240680512648739  0.9598669339314513  0.8143626864321903  1.0000
  H   H17       1.0  0.9374901223848155  0.814018748101816  0.9458632149504991  1.0000
  H   H18       1.0  0.20055437189414255  0.690673586929826  0.8162290725244931  1.0000
  H   H19       1.0  0.2686314012278856  0.7300237178019915  0.925736121275641  1.0000
  H   H20       1.0  0.21837661788858037  0.6246696123492653  0.8583876049606333  1.0000
  H   H21       1.0  0.9091015280811876  0.36494185204975343  0.1945620249188593  1.0000
  H   H22       1.0  0.8521823980748169  0.3762468774678993  0.24436164483416434  1.0000
  H   H23       1.0  0.4450152324133683  0.007807403921432868  0.4093087282516024  1.0000
  H   H24       1.0  0.8323385897989085  0.392613465043155  0.15418155602858963  1.0000
  H   H25       1.0  0.6624407464512175  0.7720495589152776  0.12531486652385132  1.0000
  H   H26       1.0  0.6707929187234359  0.8007926856339085  0.2241316457948913  1.0000
  H   H27       1.0  0.7569793085173728  0.8618345228813808  0.21516302959062023  1.0000
  H   H28       1.0  0.3071760574083129  0.06317755153863656  0.8278794341057676  1.0000
  H   H29       1.0  0.3628662989882159  0.17148215219310714  0.8759865542311687  1.0000
  H   H30       1.0  0.25202697106654887  0.11336342617305921  0.8410633222902463  1.0000
  H   H31       1.0  0.6294674514777228  0.1903418167877291  0.8841208281009757  1.0000
  H   H32       1.0  0.3608503603120212  0.0014612009032361334  0.11885463262377972  1.0000
  H   H33       1.0  0.6127348313424081  0.859006456935525  0.9906340509362652  1.0000
  H   H34       1.0  0.5498113003971811  0.2830578774760326  0.6036641814337642  1.0000
  H   H35       1.0  0.19105865518888274  0.9494780242306362  0.8176949985677312  1.0000
  H   H36       1.0  0.5913731055354391  0.10094843527515708  0.572862271608841  1.0000
  H   H37       1.0  0.4037411160020171  0.19029193482065662  0.44082741085841093  1.0000
  H   H38       1.0  0.0689419263257562  0.35296452768517383  0.4998475509554084  1.0000
  H   H39       1.0  0.2181059770134368  0.5979688085819318  0.4727374325733252  1.0000
  H   H40       1.0  0.6083153139899906  0.49801928694398606  0.22136817782410384  1.0000
  H   H41       1.0  0.3556955164529754  0.4848671021196508  0.017290834067651334  1.0000
  H   H42       1.0  0.6159159847945048  0.6246650197119052  0.22274532069693007  1.0000
  C   C1        1.0  0.6221594536968099  0.9837440103975297  0.9079802394041465  1.0000
  C   C2        1.0  0.5265755889714612  0.22184555810905232  0.5599998971644026  1.0000
  C   C3        1.0  0.5497307408605964  0.12062434058555738  0.5424730014714925  1.0000
  C   C4        1.0  0.44540490415163  0.1702451279598804  0.47027405771581954  1.0000
  C   C5        1.0  0.49884358841948284  0.1279311771801517  0.7064757886803079  1.0000
  C   C6        1.0  0.4966339813440328  0.11713757759586234  0.2968126812563128  1.0000
  C   C7        1.0  0.41731178592964824  0.09445543045445243  0.4861348540051226  1.0000
  C   C8        1.0  0.577612837874007  0.1964561479223619  0.5268605310697155  1.0000
  C   C9        1.0  0.4985744612130461  0.1458432978690993  0.5774754483204134  1.0000
  C   C10       1.0  0.49642199138168064  0.144487207070334  0.43539158852883014  1.0000
  C   C11       1.0  0.4988275682551305  0.14074919938654773  0.6485859616624553  1.0000
  C   C12       1.0  0.21518231319181072  0.875384673972917  0.9506828380302965  1.0000
  C   C13       1.0  0.4962536188368177  0.1368849650888109  0.36108646958005863  1.0000
  C   C14       1.0  0.1021030094481432  0.40672257203822687  0.49423528653248655  1.0000
  C   C15       1.0  0.18543799226710436  0.5441296236863662  0.4784287344243126  1.0000
  C   C16       1.0  0.3481350952798437  0.7625960156004936  0.8379108631637494  1.0000
  C   C17       1.0  0.7766158315907319  0.21915779129319887  0.1567175906240052  1.0000
  C   C18       1.0  0.07126650711089871  0.4036767261219297  0.41474991000225714  1.0000
  C   C19       1.0  0.21194638656286457  0.5491209116477407  0.5585468837988259  1.0000
  C   C20       1.0  0.11662386939705983  0.47295521061975176  0.4080940704170076  1.0000
  C   C21       1.0  0.17095190316940287  0.47780130425697115  0.5645182974337432  1.0000
  C   C22       1.0  0.9933569110245275  0.3356801719641495  0.34520075661211536  1.0000
  C   C23       1.0  0.349939071874914  0.7601320442732131  0.7654889632972727  1.0000
  C   C24       1.0  0.2717870943887561  0.6242868945706518  0.6311160979128658  1.0000
  C   C25       1.0  0.3131232822926791  0.6893765957284756  0.6933197540798588  1.0000
  C   C26       1.0  0.9211355130133896  0.2816543756284843  0.28839726099828766  1.0000
  C   C27       1.0  0.5573557094376727  0.5661407738662804  0.1775469799508471  1.0000
  C   C28       1.0  0.4063452174898359  0.41673852910190595  0.061581302633882694  1.0000
  C   C29       1.0  0.4868319701242143  0.5635928298753684  0.11911055918135108  1.0000
  C   C30       1.0  0.4781045909534143  0.4190733115807603  0.1176715564301389  1.0000
  C   C31       1.0  0.4107163138757031  0.4874440336187859  0.06214783645481954  1.0000
  C   C32       1.0  0.5530722045058667  0.4954351850885105  0.1769275434241492  1.0000
  C   C33       1.0  0.49290162128458803  0.6350229939258157  0.1159830612476043  1.0000
  C   C34       1.0  0.8369569538764311  0.22003921957819017  0.2257420347653749  1.0000
  C   C35       1.0  0.4767139269483068  0.3467230777851356  0.11019684326836908  1.0000
  C   C36       1.0  0.4783055129528294  0.28467618306498826  0.0960716881496353  1.0000
  C   C37       1.0  0.4995961280042779  0.6964708325663836  0.11106328170475174  1.0000
  C   C38       1.0  0.9196639059897861  0.9288561245586776  0.8456539625995064  1.0000
  C   C39       1.0  0.8411339872201041  0.8440855605435046  0.9136259755638181  1.0000
  C   C40       1.0  0.5709404275987708  0.8411005554533941  0.12754680404306382  1.0000
  C   C41       1.0  0.41221432539476416  0.1391783714036237  0.9981104516155384  1.0000
  C   C42       1.0  0.9532177296437258  0.8881930340070953  0.8831128969639085  1.0000
  C   C43       1.0  0.8081674874905644  0.885585102916238  0.8770572284283632  1.0000
  C   C44       1.0  0.9120883046302456  0.8455122625014724  0.9167207222850565  1.0000
  C   C45       1.0  0.5018494412037668  0.7642760032025323  0.10200738254862068  1.0000
  C   C46       1.0  0.8486966840840324  0.9274471460402582  0.8425428055508634  1.0000
  C   C47       1.0  0.0264023891471936  0.890624917762331  0.8876279068467312  1.0000
  C   C48       1.0  0.739969724700572  0.8893280126244109  0.8797215688355067  1.0000
  C   C49       1.0  0.6875113766578309  0.8996862134533004  0.8902920670523714  1.0000
  C   C50       1.0  0.09011611624229228  0.8930992592475422  0.8924819089644844  1.0000
  C   C51       1.0  0.4270584486015423  0.04782358120723275  0.7651945249649614  1.0000
  C   C52       1.0  0.5689986208210556  0.09108593664581112  0.22067780443602905  1.0000
  C   C53       1.0  0.4305610906341002  0.7703665695983872  0.06218237780865364  1.0000
  C   C54       1.0  0.548597639891412  0.2024163913353618  0.09558144821623676  1.0000
  C   C55       1.0  0.5636330253866504  0.1417391344755004  0.8527929159182577  1.0000
  C   C56       1.0  0.4795422867288083  0.21379418846901638  0.0693644691772732  1.0000
  C   C57       1.0  0.4281760554019556  0.025343782920927448  0.14400346697686217  1.0000
  C   C58       1.0  0.3841231992535016  0.8416740253551396  0.7806697281600705  1.0000
  C   C59       1.0  0.7907258909931871  0.1422175756534827  0.21803132996424068  1.0000
  C   C60       1.0  0.6114184372158962  0.9028551100585175  0.9679023581563729  1.0000
  C   C61       1.0  0.20768351212662856  0.9258296191670042  0.8614690186474264  1.0000
  C   C62       1.0  0.6393441290063466  0.9230152805863628  0.9155377949665321  1.0000
  C   C63       1.0  0.16448600000043714  0.8971781861502991  0.9002369573478788  1.0000
  C   C64       1.0  0.24725630234281937  0.6857637464787842  0.8638778609428357  1.0000
  C   C65       1.0  0.8481583517569361  0.3570710921224601  0.18436316705191996  1.0000
  C   C66       1.0  0.6878231139331065  0.8235459060821527  0.18392447520701447  1.0000
  C   C67       1.0  0.49685258208085514  0.10855927198414853  0.7703593306778557  1.0000
  C   C68       1.0  0.3128812525886958  0.11680109708365198  0.8688005002914707  1.0000
  C   C69       1.0  0.4978291963304572  0.08410251802214928  0.22483590544658225  1.0000
  C   C70       1.0  0.4682880814097174  0.06878459189921668  0.45348626762937994  1.0000
  N   N1        1.0  0.5892121507282441  0.9990923020847406  0.9540582061865096  1.0000
  N   N2        1.0  0.5240308220834677  0.12799631998338154  0.04361351843645876  1.0000
  N   N3        1.0  0.5354569862417621  0.10391462374177955  0.8927025290431062  1.0000
  N   N4        1.0  0.4564316957599815  0.9986620352186291  0.09710995414810245  1.0000
  N   N5        1.0  0.40007071983483666  0.8874546808567699  0.8549981949475268  1.0000
  N   N6        1.0  0.7118530843350472  0.099613081688986  0.15126104742976307  1.0000
  N   N7        1.0  0.5826040283623615  0.9496701917806263  0.9909793776892786  1.0000
  N   N8        1.0  0.2776177044123003  0.9214159986166949  0.8866612456047988  1.0000
  N   N9        1.0  0.2821649023155786  0.8899774153352028  0.942253934534591  1.0000
  N   N10       1.0  0.37929424420507035  0.8389021202362985  0.8908444875899664  1.0000
  N   N11       1.0  0.7028864346384225  0.1476478053063346  0.11314070840938938  1.0000
  N   N12       1.0  0.5422270260630242  0.887172490933871  0.10500227317905335  1.0000
  N   N13       1.0  0.43973047119458647  0.08856835144779751  0.9842659324747203  1.0000
  N   N14       1.0  0.45065401375281783  0.04545815732402767  0.8382229804479524  1.0000
  N   N15       1.0  0.5426730662077476  0.03915578719193041  0.14431482545767688  1.0000
  N   N16       1.0  0.45452904171663994  0.8430728146804897  0.06425683321966594  1.0000
  O   O1        1.0  0.31730761733246027  0.6983509542404605  0.8523906511482052  1.0000
  O   O2        1.0  0.7797766463309019  0.2741601236791951  0.1279212231065898  1.0000
  O   O3        1.0  0.6561532125534626  0.8750195157648905  0.1683138861227178  1.0000
  O   O4        1.0  0.33169829167239573  0.11963310827887592  0.9486397927219485  1.0000
