data_image0
_chemical_formula_structural       Cs2P2H16C28S4N4
_chemical_formula_sum              "Cs2 P2 H16 C28 S4 N4"
_cell_length_a       7.393618918928404
_cell_length_b       7.941493118100083
_cell_length_c       13.469719723237255
_cell_angle_alpha    90.00040160116124
_cell_angle_beta     105.90356884684542
_cell_angle_gamma    90.00029171174825

_space_group_name_H-M_alt    "P 1"
_space_group_IT_number       1

loop_
  _space_group_symop_operation_xyz
  'x, y, z'

loop_
  _atom_site_type_symbol
  _atom_site_label
  _atom_site_symmetry_multiplicity
  _atom_site_fract_x
  _atom_site_fract_y
  _atom_site_fract_z
  _atom_site_occupancy
  Cs  Cs1       1.0  0.8495953108343669  0.3291555280399265  0.0002349318069506375  1.0000
  Cs  Cs2       1.0  0.15040207130611088  0.8291551600423052  0.999764245559845  1.0000
  P   P1        1.0  0.6272678224947653  0.918201283807676  0.9998122731320647  1.0000
  P   P2        1.0  0.3727330860185631  0.4182018585643519  0.00018780165081011958  1.0000
  H   H1        1.0  0.333929553709325  0.7018947936439233  0.5570985890866638  1.0000
  H   H2        1.0  0.6660654005094526  0.20189196926580885  0.44289895459321116  1.0000
  H   H3        1.0  0.22338871809262878  0.20191424171002137  0.5574154997403227  1.0000
  H   H4        1.0  0.7766146728317834  0.7019317040485762  0.4425825655432617  1.0000
  H   H5        1.0  0.49941515370688444  0.4771133760681182  0.4877914311526013  1.0000
  H   H6        1.0  0.5005862157155433  0.9771101794020469  0.5122037600424817  1.0000
  H   H7        1.0  0.9883261719255926  0.977248472650125  0.4881941281007371  1.0000
  H   H8        1.0  0.0116681845821347  0.47726218250852537  0.5118081795681917  1.0000
  H   H9        1.0  0.7926807653715925  0.34777131189893157  0.5990944203523156  1.0000
  H   H10       1.0  0.20731816264812147  0.8477628548720164  0.4009006113152721  1.0000
  H   H11       1.0  0.8060028778506734  0.8484089391905203  0.5994208049206691  1.0000
  H   H12       1.0  0.19399185557325177  0.34841591689504275  0.4005825099145709  1.0000
  H   H13       1.0  0.9247685671289857  0.4426465504876661  0.7797715738778023  1.0000
  H   H14       1.0  0.07522972139160089  0.9426441240017032  0.2202267249262633  1.0000
  H   H15       1.0  0.8545316964654218  0.9431656099191132  0.7801438834783809  1.0000
  H   H16       1.0  0.14546941696361418  0.4431702081126618  0.21985855271850596  1.0000
  C   C1        1.0  0.6373366806403664  0.7952023765586279  0.8900953114822626  1.0000
  C   C2        1.0  0.36265902786018234  0.2952054635410875  0.1099057016349789  1.0000
  C   C3        1.0  0.25273459834034634  0.29529671352302256  0.8904908626675975  1.0000
  C   C4        1.0  0.7472681410398748  0.7953000079529887  0.1095104617179672  1.0000
  C   C5        1.0  0.5362301434988551  0.6970545201214194  0.7079679531166718  1.0000
  C   C6        1.0  0.46375913692322956  0.19705522119827637  0.2920242660857042  1.0000
  C   C7        1.0  0.1719460414761471  0.1970418737053451  0.7083894214793744  1.0000
  C   C8        1.0  0.8280643437205909  0.6970565348292299  0.29161041380584857  1.0000
  C   C9        1.0  0.46308051895187663  0.6467055199814242  0.6054417705073973  1.0000
  C   C10       1.0  0.5369393184534204  0.14671534748670473  0.394564468964127  1.0000
  C   C11       1.0  0.14266569345498675  0.14663883355203922  0.6058077527953358  1.0000
  C   C12       1.0  0.8573330482702486  0.6466586313593725  0.3941953261150957  1.0000
  C   C13       1.0  0.5562569765033558  0.5197923570242509  0.5671666133330716  1.0000
  C   C14       1.0  0.44373230073203723  0.019777002788579502  0.4328300673723787  1.0000
  C   C15       1.0  0.010919488963274696  0.019953042617572705  0.5675700636231084  1.0000
  C   C16       1.0  0.9890852642898834  0.5199651181664182  0.43243116345855975  1.0000
  C   C17       1.0  0.7212553132938666  0.4467791511499543  0.6298400902890008  1.0000
  C   C18       1.0  0.27875004008295423  0.9467782307722816  0.37015928402289683  1.0000
  C   C19       1.0  0.9083328824838617  0.9472169854869747  0.630206297940063  1.0000
  C   C20       1.0  0.09165842385965559  0.4472331756400153  0.3697969131133333  1.0000
  C   C21       1.0  0.7952851972277697  0.49784841760622117  0.7317943431483087  1.0000
  C   C22       1.0  0.20470649877050556  0.9978434102607424  0.2682017120603533  1.0000
  C   C23       1.0  0.9362454653896747  0.9982622155320727  0.7322133471586411  1.0000
  C   C24       1.0  0.06376312295872569  0.4982669864439446  0.26779117964922244  1.0000
  C   C25       1.0  0.7010295960670231  0.6217017170133093  0.7729442717407123  1.0000
  C   C26       1.0  0.2989759678303585  0.12170714456514992  0.22705527134296938  1.0000
  C   C27       1.0  0.07176886489042289  0.12192012275853165  0.7733309117580659  1.0000
  C   C28       1.0  0.9282324865734424  0.6219344988226826  0.22667022841186224  1.0000
  S   S1        1.0  0.44979611524090757  0.8429051363731406  0.7786169225634295  1.0000
  S   S2        1.0  0.5502013803181214  0.3429066773576893  0.22138381360951342  1.0000
  S   S3        1.0  0.3288995795005291  0.3428213044424099  0.7789741838565403  1.0000
  S   S4        1.0  0.6711091661832638  0.842830589776398  0.22102823734557828  1.0000
  N   N1        1.0  0.7540954880726288  0.6786652842119026  0.8738842114709442  1.0000
  N   N2        1.0  0.24589928640807557  0.1786667384635124  0.1261161786205349  1.0000
  N   N3        1.0  0.11965975839673598  0.17891515787112414  0.8743092719219587  1.0000
  N   N4        1.0  0.8803420514215359  0.6789167708246141  0.1256929155631923  1.0000
