data_image0
_chemical_formula_structural       Yb4H48C60O36
_chemical_formula_sum              "Yb4 H48 C60 O36"
_cell_length_a       9.9100197550313
_cell_length_b       11.923888327893863
_cell_length_c       13.587712454857988
_cell_angle_alpha    103.72505062323941
_cell_angle_beta     89.99971180911716
_cell_angle_gamma    90.00007421195578

_space_group_name_H-M_alt    "P 1"
_space_group_IT_number       1

loop_
  _space_group_symop_operation_xyz
  'x, y, z'

loop_
  _atom_site_type_symbol
  _atom_site_label
  _atom_site_symmetry_multiplicity
  _atom_site_fract_x
  _atom_site_fract_y
  _atom_site_fract_z
  _atom_site_occupancy
  Yb  Yb1       1.0  0.21214365699668036  0.058398368839952794  0.0766513585395714  1.0000
  Yb  Yb2       1.0  0.7121420564912952  0.441602445750405  0.923350870078238  1.0000
  Yb  Yb3       1.0  0.7878536998145834  0.9416027996519603  0.9233504455223809  1.0000
  Yb  Yb4       1.0  0.28785429124582157  0.5583991259133398  0.07664940856714249  1.0000
  H   H1        1.0  0.22612084382176084  0.4266685060472284  0.3298883080571215  1.0000
  H   H2        1.0  0.7261173871097669  0.07333082506389127  0.6701116073937925  1.0000
  H   H3        1.0  0.7738835765580349  0.5733326330204702  0.6701104555322317  1.0000
  H   H4        1.0  0.273880978789613  0.9266678066987452  0.3298871873379382  1.0000
  H   H5        1.0  0.25606375715030083  0.5432567255168052  0.506560032879392  1.0000
  H   H6        1.0  0.7560601023388004  0.9567422574549126  0.4934384532700165  1.0000
  H   H7        1.0  0.7439406632319392  0.4567441972526964  0.4934379731893159  1.0000
  H   H8        1.0  0.24393826355920115  0.04325470277118627  0.5065603622159358  1.0000
  H   H9        1.0  0.4219670295391041  0.24773545733317792  0.5942583964625782  1.0000
  H   H10       1.0  0.9219646688118956  0.2522647261319121  0.40574079420916576  1.0000
  H   H11       1.0  0.5780373908413808  0.7522665175027825  0.40574035674966774  1.0000
  H   H12       1.0  0.0780336970843507  0.7477332861606526  0.5942587684203247  1.0000
  H   H13       1.0  0.3894711473547546  0.1293618308876958  0.41635678464473364  1.0000
  H   H14       1.0  0.889468753203893  0.3706377303553408  0.5836432924620425  1.0000
  H   H15       1.0  0.6105332730225969  0.8706395244781929  0.5836427364652721  1.0000
  H   H16       1.0  0.11052961269235341  0.6293602819372239  0.41635627016744786  1.0000
  H   H17       1.0  0.4817831971764549  0.6573903564874685  0.7046875308386761  1.0000
  H   H18       1.0  0.9817807311050688  0.8426095107926271  0.2953131620206121  1.0000
  H   H19       1.0  0.518220214121179  0.34261099887837787  0.29531199027317  1.0000
  H   H20       1.0  0.018217634788044303  0.157387882029866  0.7046871685066449  1.0000
  H   H21       1.0  0.3777438696206944  0.8443980567109008  0.7995072225375849  1.0000
  H   H22       1.0  0.8777377287650554  0.6556019886319219  0.2004915668999345  1.0000
  H   H23       1.0  0.6222615598388332  0.15560308235684056  0.2004915410499279  1.0000
  H   H24       1.0  0.12225760989621652  0.34439475529585195  0.7995064910708862  1.0000
  H   H25       1.0  0.9920826107751567  0.6764855533069465  0.7888514099346651  1.0000
  H   H26       1.0  0.4920786528406822  0.823515553785462  0.2111477095620202  1.0000
  H   H27       1.0  0.007921809605015501  0.3235128621577488  0.21114662726537153  1.0000
  H   H28       1.0  0.5079187039814246  0.1764828616789345  0.7888503276508984  1.0000
  H   H29       1.0  0.0961491506070402  0.4900255329526074  0.6965186975390978  1.0000
  H   H30       1.0  0.5961471161676999  0.009975861860048979  0.30348014584226485  1.0000
  H   H31       1.0  0.903856278857376  0.5099751735187398  0.3034785510071245  1.0000
  H   H32       1.0  0.40385225881698983  0.9900231730745049  0.6965171234692136  1.0000
  H   H33       1.0  0.030058863464667202  0.8623804588690123  0.08078855650041558  1.0000
  H   H34       1.0  0.5300537881071252  0.6376195276048762  0.9192084607472353  1.0000
  H   H35       1.0  0.9699465659990524  0.13761941183406626  0.9192087024229137  1.0000
  H   H36       1.0  0.4699395323995363  0.3623830667006942  0.0807895245874946  1.0000
  H   H37       1.0  0.16581014298525792  0.8388224950381725  0.13796020341617068  1.0000
  H   H38       1.0  0.6658065082173368  0.6611794201914236  0.8620400958667815  1.0000
  H   H39       1.0  0.8341932683106138  0.1611799123941466  0.8620400648392135  1.0000
  H   H40       1.0  0.33418681227885844  0.3388232035386594  0.1379609299276652  1.0000
  H   H41       1.0  0.12724510726212662  0.2719574356852092  0.017082506839543  1.0000
  H   H42       1.0  0.6272437701315284  0.22804086441054483  0.9829200625987298  1.0000
  H   H43       1.0  0.8727562858690873  0.7280418449721395  0.982918560448617  1.0000
  H   H44       1.0  0.37275459575914033  0.7719567447101453  0.017081025449172695  1.0000
  H   H45       1.0  0.2003023126084784  0.1906716227533565  0.9240978609837001  1.0000
  H   H46       1.0  0.7003013088474647  0.3093316687145061  0.0759013392363741  1.0000
  H   H47       1.0  0.7997000896139428  0.8093320236190564  0.07590087147801229  1.0000
  H   H48       1.0  0.2996960479787845  0.6906717613594964  0.9240966357138873  1.0000
  C   C1        1.0  0.2825425922058288  0.1974037646439726  0.2591111182437018  1.0000
  C   C2        1.0  0.7825359788691844  0.302595787543403  0.740889348920575  1.0000
  C   C3        1.0  0.7174658644921765  0.8025965386556208  0.7408876557154045  1.0000
  C   C4        1.0  0.21745734163226874  0.6974036799872892  0.2591094354432499  1.0000
  C   C5        1.0  0.30239795213855564  0.2691451098129036  0.3628414296765712  1.0000
  C   C6        1.0  0.8023949696359339  0.230852772519583  0.6371589858076945  1.0000
  C   C7        1.0  0.697607477318897  0.7308535219500314  0.6371573650422704  1.0000
  C   C8        1.0  0.19760238718058795  0.769145239772939  0.3628405768236362  1.0000
  C   C9        1.0  0.26598935158506987  0.3863504464686684  0.3880010662263159  1.0000
  C   C10       1.0  0.7659853500601913  0.11364743278043929  0.6119994820696846  1.0000
  C   C11       1.0  0.7340150687909033  0.6136492373606897  0.6119984756379111  1.0000
  C   C12       1.0  0.23401200675495207  0.8863489079755454  0.3880001013158676  1.0000
  C   C13       1.0  0.28275794973296803  0.4521014056805511  0.48657858317037034  1.0000
  C   C14       1.0  0.7827525074632647  0.047897310756844974  0.5134218935833061  1.0000
  C   C15       1.0  0.7172474797234188  0.5478991139171115  0.5134209483149093  1.0000
  C   C16       1.0  0.21724484934767932  0.9521002983638028  0.4865791944664294  1.0000
  C   C17       1.0  0.33736198664232836  0.40058378194550665  0.5601333231660631  1.0000
  C   C18       1.0  0.8373571327784224  0.09941534228805438  0.4398654289856552  1.0000
  C   C19       1.0  0.6626444518986717  0.5994163050558114  0.4398646932760713  1.0000
  C   C20       1.0  0.16264022404054404  0.9005824537062708  0.5601333761250231  1.0000
  C   C21       1.0  0.3777947958353566  0.2845867241989665  0.5356246176685956  1.0000
  C   C22       1.0  0.8777919726698328  0.21541094822048018  0.4643747652650703  1.0000
  C   C23       1.0  0.6222106336234745  0.715413579100499  0.4643741562960315  1.0000
  C   C24       1.0  0.12220639322503503  0.784585392535547  0.5356248181186415  1.0000
  C   C25       1.0  0.3593622245909814  0.21977682032870396  0.4374436501406436  1.0000
  C   C26       1.0  0.8593608434265576  0.28022149942439256  0.562558072589951  1.0000
  C   C27       1.0  0.6406411867035119  0.7802239155670774  0.5625566388689619  1.0000
  C   C28       1.0  0.14063853154627995  0.7197758933981433  0.43744225793545866  1.0000
  C   C29       1.0  0.29507716687075464  0.5647828307601657  0.6967897347891351  1.0000
  C   C30       1.0  0.7950697459626568  0.9352172075817934  0.3032093561990975  1.0000
  C   C31       1.0  0.7049312898254955  0.4352185246058937  0.30320978631351647  1.0000
  C   C32       1.0  0.20492559269685984  0.06478058841244658  0.6967894489152684  1.0000
  C   C33       1.0  0.37485398717489465  0.6636109908527814  0.7231602818616665  1.0000
  C   C34       1.0  0.8748496207040972  0.8363905389082407  0.2768407802990538  1.0000
  C   C35       1.0  0.6251504331982575  0.3363916328777705  0.2768407439125298  1.0000
  C   C36       1.0  0.12514773611067653  0.1636085254507477  0.7231595294758149  1.0000
  C   C37       1.0  0.3165956788687724  0.7668075633142306  0.7754165994133828  1.0000
  C   C38       1.0  0.8165915114325771  0.7331945809831383  0.2245839073615983  1.0000
  C   C39       1.0  0.6834077324277887  0.2331956798863573  0.2245836584648941  1.0000
  C   C40       1.0  0.18340483630247212  0.2668044833758002  0.7754164024151107  1.0000
  C   C41       1.0  0.17899042191778858  0.7716462216662164  0.8003379103180988  1.0000
  C   C42       1.0  0.6789884370758587  0.7283548589113805  0.19966235126045004  1.0000
  C   C43       1.0  0.8210099621389091  0.22835618576596764  0.19966235794281317  1.0000
  C   C44       1.0  0.3210069015745703  0.2716446380439095  0.8003394735594043  1.0000
  C   C45       1.0  0.09892502082275463  0.672222273872393  0.7691930638284601  1.0000
  C   C46       1.0  0.5989219676822161  0.8277800388647876  0.2308059540159562  1.0000
  C   C47       1.0  0.90108040863921  0.3277786488971515  0.23080494223840728  1.0000
  C   C48       1.0  0.4010763982209938  0.17222004813618946  0.7691920624409078  1.0000
  C   C49       1.0  0.15670098619561665  0.568375202076389  0.7176077237817893  1.0000
  C   C50       1.0  0.6566967305899781  0.9316283839182802  0.28239258797609773  1.0000
  C   C51       1.0  0.8433054523418735  0.43162698905785396  0.2823917869474215  1.0000
  C   C52       1.0  0.3433016353090323  0.06837297144735288  0.7176069331449496  1.0000
  C   C53       1.0  0.12030220218355943  0.8790881496626355  0.8661522501778405  1.0000
  C   C54       1.0  0.6202994942323202  0.6209158364214673  0.1338466689328754  1.0000
  C   C55       1.0  0.8797002000364175  0.12091571300797449  0.133847239804517  1.0000
  C   C56       1.0  0.37969483534816834  0.3790827953409915  0.8661521258062164  1.0000
  C   C57       1.0  0.496511310621301  0.9399865652481264  0.011676198710389902  1.0000
  C   C58       1.0  0.9965066457276353  0.5600114154444285  0.9883237036618338  1.0000
  C   C59       1.0  0.5034961369799191  0.06000896916453502  0.9883264354935759  1.0000
  C   C60       1.0  0.0034866747664850004  0.43998870098084797  0.011677353263934298  1.0000
  O   O1        1.0  0.2965808883533613  0.0874885325550352  0.24024293827851304  1.0000
  O   O2        1.0  0.7965753260461029  0.4125099687547901  0.7597567305319542  1.0000
  O   O3        1.0  0.7034255501813719  0.9125103155061394  0.7597566139591407  1.0000
  O   O4        1.0  0.20342001261411008  0.5874886630077185  0.24024206420529737  1.0000
  O   O5        1.0  0.24836131275165496  0.24443127445599797  0.18658895644805537  1.0000
  O   O6        1.0  0.7483541251784162  0.25556805853844367  0.8134108778817505  1.0000
  O   O7        1.0  0.7516471439481053  0.7555679767771367  0.8134090703675054  1.0000
  O   O8        1.0  0.2516371771635875  0.7444314089921562  0.18658790648575518  1.0000
  O   O9        1.0  0.35992169031849397  0.4602700176737855  0.6582060933128489  1.0000
  O   O10       1.0  0.8599123744867402  0.03973266784137048  0.34179329256681257  1.0000
  O   O11       1.0  0.6400897936165536  0.5397340612954054  0.3417941541735985  1.0000
  O   O12       1.0  0.1400799369381218  0.9602674191593505  0.6582047239010862  1.0000
  O   O13       1.0  0.9931672379630431  0.8858986063137237  0.8750654200240362  1.0000
  O   O14       1.0  0.49316253798713217  0.6141081349501859  0.1249328653571169  1.0000
  O   O15       1.0  0.006839200578589601  0.11410859943013209  0.12493402844251728  1.0000
  O   O16       1.0  0.5068307825076772  0.3858928172433592  0.875068181191544  1.0000
  O   O17       1.0  0.20128781079470312  0.9561832224872973  0.9134375600378064  1.0000
  O   O18       1.0  0.7012822812034969  0.5438207998796473  0.08656410412162778  1.0000
  O   O19       1.0  0.7987186277434831  0.0438198044152145  0.08656194031429719  1.0000
  O   O20       1.0  0.2987110392913125  0.4561801523138981  0.9134369424270331  1.0000
  O   O21       1.0  0.3907565572186656  0.9173231401916625  0.05610448445921179  1.0000
  O   O22       1.0  0.8907592980066285  0.5826770239516106  0.9439064193337784  1.0000
  O   O23       1.0  0.6092357541413094  0.08267461605135647  0.9439118058982813  1.0000
  O   O24       1.0  0.10923805877948922  0.41732547175399765  0.056102970311783885  1.0000
  O   O25       1.0  0.5949597744733667  0.8729061244875495  0.9840950825448329  1.0000
  O   O26       1.0  0.09497199268076173  0.6270957553180807  0.0159024346947021  1.0000
  O   O27       1.0  0.40502547336584643  0.1270955060247587  0.0159112770402174  1.0000
  O   O28       1.0  0.9050283913682337  0.3729100246116984  0.9841008325174769  1.0000
  O   O29       1.0  0.11686689547173762  0.8963536349909091  0.10861280257844898  1.0000
  O   O30       1.0  0.6168619589437655  0.6036476271991729  0.8913854026781962  1.0000
  O   O31       1.0  0.8831375249087473  0.10364833984505847  0.8913859506338041  1.0000
  O   O32       1.0  0.38312934341077914  0.3963543182117206  0.1086103100982712  1.0000
  O   O33       1.0  0.137739177679542  0.1890431084227018  0.9793722669155401  1.0000
  O   O34       1.0  0.6377375489079287  0.3109576704420363  0.0206271926523627  1.0000
  O   O35       1.0  0.8622632245432558  0.8109578143467078  0.020625739156848497  1.0000
  O   O36       1.0  0.3622608169977256  0.6890422002607437  0.9793700662838489  1.0000
