data_image0
_chemical_formula_structural       Ni8H24C48O26
_chemical_formula_sum              "Ni8 H24 C48 O26"
_cell_length_a       18.255253790506288
_cell_length_b       18.255208165965737
_cell_length_c       18.25537344384886
_cell_angle_alpha    59.999084633255904
_cell_angle_beta     59.999158176055204
_cell_angle_gamma    59.99884400768631

_space_group_name_H-M_alt    "P 1"
_space_group_IT_number       1

loop_
  _space_group_symop_operation_xyz
  'x, y, z'

loop_
  _atom_site_type_symbol
  _atom_site_label
  _atom_site_symmetry_multiplicity
  _atom_site_fract_x
  _atom_site_fract_y
  _atom_site_fract_z
  _atom_site_occupancy
  Ni  Ni1       1.0  0.7923492258991943  0.7923445313524625  0.7923176258990665  1.0000
  Ni  Ni2       1.0  0.623028553897072  0.7923367693689938  0.7923129501883465  1.0000
  Ni  Ni3       1.0  0.7923497616107011  0.6230028250775559  0.792317418577163  1.0000
  Ni  Ni4       1.0  0.7923426110305556  0.7923378930768267  0.6229969652185898  1.0000
  Ni  Ni5       1.0  0.3769878039325151  0.20765733551361634  0.20766078660264506  1.0000
  Ni  Ni6       1.0  0.2076571879705043  0.2076527766999732  0.2076574845254555  1.0000
  Ni  Ni7       1.0  0.2076614524423946  0.3769817536106075  0.207662266524693  1.0000
  Ni  Ni8       1.0  0.20766077115687417  0.20765638327921468  0.3769855503462622  1.0000
  H   H1        1.0  0.6662354307038924  0.9514636589446681  0.9514649088666117  1.0000
  H   H2        1.0  0.43084438017945786  0.9514629109386307  0.9514632964316687  1.0000
  H   H3        1.0  0.9514564871850123  0.4308472809038336  0.6662416123231552  1.0000
  H   H4        1.0  0.9514554364408454  0.6662431548626132  0.43084918065109423  1.0000
  H   H5        1.0  0.9514603336180871  0.9514629906346102  0.6662382255200112  1.0000
  H   H6        1.0  0.9514577968871195  0.9514604213963336  0.43084731352237776  1.0000
  H   H7        1.0  0.4308460712948873  0.6662398356016654  0.9514595409724509  1.0000
  H   H8        1.0  0.6662380111662286  0.4308456113542508  0.9514608521819526  1.0000
  H   H9        1.0  0.9514612984229981  0.6662359415632723  0.9514637086959112  1.0000
  H   H10       1.0  0.9514613383731574  0.4308445023020798  0.9514647492424403  1.0000
  H   H11       1.0  0.6662425464959157  0.9514575557241971  0.4308473650872385  1.0000
  H   H12       1.0  0.43084523849157813  0.9514593474883172  0.6662407920540331  1.0000
  H   H13       1.0  0.5691511808265092  0.04854983855956623  0.048550162559109815  1.0000
  H   H14       1.0  0.33375324159552383  0.04854987100051744  0.048549291226095206  1.0000
  H   H15       1.0  0.048542123671730164  0.5691575624760503  0.3337599305994843  1.0000
  H   H16       1.0  0.0485436837319213  0.33375891104153516  0.5691559722052945  1.0000
  H   H17       1.0  0.5691551852335904  0.04854621317043246  0.33375822073026024  1.0000
  H   H18       1.0  0.33375751458302005  0.048546546688768955  0.5691554812586335  1.0000
  H   H19       1.0  0.04854830649406956  0.3337536015752463  0.04855086197570556  1.0000
  H   H20       1.0  0.0485471540285899  0.5691537886998433  0.048548895040617865  1.0000
  H   H21       1.0  0.5691539603267658  0.3337554725682992  0.04854743278756493  1.0000
  H   H22       1.0  0.3337551306223999  0.5691559541275524  0.048546754105267056  1.0000
  H   H23       1.0  0.0485456266891831  0.04854813912883319  0.5691537502761365  1.0000
  H   H24       1.0  0.048544625039888045  0.04854820057740742  0.3337573307417756  1.0000
  C   C1        1.0  0.5934128239113436  0.973088931049112  0.9730891715600761  1.0000
  C   C2        1.0  0.4604135886649846  0.973088087176677  0.9730884345136416  1.0000
  C   C3        1.0  0.9730766031893268  0.46042482515692046  0.5934192777500015  1.0000
  C   C4        1.0  0.9730759737460347  0.5934243291709294  0.4604203254036179  1.0000
  C   C5        1.0  0.9730808372094087  0.9730846878499407  0.5934165436797939  1.0000
  C   C6        1.0  0.9730798046065491  0.9730836368823077  0.46041957520047555  1.0000
  C   C7        1.0  0.46041348632748225  0.5934182652287276  0.9730838943320207  1.0000
  C   C8        1.0  0.5934167471694707  0.46041531370852345  0.9730834142237157  1.0000
  C   C9        1.0  0.9730867117425035  0.5934132260272662  0.9730891594231537  1.0000
  C   C10       1.0  0.9730859302629613  0.4604155795182124  0.9730886131493648  1.0000
  C   C11       1.0  0.5934224086832884  0.9730798199264542  0.46041754544322794  1.0000
  C   C12       1.0  0.46042211526369636  0.9730790318340826  0.5934188755059181  1.0000
  C   C13       1.0  0.5395677227246269  0.02693232460002558  0.026930270019100574  1.0000
  C   C14       1.0  0.40657230626331403  0.02692982154027135  0.026928715164480366  1.0000
  C   C15       1.0  0.026916823398743128  0.5395835987142873  0.4065805144874658  1.0000
  C   C16       1.0  0.02691760753006622  0.406580962594589  0.5395817733456311  1.0000
  C   C17       1.0  0.5395841648733608  0.026920333684458366  0.4065771215356548  1.0000
  C   C18       1.0  0.4065805078299293  0.026920564344742087  0.5395801255709857  1.0000
  C   C19       1.0  0.026928254696777305  0.40657181827656075  0.02693058658955037  1.0000
  C   C20       1.0  0.026929368238796884  0.5395676056532465  0.026931318141165974  1.0000
  C   C21       1.0  0.5395769187285923  0.40657508551552735  0.02692392910152112  1.0000
  C   C22       1.0  0.40657530127790426  0.5395763936404309  0.026924409211708966  1.0000
  C   C23       1.0  0.026922354140253815  0.026928041198928596  0.5395729269573054  1.0000
  C   C24       1.0  0.02692055800567769  0.02692622669578537  0.40657614375457024  1.0000
  C   C25       1.0  0.6119231878809547  0.8880751998129314  0.8880745234004975  1.0000
  C   C26       1.0  0.5541583454315457  0.9458442008004366  0.9458450093572138  1.0000
  C   C27       1.0  0.8880682052264888  0.6119403326224387  0.6119220214573106  1.0000
  C   C28       1.0  0.9458340888734539  0.5541679904457768  0.5541598735122406  1.0000
  C   C29       1.0  0.8880663131565356  0.8880686457757464  0.6119240693836115  1.0000
  C   C30       1.0  0.9458330021977587  0.9458378068089034  0.5541625597790301  1.0000
  C   C31       1.0  0.6119223069902161  0.6119254885150625  0.888076519703084  1.0000
  C   C32       1.0  0.5541549773950862  0.554154591327418  0.9458444313607118  1.0000
  C   C33       1.0  0.8880699591085702  0.6119267862588201  0.888072456660872  1.0000
  C   C34       1.0  0.9458399073239433  0.5541607158161811  0.9458430750248609  1.0000
  C   C35       1.0  0.6119355153854897  0.8880754376757167  0.61191593548007  1.0000
  C   C36       1.0  0.5541654201375861  0.9458391698898226  0.5541545112902994  1.0000
  C   C37       1.0  0.38805346684542746  0.11193726848132717  0.11193598356317122  1.0000
  C   C38       1.0  0.4458204663991624  0.05417699819982141  0.05417473661404413  1.0000
  C   C39       1.0  0.11192765109193206  0.3880738077846644  0.3880676118699071  1.0000
  C   C40       1.0  0.05415960772496232  0.44584179903498006  0.44583694132747803  1.0000
  C   C41       1.0  0.3880747531346458  0.11192682064635305  0.3880711677232469  1.0000
  C   C42       1.0  0.44584194781725733  0.05416237904939444  0.44583553095638717  1.0000
  C   C43       1.0  0.11193775847268479  0.38805100914987634  0.11194098938509  1.0000
  C   C44       1.0  0.05417495181126247  0.44582093438824444  0.05417681791380596  1.0000
  C   C45       1.0  0.3880641177010134  0.38806607304150026  0.11193506058515369  1.0000
  C   C46       1.0  0.4458319035838232  0.4458308529296318  0.05416811366670516  1.0000
  C   C47       1.0  0.11192978620972131  0.11193149490156891  0.3880558393297378  1.0000
  C   C48       1.0  0.05416512327676767  0.054170933577552274  0.4458255081490209  1.0000
  O   O1        1.0  0.7500714220047937  0.7500172083513094  0.7499929413229082  1.0000
  O   O2        1.0  0.2499881036069453  0.24994008585410651  0.24996974208921333  1.0000
  O   O3        1.0  0.6968865916612473  0.8655082463308759  0.8655077825292777  1.0000
  O   O4        1.0  0.5721029133018692  0.8655125869890908  0.865508116593048  1.0000
  O   O5        1.0  0.8655105162421249  0.5721093402976437  0.6968658561441287  1.0000
  O   O6        1.0  0.8654980697280197  0.6969052400635363  0.5720983899124191  1.0000
  O   O7        1.0  0.8655069792505613  0.8655092108254864  0.6968762316198179  1.0000
  O   O8        1.0  0.8654965318230055  0.8654954593275549  0.5721104178697373  1.0000
  O   O9        1.0  0.5720905187309525  0.696883236421563  0.8655122531141686  1.0000
  O   O10       1.0  0.6968750870530087  0.5720988121214889  0.8655126197508595  1.0000
  O   O11       1.0  0.8655042868737016  0.6968917769748871  0.8655049983735098  1.0000
  O   O12       1.0  0.8655048989287054  0.5721114154243238  0.8655082675654242  1.0000
  O   O13       1.0  0.6968982057433166  0.8655033859925966  0.5720942864258377  1.0000
  O   O14       1.0  0.5720998584975876  0.8655193692735351  0.6968648489978831  1.0000
  O   O15       1.0  0.4278866798329801  0.13449419460627607  0.13449178421475944  1.0000
  O   O16       1.0  0.30309232984738804  0.1345075843557524  0.13450648777561725  1.0000
  O   O17       1.0  0.1344919612672799  0.42789608295658615  0.30311513884866054  1.0000
  O   O18       1.0  0.13449076451394162  0.3031183122067204  0.42789623346422445  1.0000
  O   O19       1.0  0.42790247121556035  0.13449576656707046  0.303108593924847  1.0000
  O   O20       1.0  0.3031248077743456  0.13448970542557956  0.4278946058226722  1.0000
  O   O21       1.0  0.13450873017762896  0.30308474434104227  0.1345104603379426  1.0000
  O   O22       1.0  0.1344926116950092  0.4278769893420175  0.13449873806369783  1.0000
  O   O23       1.0  0.42789648534667885  0.3031034265331911  0.13450096279985504  1.0000
  O   O24       1.0  0.30311792699806256  0.4278840004522096  0.13449977835749385  1.0000
  O   O25       1.0  0.1344860778253292  0.1344879047718378  0.42788566828131286  1.0000
  O   O26       1.0  0.13450200098992568  0.13450381078856574  0.303089991444196  1.0000
