data_image0
_chemical_formula_structural       Cd6H28C24O32
_chemical_formula_sum              "Cd6 H28 C24 O32"
_cell_length_a       6.1319585636087535
_cell_length_b       9.81214767660871
_cell_length_c       15.232372505008062
_cell_angle_alpha    90.00011104998462
_cell_angle_beta     90.00001412459547
_cell_angle_gamma    102.23414624385694

_space_group_name_H-M_alt    "P 1"
_space_group_IT_number       1

loop_
  _space_group_symop_operation_xyz
  'x, y, z'

loop_
  _atom_site_type_symbol
  _atom_site_label
  _atom_site_symmetry_multiplicity
  _atom_site_fract_x
  _atom_site_fract_y
  _atom_site_fract_z
  _atom_site_occupancy
  Cd  Cd1       1.0  0.6055285911309622  0.32084636703807945  0.4026492599221215  1.0000
  Cd  Cd2       1.0  0.394469262838136  0.1791511959414152  0.9026480939502834  1.0000
  Cd  Cd3       1.0  0.39447400042060105  0.6791550021150385  0.5973512487980418  1.0000
  Cd  Cd4       1.0  0.6055309771397787  0.8208480924466814  0.09735110177536653  1.0000
  Cd  Cd5       1.0  0.9999981902206869  0.9999984814795583  0.5000009191926085  1.0000
  Cd  Cd6       1.0  4.100829472058789e-07  0.49999967824504676  0.9999994895737532  1.0000
  H   H1        1.0  0.31354191105417323  0.508730056695498  0.4175045653230356  1.0000
  H   H2        1.0  0.6864592632423195  0.9912709587335157  0.9175038174706176  1.0000
  H   H3        1.0  0.6864583289242958  0.4912692316936643  0.5824952868991603  1.0000
  H   H4        1.0  0.3135420603975375  0.008731458103632402  0.082495378257029  1.0000
  H   H5        1.0  0.1966868972897018  0.36885286703492437  0.46154029145557024  1.0000
  H   H6        1.0  0.8033117782076147  0.13114697280802548  0.9615417344653424  1.0000
  H   H7        1.0  0.8033129814670088  0.6311453785357557  0.5384582477728588  1.0000
  H   H8        1.0  0.19668755508089225  0.8688544060836423  0.03845811775810402  1.0000
  H   H9        1.0  0.7304876686441657  0.07732495513057809  0.7562499740418007  1.0000
  H   H10       1.0  0.2695173549453855  0.4226794175779674  0.2562492619756256  1.0000
  H   H11       1.0  0.26951329377670413  0.9226764188934169  0.24375119117483027  1.0000
  H   H12       1.0  0.7304832462537262  0.5773209136275453  0.7437505902472384  1.0000
  H   H13       1.0  0.542177033021531  0.1442920683080899  0.6912286179999472  1.0000
  H   H14       1.0  0.4578242616852036  0.355711060190103  0.19122718588867124  1.0000
  H   H15       1.0  0.4578223002686314  0.8557093105867751  0.3087732037131517  1.0000
  H   H16       1.0  0.5421759782932652  0.6442882281990593  0.8087726663335248  1.0000
  H   H17       1.0  0.10931917165076747  0.09024485517167588  0.6875869755074506  1.0000
  H   H18       1.0  0.8906797653575184  0.4097561807410771  0.18758696864557586  1.0000
  H   H19       1.0  0.8906798004176506  0.9097554809047138  0.3124135332118812  1.0000
  H   H20       1.0  0.10932047462094377  0.5902431076480853  0.8124128835766201  1.0000
  H   H21       1.0  0.8033701039100053  0.3549713156587161  0.7276748249339422  1.0000
  H   H22       1.0  0.19663360369234076  0.14503401195154453  0.22767572989765483  1.0000
  H   H23       1.0  0.19662922937795457  0.6450300632318929  0.27232437079295124  1.0000
  H   H24       1.0  0.8033686266380329  0.8549663143841573  0.7723241223252943  1.0000
  H   H25       1.0  0.03125671792512458  0.2877047506884125  0.76522897156557  1.0000
  H   H26       1.0  0.9687434333777601  0.21229966578517437  0.265228071084195  1.0000
  H   H27       1.0  0.9687422541427393  0.7122955853869116  0.23477088065721577  1.0000
  H   H28       1.0  0.031257529042001436  0.7877017082366893  0.7347717811393297  1.0000
  C   C1        1.0  0.8052386058173936  0.24367673073044227  0.5562333078291106  1.0000
  C   C2        1.0  0.1947621005387532  0.25632491660670104  0.05623303784053491  1.0000
  C   C3        1.0  0.19476000502982063  0.7563225625285314  0.4437665443930073  1.0000
  C   C4        1.0  0.8052368715285565  0.7436754194675573  0.9437661578856978  1.0000
  C   C5        1.0  0.8838209218627993  0.1950511272025892  0.6444651050724489  1.0000
  C   C6        1.0  0.11618029416433727  0.3049518494495659  0.14446423079328954  1.0000
  C   C7        1.0  0.11617605985371428  0.8049481709272612  0.3555354036461368  1.0000
  C   C8        1.0  0.8838203070347743  0.6950484817559471  0.8555356214295745  1.0000
  C   C9        1.0  0.6859580604872519  0.0937698725354039  0.687711085602402  1.0000
  C   C10       1.0  0.3140432283012374  0.40623324454100646  0.18770970125489586  1.0000
  C   C11       1.0  0.3140396436711086  0.9062315112282137  0.3122900796140656  1.0000
  C   C12       1.0  0.6859593632503261  0.5937681246121116  0.8122908074652673  1.0000
  C   C13       1.0  0.6039976830520359  0.9515232645456567  0.6463418274305255  1.0000
  C   C14       1.0  0.39600176709845397  0.548477918067519  0.14633935076724217  1.0000
  C   C15       1.0  0.3959980307555283  0.0484770812735462  0.3536606507782879  1.0000
  C   C16       1.0  0.6039984728789065  0.4515213703195116  0.8536591884618547  1.0000
  C   C17       1.0  0.9540649098136311  0.32086352409044855  0.7060123949415245  1.0000
  C   C18       1.0  0.04593640976838741  0.17913965241528734  0.20601267006203738  1.0000
  C   C19       1.0  0.04593243312297797  0.6791368168546867  0.29398745728117603  1.0000
  C   C20       1.0  0.9540638302100815  0.8208596359738749  0.7939871821601587  1.0000
  C   C21       1.0  0.11219403328503569  0.4454709443457859  0.6671905049526076  1.0000
  C   C22       1.0  0.8878088501105237  0.0545321012315867  0.1671913695622891  1.0000
  C   C23       1.0  0.88780493878172  0.5545293917274066  0.3328080342770719  1.0000
  C   C24       1.0  0.11219138986849937  0.9454671871586413  0.8328091391564599  1.0000
  O   O1        1.0  0.8743898635448205  0.20310661781591224  0.48341468889610456  1.0000
  O   O2        1.0  0.12561174579670356  0.29689224049698026  0.9834142976361167  1.0000
  O   O3        1.0  0.12560965399291035  0.7968905849416145  0.5165858198213088  1.0000
  O   O4        1.0  0.8743884941812111  0.703107047891109  0.016584898089526203  1.0000
  O   O5        1.0  0.6605655112533455  0.31877490528611924  0.5583288839153583  1.0000
  O   O6        1.0  0.33943483740846847  0.1812257060402089  0.05832919222628161  1.0000
  O   O7        1.0  0.3394347287245693  0.6812243831019771  0.4416703118102917  1.0000
  O   O8        1.0  0.660565763790096  0.8187746251642382  0.9416700035000363  1.0000
  O   O9        1.0  0.6665440516856832  0.9184858104832332  0.5705374665213229  1.0000
  O   O10       1.0  0.3334645075170499  0.5815088349948851  0.0705337113763278  1.0000
  O   O11       1.0  0.333452930032486  0.0815134876498078  0.42946501168691503  1.0000
  O   O12       1.0  0.6665420720122339  0.4184852149592119  0.9294635148567423  1.0000
  O   O13       1.0  0.46481124751924335  0.8643178866528487  0.6914069717012412  1.0000
  O   O14       1.0  0.5351832068120216  0.6356876330383727  0.19140527436441357  1.0000
  O   O15       1.0  0.5351831983771618  0.1356835068514499  0.308594850011609  1.0000
  O   O16       1.0  0.46481286821342843  0.3643137555918515  0.8085939213623237  1.0000
  O   O17       1.0  0.2838833760166963  0.4057684063112958  0.40940136291477114  1.0000
  O   O18       1.0  0.7161172021071209  0.0942323021743761  0.9094014379892315  1.0000
  O   O19       1.0  0.716118493092466  0.5942308772069895  0.5905978328109569  1.0000
  O   O20       1.0  0.28388249240203584  0.9057701195336422  0.09059841423488282  1.0000
  O   O21       1.0  0.06801010849478932  0.12874603849397911  0.629338684357336  1.0000
  O   O22       1.0  0.9319910820826889  0.37125688904213666  0.12933863398130543  1.0000
  O   O23       1.0  0.9319885023529794  0.8712532547660602  0.3706618243613279  1.0000
  O   O24       1.0  0.06800951911642261  0.628743442163376  0.8706612182415585  1.0000
  O   O25       1.0  0.17700696410930322  0.5536222178329668  0.7157273349395227  1.0000
  O   O26       1.0  0.8230014708826513  0.9463812513713279  0.21572736651176433  1.0000
  O   O27       1.0  0.8229936370892614  0.44637811337148053  0.28427186078678807  1.0000
  O   O28       1.0  0.17699623327570885  0.0536201323922896  0.7842737987047032  1.0000
  O   O29       1.0  0.17535984371725985  0.4451348106357713  0.5880242455514307  1.0000
  O   O30       1.0  0.8246409161283949  0.05486693993233871  0.0880251039925639  1.0000
  O   O31       1.0  0.8246420253919098  0.5548644728825141  0.41197495017429736  1.0000
  O   O32       1.0  0.1753576947193736  0.9451323533277005  0.9119754047261  1.0000
