data_image0
_chemical_formula_structural       CuH20C14N8O10
_chemical_formula_sum              "Cu1 H20 C14 N8 O10"
_cell_length_a       8.264206230008108
_cell_length_b       7.896214251066901
_cell_length_c       10.560347414905653
_cell_angle_alpha    122.11369774101225
_cell_angle_beta     116.70911534096963
_cell_angle_gamma    85.07171012122127

_space_group_name_H-M_alt    "P 1"
_space_group_IT_number       1

loop_
  _space_group_symop_operation_xyz
  'x, y, z'

loop_
  _atom_site_type_symbol
  _atom_site_label
  _atom_site_symmetry_multiplicity
  _atom_site_fract_x
  _atom_site_fract_y
  _atom_site_fract_z
  _atom_site_occupancy
  Cu  Cu1       1.0  0.9999976746871443  0.9999994415869436  0.9999920305563066  1.0000
  H   H1        1.0  0.6807938646035157  0.9552029615911122  0.32685426504123444  1.0000
  H   H2        1.0  0.31919419120438164  0.044792582973912004  0.6731296544820466  1.0000
  H   H3        1.0  0.785400079332675  0.1560057716024943  0.2958865592593797  1.0000
  H   H4        1.0  0.2146037857041919  0.8439951788975436  0.7041211616503844  1.0000
  H   H5        1.0  0.6340295789446557  0.7407365245116893  0.7516214150939292  1.0000
  H   H6        1.0  0.36598274465043096  0.2592619226461537  0.24838487501580891  1.0000
  H   H7        1.0  0.42073441458073557  0.6021979659154509  0.4412844906327749  1.0000
  H   H8        1.0  0.5792638038687344  0.39779437846358684  0.5587229402153541  1.0000
  H   H9        1.0  0.4929989500932522  0.7372061254091946  0.3034511156246253  1.0000
  H   H10       1.0  0.5069763209858422  0.26278318751477775  0.6965342711578871  1.0000
  H   H11       1.0  0.9826881355083402  0.12881746665907912  0.7836499030496213  1.0000
  H   H12       1.0  0.017289510043923297  0.8711729758881858  0.21633185733308832  1.0000
  H   H13       1.0  0.8745636112155922  0.5867782507276473  0.5808594650157561  1.0000
  H   H14       1.0  0.1254381343231188  0.4132269906779342  0.41913509104877994  1.0000
  H   H15       1.0  0.8104577516011349  0.49083770649259856  0.36675432394529406  1.0000
  H   H16       1.0  0.18954878302513833  0.5091564303117622  0.6332438352079991  1.0000
  H   H17       1.0  0.23366415299881993  0.7564064773064983  0.9675762159937096  1.0000
  H   H18       1.0  0.7663374615439126  0.24359625199001297  0.03243156986250995  1.0000
  H   H19       1.0  0.03243050894080573  0.5999822673561469  0.8215726905526638  1.0000
  H   H20       1.0  0.9675743740356709  0.4000293792755372  0.1784367312953493  1.0000
  C   C1        1.0  0.6613473128987267  0.7927738383028496  0.6845470269002193  1.0000
  C   C2        1.0  0.3386695851690222  0.20723667531352413  0.31546633312121497  1.0000
  C   C3        1.0  0.5436994471438652  0.7189524383645889  0.5140646592657633  1.0000
  C   C4        1.0  0.4562999456605184  0.2810455137571921  0.4859329767387591  1.0000
  C   C5        1.0  0.5831131157348396  0.795420357509286  0.43740179365858006  1.0000
  C   C6        1.0  0.416883869816104  0.2045869471620918  0.5625931737966567  1.0000
  C   C7        1.0  0.7398848115761967  0.9502596293986513  0.5338536719129652  1.0000
  C   C8        1.0  0.2601071693653837  0.04974496622577359  0.46613688103169443  1.0000
  C   C9        1.0  0.8563598434487717  0.014332029391020698  0.7039427352474732  1.0000
  C   C10       1.0  0.1436327654369478  0.9856792559288293  0.296063029924909  1.0000
  C   C11       1.0  0.8548319688197527  0.2290932913942569  0.5340157186469981  1.0000
  C   C12       1.0  0.14515766640445096  0.7709036186356714  0.4659682458993188  1.0000
  C   C13       1.0  0.8981192056968087  0.47679729701219753  0.4738135444948598  1.0000
  C   C14       1.0  0.1018707249876414  0.5231891843345409  0.5261787139723779  1.0000
  N   N1        1.0  0.8163190353161771  0.9336204639880065  0.7735528875258241  1.0000
  N   N2        1.0  0.1836909318641133  0.06637213472348688  0.2264542020542706  1.0000
  N   N3        1.0  0.7725362204968607  0.02869938415872041  0.4552780317813472  1.0000
  N   N4        1.0  0.2274579928804812  0.9713081514922877  0.5447152831463029  1.0000
  N   N5        1.0  0.8400820540008812  0.272626350251727  0.4223285266923115  1.0000
  N   N6        1.0  0.15992656734327673  0.7273739778199795  0.5776765023571215  1.0000
  N   N7        1.0  0.5617652321836034  0.790548417712074  0.00850839330759365  1.0000
  N   N8        1.0  0.4382460373551282  0.20944877096024325  0.9915018497227733  1.0000
  O   O1        1.0  0.9280329428708004  0.3553276212013969  0.6924239328097955  1.0000
  O   O2        1.0  0.07195536491965268  0.6446698140014604  0.307569373554017  1.0000
  O   O3        1.0  0.715708810011556  0.9059084653071706  0.0808517247399719  1.0000
  O   O4        1.0  0.2843044473413344  0.09408689107898026  0.9191564543721142  1.0000
  O   O5        1.0  0.4815092317081593  0.8235740392367744  0.09764218022335314  1.0000
  O   O6        1.0  0.5185057618203502  0.17641510886115697  0.9023687774075101  1.0000
  O   O7        1.0  0.48890582070238525  0.6485868209179272  0.8546693452157115  1.0000
  O   O8        1.0  0.5111025199034246  0.35141817248715057  0.14533651179132792  1.0000
  O   O9        1.0  0.10029954495794166  0.7464191069105722  0.8965545388142575  1.0000
  O   O10       1.0  0.8997081245700402  0.25358903075587597  0.10345142816226632  1.0000
