data_image0
_chemical_formula_structural       Ag2H34C48N4O8
_chemical_formula_sum              "Ag2 H34 C48 N4 O8"
_cell_length_a       8.11506818644868
_cell_length_b       10.292887858350452
_cell_length_c       12.115581280985994
_cell_angle_alpha    90.3146863165725
_cell_angle_beta     86.95442995126609
_cell_angle_gamma    71.23307481698022

_space_group_name_H-M_alt    "P 1"
_space_group_IT_number       1

loop_
  _space_group_symop_operation_xyz
  'x, y, z'

loop_
  _atom_site_type_symbol
  _atom_site_label
  _atom_site_symmetry_multiplicity
  _atom_site_fract_x
  _atom_site_fract_y
  _atom_site_fract_z
  _atom_site_occupancy
  Ag  Ag1       1.0  0.9999990867445028  0.9999985434581259  0.4999991427525501  1.0000
  Ag  Ag2       1.0  1.2126568122411576e-06  0.9999998046227816  0.9999993361260096  1.0000
  H   H1        1.0  0.077484554870054  0.0218646261375213  0.7436488081464248  1.0000
  H   H2        1.0  0.9225126442888508  0.9781368948667932  0.2563496749410064  1.0000
  H   H3        1.0  0.5761113977585949  0.429729660927812  0.8061674922112515  1.0000
  H   H4        1.0  0.4238882528534943  0.5702718894106197  0.19383420674930113  1.0000
  H   H5        1.0  0.4429956017878283  0.646605506634465  0.7105961017327544  1.0000
  H   H6        1.0  0.557004048824254  0.35339604370396666  0.2894055972277982  1.0000
  H   H7        1.0  0.8352837332185389  0.5084407129346004  0.44332565659350104  1.0000
  H   H8        1.0  0.1647159537144844  0.4915577436433053  0.5566743925350863  1.0000
  H   H9        1.0  0.9721040078271557  0.29632255375585714  0.5430355212305003  1.0000
  H   H10       1.0  0.027893631962150858  0.703674875945836  0.4569646002279129  1.0000
  H   H11       1.0  0.28881073747832187  0.7559737935885733  0.5854101628295538  1.0000
  H   H12       1.0  0.7111889453614354  0.24402467019493196  0.4145907118410506  1.0000
  H   H13       1.0  0.7767724959385304  0.7238374881705879  0.4082767873292141  1.0000
  H   H14       1.0  0.22322553230561235  0.27616200172154487  0.5917241444540053  1.0000
  H   H15       1.0  0.620249571468584  0.9302567146337208  0.3076034339698595  1.0000
  H   H16       1.0  0.37974930632709203  0.06974070811823908  0.6923958187990493  1.0000
  H   H17       1.0  0.29696030872501217  0.04517151999711899  0.3526825359386621  1.0000
  H   H18       1.0  0.7030373351575607  0.9548259024989746  0.6473167599777269  1.0000
  H   H19       1.0  0.9929753834979775  0.5964591759419307  0.6957317936288874  1.0000
  H   H20       1.0  0.007026358765273211  0.40354029310100253  0.3042665320858191  1.0000
  H   H21       1.0  0.08221435650808225  0.37283805513819596  0.7880059283660259  1.0000
  H   H22       1.0  0.9177886114817541  0.6271614285718028  0.21199400528524848  1.0000
  H   H23       1.0  0.3194704617210179  0.5457934704137128  0.0362589006957066  1.0000
  H   H24       1.0  0.6805271258927306  0.4542101107810338  0.9637403927165381  1.0000
  H   H25       1.0  0.24623164893426971  0.7617326742120978  0.935959108979226  1.0000
  H   H26       1.0  0.7537700611013136  0.2382698813857616  0.06404004102542869  1.0000
  H   H27       1.0  0.05420312449893317  0.24292686826412077  0.9078562262097947  1.0000
  H   H28       1.0  0.945798998032636  0.7570746753804442  0.09214456091377339  1.0000
  H   H29       1.0  0.4629046064657345  0.3382136321437271  0.0704884777142567  1.0000
  H   H30       1.0  0.5370958614702134  0.6617889376094581  0.9295123665219265  1.0000
  H   H31       1.0  0.518729474827289  0.1186809080311804  0.16878843209896394  1.0000
  H   H32       1.0  0.4812689459649493  0.881320634845785  0.831212484467045  1.0000
  H   H33       1.0  0.3300754281140146  0.9697602179007629  0.13256769183081474  1.0000
  H   H34       1.0  0.6699271232865769  0.030240284968115802  0.8674314302435705  1.0000
  C   C1        1.0  0.8696926503360912  0.22220166271741695  0.7461689702413921  1.0000
  C   C2        1.0  0.13030661591442086  0.7777978202249826  0.2538310928523231  1.0000
  C   C3        1.0  0.7870922866067006  0.35089163697224984  0.6837511845306494  1.0000
  C   C4        1.0  0.21290697964381175  0.6491078459701497  0.3162488785630657  1.0000
  C   C5        1.0  0.6348468090537409  0.44977940235528274  0.7278210119156227  1.0000
  C   C6        1.0  0.3651524531035052  0.5502200877927094  0.2721798767201165  1.0000
  C   C7        1.0  0.5587646484797233  0.5705774803572011  0.6724891568946632  1.0000
  C   C8        1.0  0.4412354187216111  0.42942305082233645  0.3275133536427788  1.0000
  C   C9        1.0  0.6297471505609948  0.595554735040416  0.5693812324196017  1.0000
  C   C10       1.0  0.37025129427239994  0.4044437356928227  0.4306205109405071  1.0000
  C   C11       1.0  0.780447377465073  0.4945957960676564  0.5246042695800881  1.0000
  C   C12       1.0  0.21954984164172947  0.5054026599985163  0.4753958658434597  1.0000
  C   C13       1.0  0.8582487999504809  0.37486263125072833  0.5808302250465545  1.0000
  C   C14       1.0  0.1417504663000315  0.6251368516916641  0.41916983804716773  1.0000
  C   C15       1.0  0.36819245079067303  0.7927108658483984  0.5263308018276689  1.0000
  C   C16       1.0  0.6318060063224991  0.2072875832680481  0.4736684649063747  1.0000
  C   C17       1.0  0.5465401509523816  0.7209502023504583  0.5077530265849575  1.0000
  C   C18       1.0  0.4534582657465904  0.27905134773210694  0.49224871552308264  1.0000
  C   C19       1.0  0.6375376769945262  0.7723983623012527  0.42658169178003646  1.0000
  C   C20       1.0  0.3624615851627269  0.22760112784673933  0.5734191968557028  1.0000
  C   C21       1.0  0.5498373604717555  0.8889969017683939  0.3696641462350457  1.0000
  C   C22       1.0  0.45016109664141624  0.11100154734805297  0.630335120498998  1.0000
  C   C23       1.0  0.37270914343380923  0.9536607935335011  0.3944197246642673  1.0000
  C   C24       1.0  0.6272897384551328  0.046336622012859194  0.6055787025626174  1.0000
  C   C25       1.0  0.0696883749966375  0.8228577415521627  0.7456971880879165  1.0000
  C   C26       1.0  0.9303125499427554  0.17714070807600985  0.2543019923511665  1.0000
  C   C27       1.0  0.12068539142203596  0.6913530943929017  0.8065469840505557  1.0000
  C   C28       1.0  0.879317155885296  0.3086474156815767  0.1934529635658535  1.0000
  C   C29       1.0  0.07047721509922408  0.5818196101974209  0.7682147209497501  1.0000
  C   C30       1.0  0.9295257528906193  0.41817987351257085  0.2317852127015243  1.0000
  C   C31       1.0  0.11777616158772726  0.4575759393890023  0.8220884321495632  1.0000
  C   C32       1.0  0.882226385719605  0.5424245706854761  0.1779115154668531  1.0000
  C   C33       1.0  0.21098128388864984  0.4403288900440998  0.9187239243218029  1.0000
  C   C34       1.0  0.789020025412313  0.559671626980112  0.08127689198411052  1.0000
  C   C35       1.0  0.2558749040126287  0.5522864949665658  0.958618690822739  1.0000
  C   C36       1.0  0.7441259886990892  0.4477150412165327  0.04138131390629239  1.0000
  C   C37       1.0  0.21327922970262844  0.6752651006373966  0.9026516399878375  1.0000
  C   C38       1.0  0.7867233216979628  0.32473540223148223  0.0973474820865476  1.0000
  C   C39       1.0  0.1603876613273556  0.21966610634531492  0.9633217356496218  1.0000
  C   C40       1.0  0.8396136520668663  0.7803344034733043  0.03667825511427479  1.0000
  C   C41       1.0  0.2543260264721924  0.31034591299524544  0.9786648235663405  1.0000
  C   C42       1.0  0.7456736282331562  0.6896556301375866  0.021336049852195102  1.0000
  C   C43       1.0  0.3847431852730168  0.2723734201757892  0.055079990120326314  1.0000
  C   C44       1.0  0.6152589413518043  0.7276281162631761  0.9449199714612176  1.0000
  C   C45       1.0  0.4156257303991495  0.14969464970394594  0.1108068132262261  1.0000
  C   C46       1.0  0.5843739283994579  0.8503068862232934  0.8891932346502855  1.0000
  C   C47       1.0  0.31459894276095923  0.06626056395061397  0.09081911343323408  1.0000
  C   C48       1.0  0.6854011326269004  0.9337399528177311  0.9091817460201668  1.0000
  N   N1        1.0  0.2831901523712546  0.9056742871220749  0.4720272264897787  1.0000
  N   N2        1.0  0.7168095427482869  0.0943241550446388  0.5279711715547606  1.0000
  N   N3        1.0  0.18859477746329392  0.10198052996019408  0.01794805074929679  1.0000
  N   N4        1.0  0.8114065400241943  0.8980199726528254  0.9820511144725756  1.0000
  O   O1        1.0  0.020289180291442187  0.14425815257635582  0.7037053474014385  1.0000
  O   O2        1.0  0.9797084676843897  0.8557392627141452  0.2962931229729335  1.0000
  O   O3        1.0  0.7951789419002395  0.19866485143559487  0.8334145513421731  1.0000
  O   O4        1.0  0.20482194671821957  0.8013366919531035  0.1665862789288752  1.0000
  O   O5        1.0  0.9699094885853086  0.8388748933453767  0.668535494733284  1.0000
  O   O6        1.0  0.030091011578314012  0.16112458985288913  0.3314645252129509  1.0000
  O   O7        1.0  0.1388196757673229  0.9145712167096247  0.7791942392474808  1.0000
  O   O8        1.0  0.8611812491720697  0.08542723291855475  0.22080494119159513  1.0000
