data_image0
_chemical_formula_structural       Cs4Ca2H16C8O24
_chemical_formula_sum              "Cs4 Ca2 H16 C8 O24"
_cell_length_a       7.656600668420805
_cell_length_b       9.427966747827401
_cell_length_c       11.347447398183693
_cell_angle_alpha    84.77503323031432
_cell_angle_beta     70.28836884727244
_cell_angle_gamma    66.08466959654349

_space_group_name_H-M_alt    "P 1"
_space_group_IT_number       1

loop_
  _space_group_symop_operation_xyz
  'x, y, z'

loop_
  _atom_site_type_symbol
  _atom_site_label
  _atom_site_symmetry_multiplicity
  _atom_site_fract_x
  _atom_site_fract_y
  _atom_site_fract_z
  _atom_site_occupancy
  Cs  Cs1       1.0  0.8238347665523874  0.7987974794192993  0.9015688573383331  1.0000
  Cs  Cs2       1.0  0.5237361652866708  0.7011954629314447  0.5985530993707118  1.0000
  Cs  Cs3       1.0  0.17616967563410665  0.20120569810784872  0.09843096836100783  1.0000
  Cs  Cs4       1.0  0.47626877270828033  0.2988020441967336  0.40145046129683964  1.0000
  Ca  Ca1       1.0  0.6495038816944495  0.2500627625049106  0.7498033258360766  1.0000
  Ca  Ca2       1.0  0.35050046462851703  0.7499359060714994  0.25020025768174764  1.0000
  H   H1        1.0  0.7885161708411558  0.040450182273502805  0.13734411402767682  1.0000
  H   H2        1.0  0.9664722583163936  0.45965350135305283  0.362581874909303  1.0000
  H   H3        1.0  0.21148396704646896  0.9595529500843439  0.8626544884553483  1.0000
  H   H4        1.0  0.03352393498836652  0.5403543822524737  0.6374197823405441  1.0000
  H   H5        1.0  0.8901044863907185  0.9178324139232786  0.222527349438849  1.0000
  H   H6        1.0  0.030242468974428442  0.5823724362941647  0.27739840700928653  1.0000
  H   H7        1.0  0.10988962412562833  0.0821613139254609  0.7774680122011831  1.0000
  H   H8        1.0  0.9697579676006212  0.4176284045546907  0.7226010356270649  1.0000
  H   H9        1.0  0.40504212560191605  0.061538262382477206  0.7710422917007308  1.0000
  H   H10       1.0  0.23771882055080334  0.4384523785016796  0.7289818954774676  1.0000
  H   H11       1.0  0.5949504740598355  0.9384682124988756  0.22895246699681607  1.0000
  H   H12       1.0  0.7622842582792727  0.5615462361026148  0.27102019057832655  1.0000
  H   H13       1.0  0.6137935823354963  0.003501377442788103  0.6515048745267438  1.0000
  H   H14       1.0  0.2692592931042407  0.49633365803699553  0.8485017502473727  1.0000
  H   H15       1.0  0.38620314161267527  0.9964982567885345  0.3484933220430194  1.0000
  H   H16       1.0  0.7307399658297057  0.5036660841385584  0.1514994412464646  1.0000
  C   C1        1.0  0.977316208164431  0.2403946182578736  0.48859815596667755  1.0000
  C   C2        1.0  0.7057764594325348  0.2596821152972951  0.01123945406222764  1.0000
  C   C3        1.0  0.022675315422602923  0.7596118453311504  0.5113962969267976  1.0000
  C   C4        1.0  0.2942143186636838  0.7403282908218358  0.9887678698155329  1.0000
  C   C5        1.0  0.09528246107208804  0.10412533306969608  0.5587941306743859  1.0000
  C   C6        1.0  0.7578343074116269  0.39608033560016764  0.9412390111413276  1.0000
  C   C7        1.0  0.9047086009236549  0.8958662714997132  0.44120680619244734  1.0000
  C   C8        1.0  0.24217369050963805  0.60391245166781  0.058762380613288215  1.0000
  O   O1        1.0  0.7866413322026983  0.3089575429606839  0.5414818293363056  1.0000
  O   O2        1.0  0.6368993552512232  0.1910116790548884  0.9580551813822782  1.0000
  O   O3        1.0  0.21336615249263938  0.6910422041938773  0.4585194252742399  1.0000
  O   O4        1.0  0.36310726790790676  0.8089833884297591  0.04194506441492516  1.0000
  O   O5        1.0  0.08035582925888433  0.2745054492675578  0.38630588341752786  1.0000
  O   O6        1.0  0.7403251259047038  0.22556189905492371  0.11362070430054422  1.0000
  O   O7        1.0  0.9196440997930958  0.7254989298981158  0.6136951252316933  1.0000
  O   O8        1.0  0.25968775658169085  0.7744366150736398  0.8863784815062419  1.0000
  O   O9        1.0  0.2804580977219684  0.025634021336323108  0.5056738132009715  1.0000
  O   O10       1.0  0.8114806473672681  0.4744717711042626  0.9945179295726448  1.0000
  O   O11       1.0  0.7195348294504026  0.9743620294088802  0.4943215941396136  1.0000
  O   O12       1.0  0.18851534280471324  0.5255339377393184  0.005487837000330803  1.0000
  O   O13       1.0  0.9922507447498812  0.08462525877933301  0.6695747613501555  1.0000
  O   O14       1.0  0.746212213887531  0.4157608267920737  0.8304277882006661  1.0000
  O   O15       1.0  0.007754883410164672  0.915357796323015  0.3304141936602251  1.0000
  O   O16       1.0  0.2537834890027424  0.5842403304209755  0.16958054453284183  1.0000
  O   O17       1.0  0.8216928938153741  0.928880601502385  0.15965383276440562  1.0000
  O   O18       1.0  0.9101305102641601  0.5711687387320907  0.34029554945165347  1.0000
  O   O19       1.0  0.17830471478934115  0.0711190013414651  0.8403434779514785  1.0000
  O   O20       1.0  0.08986864140052803  0.42883333763226256  0.6597059935468155  1.0000
  O   O21       1.0  0.551048473662682  0.0495263965478188  0.7394170256263239  1.0000
  O   O22       1.0  0.3402513849305531  0.45034138162029785  0.7605524521478629  1.0000
  O   O23       1.0  0.448951382954995  0.9504777378314199  0.26057713887922074  1.0000
  O   O24       1.0  0.6597507307969219  0.549651465933117  0.23945067975615333  1.0000
