data_image0
_chemical_formula_structural       Cu4H20C24S4O4
_chemical_formula_sum              "Cu4 H20 C24 S4 O4"
_cell_length_a       3.990165201353835
_cell_length_b       5.320896978669387
_cell_length_c       27.18265524948148
_cell_angle_alpha    90.00138166509149
_cell_angle_beta     90.00058703919424
_cell_angle_gamma    90.00059173881819

_space_group_name_H-M_alt    "P 1"
_space_group_IT_number       1

loop_
  _space_group_symop_operation_xyz
  'x, y, z'

loop_
  _atom_site_type_symbol
  _atom_site_label
  _atom_site_symmetry_multiplicity
  _atom_site_fract_x
  _atom_site_fract_y
  _atom_site_fract_z
  _atom_site_occupancy
  Cu  Cu1       1.0  0.5097252549213991  0.24265213546356523  0.9815112947161992  1.0000
  Cu  Cu2       1.0  0.4902854580338029  0.2573524486307689  0.48149191971507577  1.0000
  Cu  Cu3       1.0  0.9903449464806188  0.7426512121101466  0.018507087563641302  1.0000
  Cu  Cu4       1.0  0.009746645196066998  0.7573583606230372  0.5184886490521023  1.0000
  H   H1        1.0  0.7852392133420449  0.3562359881627159  0.8532522570911638  1.0000
  H   H2        1.0  0.21476249478175194  0.14378997472304886  0.3532425332036624  1.0000
  H   H3        1.0  0.7147528744384246  0.8562320577837068  0.1467576176642424  1.0000
  H   H4        1.0  0.28526502345273735  0.6437504920390111  0.6467513269180358  1.0000
  H   H5        1.0  0.7089890350825383  0.6010322597918999  0.9302961977742612  1.0000
  H   H6        1.0  0.29103336460502055  0.898981880182468  0.4302809742402546  1.0000
  H   H7        1.0  0.7911022572147032  0.10101433397385755  0.0697185600541488  1.0000
  H   H8        1.0  0.20899017223121766  0.39900635600104534  0.5696991719403925  1.0000
  H   H9        1.0  0.36449527996962416  0.17338373085774347  0.8735798260466369  1.0000
  H   H10       1.0  0.6354970188941917  0.3266524501177627  0.3735618400568157  1.0000
  H   H11       1.0  0.13553117582510765  0.6733554080718632  0.1264357111349526  1.0000
  H   H12       1.0  0.8644685491014386  0.8266770593503663  0.6264193679291027  1.0000
  H   H13       1.0  0.4264410330422947  0.9351924529818018  0.7954257395372082  1.0000
  H   H14       1.0  0.5735339925085723  0.5648297282248648  0.2954150885263758  1.0000
  H   H15       1.0  0.07351687997545749  0.4351708018943441  0.20458409002959144  1.0000
  H   H16       1.0  0.9264324701595752  0.0647892097380947  0.7045788184925003  1.0000
  H   H17       1.0  0.35125089202689697  0.5219849817042217  0.7584296477516617  1.0000
  H   H18       1.0  0.6486662184003363  0.9780170526924294  0.2584268704492274  1.0000
  H   H19       1.0  0.14868419962026988  0.021959330600004996  0.2415706252247958  1.0000
  H   H20       1.0  0.8512704414260169  0.47798511487122397  0.7415765942456858  1.0000
  C   C1        1.0  0.11228834952329689  0.627779949617455  0.820202322466585  1.0000
  C   C2        1.0  0.8876845505833726  0.8722118769031366  0.3201965787892859  1.0000
  C   C3        1.0  0.3876962102085883  0.12774899634310793  0.17980242097252838  1.0000
  C   C4        1.0  0.6122703016296852  0.3722131788323039  0.6797965281973789  1.0000
  C   C5        1.0  0.9083169800663454  0.5369284600254784  0.8579594247546041  1.0000
  C   C6        1.0  0.091667469335114  0.9630783267419575  0.3579549105758417  1.0000
  C   C7        1.0  0.5916926852044923  0.0368991408586083  0.1420499377883999  1.0000
  C   C8        1.0  0.40830488048320746  0.46310258226834117  0.6420413017714922  1.0000
  C   C9        1.0  0.8706773494724941  0.6733172074449597  0.9011359163175003  1.0000
  C   C10       1.0  0.12933752606158316  0.8266701778849067  0.4011264961056967  1.0000
  C   C11       1.0  0.6293428167318209  0.17332154300461158  0.0988778757806443  1.0000
  C   C12       1.0  0.37072206832438326  0.3266845563367582  0.5988689640304372  1.0000
  C   C13       1.0  0.038964463293510186  0.9016667208932319  0.9074488512364455  1.0000
  C   C14       1.0  0.9610381507600179  0.5983676431609907  0.4074260155891523  1.0000
  C   C15       1.0  0.4610658496167729  0.40164769695838476  0.0925695189111408  1.0000
  C   C16       1.0  0.539016299577746  0.09834901022068714  0.5925597158225813  1.0000
  C   C17       1.0  0.23496136330201975  0.9949822044815164  0.8688101420420865  1.0000
  C   C18       1.0  0.7650357864374584  0.5050291594880107  0.3687926557817605  1.0000
  C   C19       1.0  0.2650518626183285  0.49495488119332254  0.1312025658714688  1.0000
  C   C20       1.0  0.7349730950364729  0.0050027969068438  0.6311854955476903  1.0000
  C   C21       1.0  0.26948487348209926  0.8612598128625845  0.8249310288447731  1.0000
  C   C22       1.0  0.7304581547989313  0.6387291863881188  0.3249205919304359  1.0000
  C   C23       1.0  0.23049451499252874  0.3612411546667359  0.17507684606518836  1.0000
  C   C24       1.0  0.7694918430387785  0.13869753377669264  0.675063497816275  1.0000
  S   S1        1.0  0.010824402778737896  0.0704283690180389  0.9641402745777513  1.0000
  S   S2        1.0  0.989203049448946  0.4295677557403436  0.4641227717019092  1.0000
  S   S3        1.0  0.48924198344727177  0.5704375896121403  0.035878478025154  1.0000
  S   S4        1.0  0.5108453992202866  0.9295842023422904  0.5358574265154061  1.0000
  O   O1        1.0  0.1510399615784053  0.4755995672580155  0.7794307609574531  1.0000
  O   O2        1.0  0.8488837678448815  0.024436945841600284  0.2794217196871855  1.0000
  O   O3        1.0  0.3488786402550445  0.9755790043260503  0.2205730106123767  1.0000
  O   O4        1.0  0.6510167411759084  0.5244061329206391  0.720577878877208  1.0000
