data_image0
_chemical_formula_structural       Mn2H32C48N4O8
_chemical_formula_sum              "Mn2 H32 C48 N4 O8"
_cell_length_a       8.389959128291194
_cell_length_b       11.971357672318383
_cell_length_c       11.97276722709999
_cell_angle_alpha    77.50043683244064
_cell_angle_beta     75.50077656257585
_cell_angle_gamma    75.50053852112576

_space_group_name_H-M_alt    "P 1"
_space_group_IT_number       1

loop_
  _space_group_symop_operation_xyz
  'x, y, z'

loop_
  _atom_site_type_symbol
  _atom_site_label
  _atom_site_symmetry_multiplicity
  _atom_site_fract_x
  _atom_site_fract_y
  _atom_site_fract_z
  _atom_site_occupancy
  Mn  Mn1       1.0  0.25005423013077194  0.422523813033294  0.577517979875239  1.0000
  Mn  Mn2       1.0  0.7500366971440685  0.5884651937240689  0.4115323143559806  1.0000
  H   H1        1.0  0.765586668641177  0.4482927616175587  0.13082971318095102  1.0000
  H   H2        1.0  0.7344255863221465  0.8691069190210143  0.5516836687723697  1.0000
  H   H3        1.0  0.23524516886636357  0.5553384302930128  0.8632971810365432  1.0000
  H   H4        1.0  0.2646877966819973  0.1367982818810489  0.444676465503001  1.0000
  H   H5        1.0  0.5498102477289706  0.23707034906185953  0.9832790527735824  1.0000
  H   H6        1.0  0.9502203236431584  0.016726993893534804  0.7628479422015956  1.0000
  H   H7        1.0  0.4307233855911504  0.7609496865498572  0.0316304610018321  1.0000
  H   H8        1.0  0.0693335538160796  0.9683655931494429  0.2390754304336653  1.0000
  H   H9        1.0  0.3227527799624852  0.227475330270309  0.16303912684982447  1.0000
  H   H10       1.0  0.17724277193153176  0.8369436683263629  0.7724950185333911  1.0000
  H   H11       1.0  0.6659593545025333  0.7761279785182255  0.8587867882891373  1.0000
  H   H12       1.0  0.8340661760650151  0.14124809960285492  0.22382807147393888  1.0000
  H   H13       1.0  0.31799294574686604  0.330946326666222  0.3245731313138407  1.0000
  H   H14       1.0  0.1819720932738705  0.6753546486400452  0.6690520228648609  1.0000
  H   H15       1.0  0.6839502639058568  0.679946277107632  0.6884431743190903  1.0000
  H   H16       1.0  0.8160838693272154  0.3116794394198905  0.31999853458385275  1.0000
  H   H17       1.0  0.2241080656128389  0.36442881596555304  0.8502079130671092  1.0000
  H   H18       1.0  0.2758633818970254  0.1497829863497344  0.6355765557195666  1.0000
  H   H19       1.0  0.754517623646905  0.6466538064095602  0.1515940879581378  1.0000
  H   H20       1.0  0.7454168618901568  0.8484393707209178  0.3534662937278482  1.0000
  H   H21       1.0  0.007029380495694757  0.3331053284473596  0.03436833866577162  1.0000
  H   H22       1.0  0.49291616836193003  0.9656121546229954  0.6668803803285286  1.0000
  H   H23       1.0  0.9744518513592625  0.6671107494125154  0.9705708590428799  1.0000
  H   H24       1.0  0.5255035553008441  0.029498194622263402  0.33300674529697016  1.0000
  H   H25       1.0  0.6480764902102365  0.37653429909191527  0.8169468200878143  1.0000
  H   H26       1.0  0.8519124782483942  0.18305190664258228  0.6234376932698852  1.0000
  H   H27       1.0  0.3305941602210823  0.6231187808823861  0.18990050179962037  1.0000
  H   H28       1.0  0.16941677754240217  0.8101035121936276  0.37682363099154526  1.0000
  H   H29       1.0  0.8772101550556501  0.4111223332606287  0.6431515470109302  1.0000
  H   H30       1.0  0.6227642319200727  0.3568867756118834  0.5888718372140717  1.0000
  H   H31       1.0  0.10426718163315493  0.593930876996559  0.3605322242190284  1.0000
  H   H32       1.0  0.39573329450229283  0.6394772277621001  0.4060414404978516  1.0000
  C   C1        1.0  0.5330681913309407  0.4602159677553246  0.3328790810341787  1.0000
  C   C2        1.0  0.9669220926527661  0.6670702730873829  0.539731113219915  1.0000
  C   C3        1.0  0.4756374824678957  0.5500832708317205  0.6657923285855247  1.0000
  C   C4        1.0  0.024387303866433327  0.3342535179569879  0.4499378025708936  1.0000
  C   C5        1.0  0.5408983246352791  0.3958699431687904  0.23700322982764988  1.0000
  C   C6        1.0  0.9591096485880192  0.7629647099007926  0.6040905424458812  1.0000
  C   C7        1.0  0.46168065640825534  0.6118832297017889  0.766319153506835  1.0000
  C   C8        1.0  0.03828961078876601  0.23373950416696943  0.388124856907325  1.0000
  C   C9        1.0  0.6696952610842147  0.39907817803274526  0.13730976913613807  1.0000
  C   C10       1.0  0.8303346312094535  0.8626598336248605  0.6008779651690831  1.0000
  C   C11       1.0  0.3279906960891098  0.6047442706446162  0.8633136955584249  1.0000
  C   C12       1.0  0.17196327916762755  0.13673217795835774  0.3952704655932918  1.0000
  C   C13       1.0  0.6736365286108709  0.3428230099129266  0.04547924819348737  1.0000
  C   C14       1.0  0.8263615495742159  0.9544975877727209  0.6571411632265054  1.0000
  C   C15       1.0  0.3143104965828842  0.6578423368650804  0.9598667026755836  1.0000
  C   C16       1.0  0.18566726947656065  0.04016502218794219  0.3421821447086515  1.0000
  C   C17       1.0  0.5466951905629572  0.2818334600968839  0.05438002497170664  1.0000
  C   C18       1.0  0.9533196357036716  0.9455992676651378  0.7181152627003798  1.0000
  C   C19       1.0  0.43939151764655554  0.7186145824305828  0.9575646724384511  1.0000
  C   C20       1.0  0.06063127898377019  0.0424705496026405  0.2813825051001615  1.0000
  C   C21       1.0  0.4196950508499955  0.2764832595807079  0.1549088308060647  1.0000
  C   C22       1.0  0.08032807538844378  0.8450615900706993  0.7234568003413172  1.0000
  C   C23       1.0  0.5713685094410014  0.7273079208408217  0.8605175166192183  1.0000
  C   C24       1.0  0.928658096922959  0.13954064330649626  0.2726525928670894  1.0000
  C   C25       1.0  0.4161570212406644  0.33354513549326725  0.2457569644578186  1.0000
  C   C26       1.0  0.08384302096743569  0.7541975973992125  0.6664180232217944  1.0000
  C   C27       1.0  0.5825694671811874  0.6743379042296455  0.7650323330185954  1.0000
  C   C28       1.0  0.9174308659248355  0.23506227133741217  0.32562129546457913  1.0000
  C   C29       1.0  0.09434651130099074  0.36617028371681926  0.8476496204766876  1.0000
  C   C30       1.0  0.4056437554123704  0.1523363267069797  0.6338187097782607  1.0000
  C   C31       1.0  0.8841379919302386  0.641681266405307  0.15617597554813759  1.0000
  C   C32       1.0  0.6158330290492985  0.8438518811190293  0.3583903917036367  1.0000
  C   C33       1.0  0.973402241215993  0.3493421134593788  0.9491574355558968  1.0000
  C   C34       1.0  0.5265795741774967  0.0508076717303751  0.6506495038695521  1.0000
  C   C35       1.0  0.008694828945223887  0.6526905025115325  0.05541876178220658  1.0000
  C   C36       1.0  0.4912766822495626  0.9446300544563474  0.34741612618601186  1.0000
  C   C37       1.0  0.8082620892195822  0.35254818814528477  0.9405919731231267  1.0000
  C   C38       1.0  0.6917370740070297  0.05938554589757671  0.6474269790371778  1.0000
  C   C39       1.0  0.17525244166124318  0.6480427305295535  0.06270656050907775  1.0000
  C   C40       1.0  0.3247220665170119  0.9373144135485348  0.3520117856984016  1.0000
  C   C41       1.0  0.7746476115907159  0.37124655767525633  0.828398402455214  1.0000
  C   C42       1.0  0.7253408125038876  0.17159844788157844  0.6287361810457525  1.0000
  C   C43       1.0  0.20460826998260032  0.6306833909128713  0.17622876728402306  1.0000
  C   C44       1.0  0.2954118698745136  0.8237694205736262  0.3693205042813759  1.0000
  C   C45       1.0  0.9017646419043075  0.3901917878565371  0.7313792870153363  1.0000
  C   C46       1.0  0.598247229964322  0.26862494786799823  0.609794633051088  1.0000
  C   C47       1.0  0.07704969380100833  0.6156862447773364  0.2732873977079891  1.0000
  C   C48       1.0  0.42300744979217364  0.7267104536841416  0.3842875579081166  1.0000
  N   N1        1.0  0.05953949618502462  0.3875879126213775  0.7403313712239594  1.0000
  N   N2        1.0  0.44046690728645643  0.25966066461921145  0.6123891309612829  1.0000
  N   N3        1.0  0.9153446694191562  0.6220229067499616  0.2658564514714358  1.0000
  N   N4        1.0  0.5847101079678438  0.7341418610464602  0.3779740624803267  1.0000
  O   O1        1.0  0.4033350448955135  0.4678498817992461  0.4140735925702543  1.0000
  O   O2        1.0  0.09664416905744122  0.5858571371998452  0.5321239333748906  1.0000
  O   O3        1.0  0.5972683840245595  0.556864570348317  0.578552907434961  1.0000
  O   O4        1.0  0.9027360189718082  0.42151079721040935  0.44308714656891374  1.0000
  O   O5        1.0  0.6589537336660458  0.507441321027791  0.32251377632372424  1.0000
  O   O6        1.0  0.8410952095902433  0.6774422412676131  0.4925103268326083  1.0000
  O   O7        1.0  0.36307454358377816  0.4909664473837195  0.6795863375255421  1.0000
  O   O8        1.0  0.13690569460861474  0.3204546853415949  0.5090621532147496  1.0000
