data_image0
_chemical_formula_structural       Cu6P4H20C20N4O16
_chemical_formula_sum              "Cu6 P4 H20 C20 N4 O16"
_cell_length_a       5.174493046048465
_cell_length_b       7.950842320304599
_cell_length_c       20.412010844161873
_cell_angle_alpha    89.99965673339558
_cell_angle_beta     89.99981725941208
_cell_angle_gamma    107.25025771396263

_space_group_name_H-M_alt    "P 1"
_space_group_IT_number       1

loop_
  _space_group_symop_operation_xyz
  'x, y, z'

loop_
  _atom_site_type_symbol
  _atom_site_label
  _atom_site_symmetry_multiplicity
  _atom_site_fract_x
  _atom_site_fract_y
  _atom_site_fract_z
  _atom_site_occupancy
  Cu  Cu1       1.0  0.5555619921450515  0.3666841302673731  0.5489428257914639  1.0000
  Cu  Cu2       1.0  0.9444419750686706  0.6333117394052366  0.0489475293454404  1.0000
  Cu  Cu3       1.0  0.44544070171496497  0.6348821888280655  0.4510927875280402  1.0000
  Cu  Cu4       1.0  0.05456278254686714  0.3651191061428776  0.9510983765951408  1.0000
  Cu  Cu5       1.0  0.5007463405479982  0.9989624244630734  0.49981069217805907  1.0000
  Cu  Cu6       1.0  0.9992600399194129  0.0010368369159792  0.9998149275816317  1.0000
  P   P1        1.0  0.05328664134771803  0.25641581080461867  0.4419120295609034  1.0000
  P   P2        1.0  0.4467205723934384  0.7435804391988653  0.9419178862383362  1.0000
  P   P3        1.0  0.9479743408280967  0.7440400801941891  0.5582808454018462  1.0000
  P   P4        1.0  0.552025105629852  0.25596344890352196  0.0582852787590085  1.0000
  H   H1        1.0  0.2054005056385435  0.0754564988397064  0.580089182535275  1.0000
  H   H2        1.0  0.29460315575823176  0.9245412437926249  0.08009277359440149  1.0000
  H   H3        1.0  0.7960074654151369  0.9257550468284705  0.4195643031319563  1.0000
  H   H4        1.0  0.7039949698865371  0.0742456829868843  0.9195695343605692  1.0000
  H   H5        1.0  0.595666205169394  0.23971721161234433  0.3518766431332381  1.0000
  H   H6        1.0  0.904337446549839  0.7602795469478211  0.8518790573875563  1.0000
  H   H7        1.0  0.40496174120222156  0.7596142019899758  0.6483417086342911  1.0000
  H   H8        1.0  0.09503099142974493  0.2403874197310216  0.1483456619433454  1.0000
  H   H9        1.0  0.49146132581617497  0.4747088107103893  0.2841108922798128  1.0000
  H   H10       1.0  0.008535207366008981  0.5252929264663776  0.7841117053918368  1.0000
  H   H11       1.0  0.5077085133450722  0.5239845139829741  0.7160550406507866  1.0000
  H   H12       1.0  0.9922810625122694  0.4760210622699502  0.2160550484942405  1.0000
  H   H13       1.0  0.8129751246720075  0.7823108607055147  0.28715076962602387  1.0000
  H   H14       1.0  0.6870212804518089  0.21769360825994263  0.7871527166890999  1.0000
  H   H15       1.0  0.184961935220052  0.21681163362332256  0.7128921963677968  1.0000
  H   H16       1.0  0.31503259328184907  0.7831874833139383  0.2128917154663696  1.0000
  H   H17       1.0  0.23470048171824953  0.8396720495415197  0.3562273789830073  1.0000
  H   H18       1.0  0.2652918510357267  0.16032699082984442  0.856229416024597  1.0000
  H   H19       1.0  0.7633981244920918  0.1604646860148051  0.6437788426250819  1.0000
  H   H20       1.0  0.7365981727200364  0.839534592703622  0.1437826835470872  1.0000
  C   C1        1.0  0.9751021815336216  0.4148438050531952  0.38601012341833035  1.0000
  C   C2        1.0  0.5249091615045529  0.5851628756132925  0.8860137164026868  1.0000
  C   C3        1.0  0.024812684732943156  0.585309503451022  0.6142479100864549  1.0000
  C   C4        1.0  0.4751849353952978  0.41468886123617216  0.1142526458462143  1.0000
  C   C5        1.0  0.7367882826849766  0.37231429400873856  0.349212803478629  1.0000
  C   C6        1.0  0.7632154312499465  0.6276825149170477  0.8492156413968033  1.0000
  C   C7        1.0  0.2631786097251947  0.6272201763015273  0.6510030987200396  1.0000
  C   C8        1.0  0.23681348462599058  0.3727800782290416  0.1510071183360466  1.0000
  C   C9        1.0  0.6775790957559809  0.5041229742131891  0.312585695037825  1.0000
  C   C10       1.0  0.8224182904699758  0.4958757789431517  0.8125883305923125  1.0000
  C   C11       1.0  0.3216262291787331  0.4950534738773341  0.6875817070041633  1.0000
  C   C12       1.0  0.17836055502441894  0.5049447395522649  0.18758347805091802  1.0000
  C   C13       1.0  0.8561547387081134  0.674981155461829  0.31378716660918826  1.0000
  C   C14       1.0  0.6438501673242739  0.32502157448988805  0.8137888761579433  1.0000
  C   C15       1.0  0.14244478950109854  0.32440537468322367  0.6862861731085843  1.0000
  C   C16       1.0  0.3575489967112447  0.6755955458866439  0.1862874005408059  1.0000
  C   C17       1.0  0.09059563761893942  0.7088317026131391  0.3512222033056105  1.0000
  C   C18       1.0  0.40940514751058293  0.2911688144769329  0.8512238190418769  1.0000
  C   C19       1.0  0.9079335816532035  0.29114071129303204  0.6489109044402426  1.0000
  C   C20       1.0  0.592061443460139  0.7088558366572997  0.1489141867319219  1.0000
  N   N1        1.0  0.14744944679800653  0.5804171350972354  0.3859793308717911  1.0000
  N   N2        1.0  0.3525532539290737  0.41958012365098096  0.8859811558228684  1.0000
  N   N3        1.0  0.8516141811770979  0.41999929693509586  0.6142875209289116  1.0000
  N   N4        1.0  0.6483816526200527  0.5799979056709217  0.1142935349140402  1.0000
  O   O1        1.0  0.8136474587712357  0.20761879949400003  0.48992621330283725  1.0000
  O   O2        1.0  0.6863702155067131  0.792379429757233  0.9899277140383376  1.0000
  O   O3        1.0  0.188338167772642  0.7919444429594551  0.5103847302657343  1.0000
  O   O4        1.0  0.3116603031204761  0.20806112049240258  0.0103905783802603  1.0000
  O   O5        1.0  0.1095071092554107  0.1060188534961952  0.4057677917590325  1.0000
  O   O6        1.0  0.390492037132752  0.8939753809952792  0.9057747824759445  1.0000
  O   O7        1.0  0.8919561861256043  0.8945725653658697  0.5943035858737744  1.0000
  O   O8        1.0  0.6080451463897559  0.1054276814762645  0.09430639576438439  1.0000
  O   O9        1.0  0.305288543846963  0.38339994925318877  0.4779890758672138  1.0000
  O   O10       1.0  0.1947321936541115  0.6165931152400858  0.9779973761618308  1.0000
  O   O11       1.0  0.6961126058212204  0.6178180969829655  0.5219029948134803  1.0000
  O   O12       1.0  0.8038857505130821  0.38218610368290473  0.0219059663535006  1.0000
  O   O13       1.0  0.40274503264899403  0.12409073664679231  0.5722505338974173  1.0000
  O   O14       1.0  0.09725823573092648  0.8759058373441917  0.0722533980330056  1.0000
  O   O15       1.0  0.5977923235601139  0.8769022681004159  0.42617622360942425  1.0000
  O   O16       1.0  0.902212473265308  0.12309966986774872  0.9261807109124051  1.0000
