data_image0
_chemical_formula_structural       Zn2H26C36N4O10
_chemical_formula_sum              "Zn2 H26 C36 N4 O10"
_cell_length_a       11.128179758892456
_cell_length_b       16.44206464028091
_cell_length_c       17.806160483978886
_cell_angle_alpha    88.77008160922357
_cell_angle_beta     91.18236662844937
_cell_angle_gamma    75.79071085755965

_space_group_name_H-M_alt    "P 1"
_space_group_IT_number       1

loop_
  _space_group_symop_operation_xyz
  'x, y, z'

loop_
  _atom_site_type_symbol
  _atom_site_label
  _atom_site_symmetry_multiplicity
  _atom_site_fract_x
  _atom_site_fract_y
  _atom_site_fract_z
  _atom_site_occupancy
  Zn  Zn1       1.0  0.4798493615038312  0.5839223582905718  0.49366648209039016  1.0000
  Zn  Zn2       1.0  0.5090072079275672  0.41490248661192897  0.5012312996791268  1.0000
  H   H1        1.0  0.37823392436796877  0.8782487854603503  0.602109715227144  1.0000
  H   H2        1.0  0.5162293660956366  0.6280125036176045  0.2599512852246449  1.0000
  H   H3        1.0  0.5903585759091355  0.8528366526308275  0.39908674145098655  1.0000
  H   H4        1.0  0.3526910619413214  0.160486153531032  0.5869675828066863  1.0000
  H   H5        1.0  0.5779406845555642  0.7020913359699248  0.39770586884525044  1.0000
  H   H6        1.0  0.3690406121861543  0.3106103359061976  0.583214587397791  1.0000
  H   H7        1.0  0.3781066924916343  0.7257317622306445  0.5923375335935861  1.0000
  H   H8        1.0  0.638490971020701  0.2621187383303152  0.42270226452778575  1.0000
  H   H9        1.0  0.22100084867268785  0.4022894563764082  0.4302841678138451  1.0000
  H   H10       1.0  0.1217221897552534  0.38541992099007416  0.3043173065336618  1.0000
  H   H11       1.0  0.9847342219688074  0.38365775881078423  0.3543371004106179  1.0000
  H   H12       1.0  0.6354516586160202  0.1095259511351685  0.4189254941847695  1.0000
  H   H13       1.0  0.11943647011387527  0.2998986822607391  0.36731334640960994  1.0000
  H   H14       1.0  0.7696980990536276  0.5925109699183507  0.41654364602662525  1.0000
  H   H15       1.0  0.8724379402261133  0.6001072781090715  0.29098825243286813  1.0000
  H   H16       1.0  0.007381495585093443  0.6062096494218637  0.3444927520248769  1.0000
  H   H17       1.0  0.872298927828858  0.6901164285183794  0.345590625261835  1.0000
  H   H18       1.0  0.547276049232515  0.30767321458829855  0.8589875619128552  1.0000
  H   H19       1.0  0.5490227539638182  0.6876628246764868  0.14775307309550106  1.0000
  H   H20       1.0  0.061126616807420896  0.6026291469626769  0.497107060274381  1.0000
  H   H21       1.0  0.9269830529987216  0.3972974119971084  0.5049904551415951  1.0000
  H   H22       1.0  0.5893380917211246  0.6210138533528209  0.8693647795737012  1.0000
  H   H23       1.0  0.5777126345847138  0.36374298081089745  0.11943733273144376  1.0000
  H   H24       1.0  0.5571803286940167  0.6232555884001343  0.729381770610914  1.0000
  H   H25       1.0  0.5423648667386657  0.36345218809235297  0.2583211413242311  1.0000
  H   H26       1.0  0.523888713141062  0.3689608926633313  0.741613357762596  1.0000
  C   C1        1.0  0.502698096211084  0.49705685587836257  0.3494151414020764  1.0000
  C   C2        1.0  0.42604958422407435  0.26323940815294117  0.5482867005751688  1.0000
  C   C3        1.0  0.4229045727159858  0.75732142794795  0.5508556566976994  1.0000
  C   C4        1.0  0.5777296837535815  0.23593647254426742  0.45811576826117345  1.0000
  C   C5        1.0  0.4236183987264822  0.8413607793197643  0.5559849370325411  1.0000
  C   C6        1.0  0.5752740771099666  0.15202832596087024  0.45617746297409695  1.0000
  C   C7        1.0  0.4841837797043099  0.8781005277722044  0.500828867486888  1.0000
  C   C8        1.0  0.49381645498433346  0.12258972323016343  0.5032432499503374  1.0000
  C   C9        1.0  0.4867743860990572  0.9636234989844894  0.5029429180107601  1.0000
  C   C10       1.0  0.4893577149146894  0.03733918957546221  0.5032107123924096  1.0000
  C   C11       1.0  0.7359661094274016  0.46889696520430135  0.4880209099398202  1.0000
  C   C12       1.0  0.5134873086837785  0.4978926440805155  0.644373764590114  1.0000
  C   C13       1.0  0.2528248433649765  0.5310518649262548  0.49000642578315745  1.0000
  C   C14       1.0  0.8688341909582886  0.45431153326413914  0.47913721221766564  1.0000
  C   C15       1.0  0.12002276102183629  0.5442118908196177  0.47808602714257403  1.0000
  C   C16       1.0  0.925702637464177  0.5081676848861109  0.44172788814293557  1.0000
  C   C17       1.0  0.06420499077965043  0.48769507667351775  0.4444370530798169  1.0000
  C   C18       1.0  0.5753616401978762  0.5659450255946437  0.8407965972955512  1.0000
  C   C19       1.0  0.565958420453171  0.4210604384343881  0.15109059320325716  1.0000
  C   C20       1.0  0.5568982969003429  0.5675215629045238  0.7634149860834686  1.0000
  C   C21       1.0  0.5456218454802908  0.42086097455801047  0.22768917648287618  1.0000
  C   C22       1.0  0.5367881999212187  0.49656410525251005  0.7276750373943417  1.0000
  C   C23       1.0  0.5749651946026475  0.49372878851985996  0.8850868646811425  1.0000
  C   C24       1.0  0.5268272233217317  0.49585088494322344  0.26687519375075663  1.0000
  C   C25       1.0  0.5387616367605901  0.42380453265382567  0.7703925065626156  1.0000
  C   C26       1.0  0.5320741826500994  0.5700534404295038  0.2286506591389711  1.0000
  C   C27       1.0  0.5584128690988663  0.4216414900392493  0.8479522618406964  1.0000
  C   C28       1.0  0.5554813660928347  0.5702445190899964  0.1521162807592377  1.0000
  C   C29       1.0  0.08626978249758822  0.368172482733506  0.35832854270988446  1.0000
  C   C30       1.0  0.9057819856604612  0.6214418271706492  0.3441678368297902  1.0000
  C   C31       1.0  0.5704972318983509  0.49549404003265324  0.11123837580026226  1.0000
  C   C32       1.0  0.5843752196705763  0.49395409131897594  0.9641370885422166  1.0000
  C   C33       1.0  0.5829594254842335  0.49568894594854396  0.032655839088477016  1.0000
  C   C34       1.0  0.5419885925541974  0.8271517023140262  0.4426710155046225  1.0000
  C   C35       1.0  0.4175395318202888  0.18038681403955784  0.55007126747487  1.0000
  C   C36       1.0  0.535844123769003  0.7439481600789435  0.44178910919743003  1.0000
  N   N1        1.0  0.477570706332017  0.7096977158072589  0.49467677711934516  1.0000
  N   N2        1.0  0.5048962734281587  0.29026480216152356  0.5034023936601246  1.0000
  N   N3        1.0  0.12721204175678477  0.4112698081687398  0.42052339647388964  1.0000
  N   N4        1.0  0.8634465771515638  0.582821798840129  0.40926396693357264  1.0000
  O   O1        1.0  0.4598496246456207  0.5685789791569107  0.37800780247141585  1.0000
  O   O2        1.0  0.562874294435545  0.6415175150679245  0.11305962887994535  1.0000
  O   O3        1.0  0.489374371868152  0.43288607205337826  0.6160035433588934  1.0000
  O   O4        1.0  0.5284156999474802  0.42634802597201127  0.3845556708754857  1.0000
  O   O5        1.0  0.5199912230841975  0.5641338691395105  0.6077405270947412  1.0000
  O   O6        1.0  0.6664991659677709  0.5426206380614358  0.4702034424875168  1.0000
  O   O7        1.0  0.3222532435942326  0.4563658422648942  0.4801976701034152  1.0000
  O   O8        1.0  0.693145744897535  0.40818763941775416  0.5132102782176136  1.0000
  O   O9        1.0  0.29634442183032655  0.5931411450467294  0.509298542783654  1.0000
  O   O10       1.0  0.5607520922943721  0.3515569568333419  0.8916226508958975  1.0000
