data_image0
_chemical_formula_structural       Dy4H24C12N24O24
_chemical_formula_sum              "Dy4 H24 C12 N24 O24"
_cell_length_a       8.842734119972642
_cell_length_b       10.0872719448124
_cell_length_c       12.68688271805611
_cell_angle_alpha    89.99965303919117
_cell_angle_beta     90.00018999541489
_cell_angle_gamma    106.84948772553723

_space_group_name_H-M_alt    "P 1"
_space_group_IT_number       1

loop_
  _space_group_symop_operation_xyz
  'x, y, z'

loop_
  _atom_site_type_symbol
  _atom_site_label
  _atom_site_symmetry_multiplicity
  _atom_site_fract_x
  _atom_site_fract_y
  _atom_site_fract_z
  _atom_site_occupancy
  Dy  Dy1       1.0  0.22166174529671417  0.13071768282614477  0.3230193886477649  1.0000
  Dy  Dy2       1.0  0.7216674255289276  0.13071217592300144  0.6769832098700944  1.0000
  Dy  Dy3       1.0  0.850096688792071  0.5797850620316185  0.176311554466551  1.0000
  Dy  Dy4       1.0  0.35010272206638865  0.5797880838390912  0.823685909266885  1.0000
  H   H1        1.0  0.8479083815500701  0.5157682945719771  0.4215019690635484  1.0000
  H   H2        1.0  0.3479205339241034  0.515772761855608  0.5784934506047037  1.0000
  H   H3        1.0  0.8107716127192078  0.6587968822089895  0.3945422201408917  1.0000
  H   H4        1.0  0.3107722510227759  0.6587972719780526  0.6054508076539306  1.0000
  H   H5        1.0  0.7425662237623385  0.8434126803680045  0.2404281620495539  1.0000
  H   H6        1.0  0.24256015130367817  0.8434080525795056  0.7595724357420861  1.0000
  H   H7        1.0  0.9201295817858084  0.8553594107429635  0.2726080349101139  1.0000
  H   H8        1.0  0.42011668569273314  0.8553614207991774  0.7273787332752947  1.0000
  H   H9        1.0  0.8980382854712872  0.35994067612869435  0.010129503844289896  1.0000
  H   H10       1.0  0.39804323262747926  0.3599447338644808  0.9898652506174411  1.0000
  H   H11       1.0  0.9345247303421971  0.505652419806083  0.9571253979535255  1.0000
  H   H12       1.0  0.4345359337565142  0.5056551647505716  0.0428750069205606  1.0000
  H   H13       1.0  0.07618959718304552  0.4850154107308386  0.3089715237787871  1.0000
  H   H14       1.0  0.5761975488820922  0.48501289145291093  0.6910289285755837  1.0000
  H   H15       1.0  0.15727534764157977  0.4919477876174484  0.19789151767547958  1.0000
  H   H16       1.0  0.657283190810922  0.4919497716050644  0.802111455420899  1.0000
  H   H17       1.0  0.6877972630606023  0.6745516632186723  0.9889662262519892  1.0000
  H   H18       1.0  0.1878046438135784  0.6745567947855806  0.0110287957709545  1.0000
  H   H19       1.0  0.8301844089543379  0.7943652838956015  0.026459359360359293  1.0000
  H   H20       1.0  0.3301919235317854  0.7943735636870812  0.9735416947868386  1.0000
  H   H21       1.0  0.00016139817813609115  0.1209616548765524  0.1421646387143767  1.0000
  H   H22       1.0  0.5001556032816765  0.12093749418705364  0.8578303927463863  1.0000
  H   H23       1.0  0.923129420263123  0.1747788837670328  0.2400304509207984  1.0000
  H   H24       1.0  0.4231263829315424  0.1747543385023819  0.7599629403563668  1.0000
  C   C1        1.0  0.4608025767976186  0.19391131961636895  0.5202224050438033  1.0000
  C   C2        1.0  0.960803258834943  0.19391661112077688  0.479782012745332  1.0000
  C   C3        1.0  0.43677639252505424  0.04381054280572982  0.5034731751903792  1.0000
  C   C4        1.0  0.9367681363591841  0.04381907192794191  0.49654219645010034  1.0000
  C   C5        1.0  0.26687440445575566  0.9730643290811186  0.0955350982596812  1.0000
  C   C6        1.0  0.7668746647031455  0.9730595636383016  0.9044656854083256  1.0000
  C   C7        1.0  0.15287354138046547  0.8655874995627644  0.15851603534854763  1.0000
  C   C8        1.0  0.6528792665778056  0.8655767464105327  0.8414936965307688  1.0000
  C   C9        1.0  0.5727735120689061  0.3110149366472613  0.24566779766970365  1.0000
  C   C10       1.0  0.0727842443760522  0.3110130747691144  0.7543327437927444  1.0000
  C   C11       1.0  0.48160317140660414  0.4088559382023789  0.22165602662353479  1.0000
  C   C12       1.0  0.981600502603534  0.4088510169835687  0.7783449819094981  1.0000
  N   N1        1.0  0.3759784618099146  0.26818992757799986  0.4744732891693316  1.0000
  N   N2        1.0  0.8759732847882516  0.26819088462032437  0.5255297622438917  1.0000
  N   N3        1.0  0.43115755820231527  0.39584249160812857  0.514941599406299  1.0000
  N   N4        1.0  0.9311511587336695  0.3958437405160711  0.4850593562609191  1.0000
  N   N5        1.0  0.5470341266113223  0.3971733031912025  0.5815814281759373  1.0000
  N   N6        1.0  0.047032420552540116  0.39717914032142704  0.41842097873968237  1.0000
  N   N7        1.0  0.567167285530047  0.27135931647394074  0.5866499989105165  1.0000
  N   N8        1.0  0.06716706690971819  0.2713630623061434  0.41335624858642456  1.0000
  N   N9        1.0  0.2928024602580876  0.10711206639978604  0.12083590276279209  1.0000
  N   N10       1.0  0.7928000425851636  0.10710648477301282  0.879162254475183  1.0000
  N   N11       1.0  0.38953461902040226  0.1782915145968361  0.04607909525240219  1.0000
  N   N12       1.0  0.8895331307827234  0.17828751422300126  0.9539181398875198  1.0000
  N   N13       1.0  0.42349211311218227  0.08911941118023493  0.979895041221546  1.0000
  N   N14       1.0  0.9234875624066349  0.08911632359556883  0.020102727803831  1.0000
  N   N15       1.0  0.3469180028097584  0.9596203112251304  0.0082742326673326  1.0000
  N   N16       1.0  0.8469143586587153  0.9596192499250552  0.9917283847481713  1.0000
  N   N17       1.0  0.7269260380443043  0.3361958029710622  0.22588764281256593  1.0000
  N   N18       1.0  0.22693905609396836  0.3361968911767336  0.7741084050563739  1.0000
  N   N19       1.0  0.7603273015877576  0.2199664286237848  0.25470750816977267  1.0000
  N   N20       1.0  0.2603342680339437  0.21996680399759327  0.7452915745978288  1.0000
  N   N21       1.0  0.6314907324774878  0.12734448191186232  0.2891967574547322  1.0000
  N   N22       1.0  0.1314972414081979  0.12734404771941144  0.7108072218221863  1.0000
  N   N23       1.0  0.5116585831682697  0.18359779196193676  0.28435209929578775  1.0000
  N   N24       1.0  0.011663989329825628  0.1835942196255545  0.715651310916378  1.0000
  O   O1        1.0  0.8209149125228167  0.5730285935820305  0.3641535826579627  1.0000
  O   O2        1.0  0.3209230927928956  0.5730338277690663  0.6358422701448558  1.0000
  O   O3        1.0  0.8155878823105026  0.7897868009621761  0.2547132175864277  1.0000
  O   O4        1.0  0.3155825174887498  0.7897843376994234  0.745283884340438  1.0000
  O   O5        1.0  0.9000980696008298  0.4574579376969083  0.024361280647966093  1.0000
  O   O6        1.0  0.4001011164457183  0.4574600444782961  0.9756369235491674  1.0000
  O   O7        1.0  0.07295685069032486  0.5186944768380357  0.2338063979799472  1.0000
  O   O8        1.0  0.5729657192277455  0.518699802514597  0.7661907224900161  1.0000
  O   O9        1.0  0.7858493419004944  0.690060010286608  0.029729879306302096  1.0000
  O   O10       1.0  0.2858534834044021  0.690068391827019  0.9702692362960048  1.0000
  O   O11       1.0  0.012536508041229398  0.1361838699174243  0.22024131964184326  1.0000
  O   O12       1.0  0.5125212079421216  0.13614373346921843  0.7797505107369317  1.0000
  O   O13       1.0  0.33762846711756833  0.9861214975749351  0.43383101643517097  1.0000
  O   O14       1.0  0.8376364658115348  0.9861270980022424  0.5661753852813333  1.0000
  O   O15       1.0  0.5187348635624716  0.9903982952380024  0.5635076761826667  1.0000
  O   O16       1.0  0.01874405413053631  0.9903995775967472  0.4364932218267867  1.0000
  O   O17       1.0  0.12814956743964961  0.9020337378502393  0.2512148077390535  1.0000
  O   O18       1.0  0.6281584334468633  0.9020203784555322  0.748782068892005  1.0000
  O   O19       1.0  0.08007925276277215  0.7504885569149027  0.11617566012380107  1.0000
  O   O20       1.0  0.5800846777803628  0.7504921568812936  0.883828968067391  1.0000
  O   O21       1.0  0.5603321607405433  0.5214814955455368  0.17594641698282493  1.0000
  O   O22       1.0  0.06033820172937259  0.5214813817782942  0.8240506595189528  1.0000
  O   O23       1.0  0.336011517647563  0.371191363915564  0.2437212606263514  1.0000
  O   O24       1.0  0.8360259833229549  0.37119035426207614  0.7562890545275991  1.0000
