data_image0
_chemical_formula_structural       Zn2H56C58N2O8
_chemical_formula_sum              "Zn2 H56 C58 N2 O8"
_cell_length_a       11.820477697482762
_cell_length_b       14.343924451434363
_cell_length_c       14.80916553733894
_cell_angle_alpha    89.99286144399636
_cell_angle_beta     87.91870614090121
_cell_angle_gamma    90.00125198493447

_space_group_name_H-M_alt    "P 1"
_space_group_IT_number       1

loop_
  _space_group_symop_operation_xyz
  'x, y, z'

loop_
  _atom_site_type_symbol
  _atom_site_label
  _atom_site_symmetry_multiplicity
  _atom_site_fract_x
  _atom_site_fract_y
  _atom_site_fract_z
  _atom_site_occupancy
  Zn  Zn1       1.0  0.49992584714198773  0.3942509197251169  0.5000074591289589  1.0000
  Zn  Zn2       1.0  0.49985968845147255  0.6146794399967773  0.49996457208477096  1.0000
  H   H1        1.0  0.23124093477712646  0.6050282812939753  0.8386564719405099  1.0000
  H   H2        1.0  0.3041289058048449  0.6183771215472973  0.7324792726237914  1.0000
  H   H3        1.0  0.1598626756087569  0.5845786350127327  0.7363413691125016  1.0000
  H   H4        1.0  0.2827791419996545  0.44689954785206953  0.7023810710726719  1.0000
  H   H5        1.0  0.20687634579318367  0.4347319387935329  0.8055649587266271  1.0000
  H   H6        1.0  0.7686236810215163  0.6050359948574806  0.1615266188552624  1.0000
  H   H7        1.0  0.6958678139967915  0.618189659891158  0.2677796621130426  1.0000
  H   H8        1.0  0.8401485851752424  0.5844299452299495  0.2637509722362026  1.0000
  H   H9        1.0  0.717243294835285  0.4466774513711869  0.2975789676027389  1.0000
  H   H10       1.0  0.793109430403085  0.4346884954702546  0.19434918496407508  1.0000
  H   H11       1.0  0.7622656383517848  0.5387846258451389  0.8024725333217119  1.0000
  H   H12       1.0  0.738919577212485  0.455973730422116  0.7155012392558716  1.0000
  H   H13       1.0  0.6752982502770806  0.5672466634107991  0.7118963484201613  1.0000
  H   H14       1.0  0.32470325214556794  0.5672490616135946  0.2880577699137845  1.0000
  H   H15       1.0  0.2377400449736484  0.5387957138458929  0.19747442129322926  1.0000
  H   H16       1.0  0.2610577397982183  0.45598038579807115  0.28446163197370566  1.0000
  H   H17       1.0  0.7271318341785218  0.2255731622621227  0.8713644351869617  1.0000
  H   H18       1.0  0.6916679742598362  0.30067439304097837  0.78158730520213  1.0000
  H   H19       1.0  0.8304499450638475  0.2533072636067288  0.7849526927174322  1.0000
  H   H20       1.0  0.8335777000541569  0.4184700296593959  0.8354773530674109  1.0000
  H   H21       1.0  0.8682214266179428  0.3450546706619377  0.9237572578607568  1.0000
  H   H22       1.0  0.2727787603951768  0.22557191519889128  0.1286052166445373  1.0000
  H   H23       1.0  0.3082854847628198  0.3006492511949546  0.2183832276846758  1.0000
  H   H24       1.0  0.16949538590550622  0.253321931556755  0.21503059000867344  1.0000
  H   H25       1.0  0.1664350688910687  0.41849623667499  0.16452853815635388  1.0000
  H   H26       1.0  0.13172810085352177  0.3451309823102449  0.07625090775223237  1.0000
  H   H27       1.0  0.808954131933362  0.27259806635535005  0.033888317502665195  1.0000
  H   H28       1.0  0.8756342514143539  0.3690659787160655  0.0836816118795198  1.0000
  H   H29       1.0  0.7637308594084474  0.30969614504227394  0.14269876146688176  1.0000
  H   H30       1.0  0.1909092605162996  0.27274158933906983  0.9661246933843157  1.0000
  H   H31       1.0  0.12432760661616979  0.36925225345969176  0.9162787635978376  1.0000
  H   H32       1.0  0.2362043871380379  0.3097912827325402  0.8573063381604269  1.0000
  H   H33       1.0  0.3116864375894011  0.29855830856543253  0.585291772827446  1.0000
  H   H34       1.0  0.3046602513695618  0.20363907077746998  0.6630683818336962  1.0000
  H   H35       1.0  0.4003770683537411  0.2986635934526447  0.6778920629790264  1.0000
  H   H36       1.0  0.6799801901557812  0.7097423553155267  0.4077135233618491  1.0000
  H   H37       1.0  0.5842026499122497  0.7143742719266085  0.31968277952881147  1.0000
  H   H38       1.0  0.686913465431154  0.8048971855972125  0.33034780145245424  1.0000
  H   H39       1.0  0.6885060616192858  0.29862071980497973  0.41477541382877087  1.0000
  H   H40       1.0  0.6955458800773825  0.20373346680253226  0.3369789866851391  1.0000
  H   H41       1.0  0.5998221425209848  0.2987378278266562  0.32218507833709237  1.0000
  H   H42       1.0  0.31994982142000333  0.7097583546901945  0.5922405491342102  1.0000
  H   H43       1.0  0.4156890493258913  0.7143923790511053  0.6802889760527931  1.0000
  H   H44       1.0  0.31300664732894024  0.8049245256311153  0.6695638607107526  1.0000
  H   H45       1.0  0.480266206666137  0.07714843095432403  0.20348668623709895  1.0000
  H   H46       1.0  0.5198775177290571  0.18091579187107956  0.25749192449918457  1.0000
  H   H47       1.0  0.6248218893702528  0.10555332798418961  0.2094451468509319  1.0000
  H   H48       1.0  0.5180833336107895  0.9413271931892524  0.7983285972439019  1.0000
  H   H49       1.0  0.37631028418956447  0.905598299528748  0.7897809612213393  1.0000
  H   H50       1.0  0.48779896159329167  0.834843912111097  0.7447276839837897  1.0000
  H   H51       1.0  0.5198862364338197  0.0770409470174584  0.796619365337605  1.0000
  H   H52       1.0  0.48028334307088016  0.18081860346821801  0.7425851163593647  1.0000
  H   H53       1.0  0.37532697110121654  0.1054141063699205  0.7905633897984501  1.0000
  H   H54       1.0  0.4819372976380265  0.9414797689842517  0.20172676027429048  1.0000
  H   H55       1.0  0.6237084480715467  0.9056829196950531  0.21017987077596695  1.0000
  H   H56       1.0  0.512213692965119  0.8349753172865066  0.25529194765457663  1.0000
  C   C1        1.0  0.5127313621991475  0.5054524131664451  0.3268264415021278  1.0000
  C   C2        1.0  0.4871878694068386  0.5054850715753288  0.6731475641448269  1.0000
  C   C3        1.0  0.2826146260955724  0.5012966547862803  0.4925599895938219  1.0000
  C   C4        1.0  0.7171361172090158  0.501457582861974  0.5072935156644929  1.0000
  C   C5        1.0  0.1604478448398652  0.5043849540750854  0.4947892750807695  1.0000
  C   C6        1.0  0.8392981347613998  0.5045196463588937  0.5048461275926853  1.0000
  C   C7        1.0  0.056914169177417796  0.5047819213205854  0.49804984907698463  1.0000
  C   C8        1.0  0.9428379501960718  0.5048219343246741  0.5015462196946174  1.0000
  C   C9        1.0  0.3862771568367477  0.45818162041490496  0.818545085510898  1.0000
  C   C10       1.0  0.6137042085081461  0.45813461910483255  0.18143988664321137  1.0000
  C   C11       1.0  0.48852298427880914  0.4842917405177758  0.7729654498756131  1.0000
  C   C12       1.0  0.5114577478067801  0.4842689191899795  0.22700912494742906  1.0000
  C   C13       1.0  0.5956573708956512  0.4768553359052916  0.8110080710695726  1.0000
  C   C14       1.0  0.4043295131464433  0.4768488603511542  0.1889612185127021  1.0000
  C   C15       1.0  0.6013655177096524  0.44145241724989137  0.8999374122250359  1.0000
  C   C16       1.0  0.3986231016415189  0.4414580421478006  0.1000405616810482  1.0000
  C   C17       1.0  0.4979078174061016  0.4310938891873874  0.9518335311589039  1.0000
  C   C18       1.0  0.5020810590713863  0.43109629900529717  0.04814751789901809  1.0000
  C   C19       1.0  0.3910079234689476  0.4300651146608985  0.9099421881129712  1.0000
  C   C20       1.0  0.6089775788658258  0.4300412640516243  0.09004168585618538  1.0000
  C   C21       1.0  0.703179864244511  0.4066261845461412  0.941514745363136  1.0000
  C   C22       1.0  0.29679947393230316  0.4066554908875233  0.05847149560428729  1.0000
  C   C23       1.0  0.7042906499820205  0.3956521532563643  0.0340130291256457  1.0000
  C   C24       1.0  0.2956822118400453  0.3957122287288612  0.9659724281704383  1.0000
  C   C25       1.0  0.4467352522486435  0.2016878960414488  0.5693929179365114  1.0000
  C   C26       1.0  0.5503961270619938  0.810639068865399  0.42949503996522503  1.0000
  C   C27       1.0  0.5535030075968805  0.2017108328564206  0.4306699150814168  1.0000
  C   C28       1.0  0.4495786176611746  0.8106369663259229  0.5704575678708749  1.0000
  C   C29       1.0  0.5345125637298054  0.1048244178743403  0.4203896168600919  1.0000
  C   C30       1.0  0.46714677575352676  0.907826681680085  0.5800480233825239  1.0000
  C   C31       1.0  0.46576295659839667  0.1048037708612242  0.5796751553024106  1.0000
  C   C32       1.0  0.5329630748266823  0.9078480332902431  0.4199543091474851  1.0000
  C   C33       1.0  0.5001316637469984  0.05576475656910419  0.5000280395815223  1.0000
  C   C34       1.0  0.5000690539571622  0.9569058672230497  0.5000069968589145  1.0000
  C   C35       1.0  0.5455472695439879  0.054946630057799  0.33569045563011457  1.0000
  C   C36       1.0  0.4557548730404903  0.9582698720124654  0.664598896871844  1.0000
  C   C37       1.0  0.454695790346534  0.054879722864782814  0.6643614419965758  1.0000
  C   C38       1.0  0.5444068626939256  0.9583395625974875  0.33542119884774013  1.0000
  C   C39       1.0  0.2756322029491542  0.47348700011298916  0.771952021491117  1.0000
  C   C40       1.0  0.2407795017966805  0.5766003062540009  0.7698932887079764  1.0000
  C   C41       1.0  0.7243614086981367  0.4733759697702666  0.22804085738946606  1.0000
  C   C42       1.0  0.7591825650311392  0.5764928175148114  0.23025393855131424  1.0000
  C   C43       1.0  0.6988071542591355  0.510948814450522  0.7575398819626213  1.0000
  C   C44       1.0  0.30118818704489303  0.5109563836161115  0.24242051241724735  1.0000
  C   C45       1.0  0.7978641653699086  0.36584658660586206  0.8819151480703411  1.0000
  C   C46       1.0  0.7596763629441126  0.2814952820097787  0.8267052424250136  1.0000
  C   C47       1.0  0.2021026508076957  0.36587860644783626  0.11808168704851597  1.0000
  C   C48       1.0  0.24027167061745294  0.2814957562155058  0.17326680746746345  1.0000
  C   C49       1.0  0.793199476944025  0.33466601527432266  0.07598365468817289  1.0000
  C   C50       1.0  0.20672758582706044  0.3347958825850553  0.9240045281575815  1.0000
  C   C51       1.0  0.36178676828484396  0.252979619201426  0.628167374854378  1.0000
  C   C52       1.0  0.6295007085429275  0.7576806121987333  0.3676471405684295  1.0000
  C   C53       1.0  0.6384204743838495  0.2530493197385653  0.3719011122325497  1.0000
  C   C54       1.0  0.37042383243503  0.7576962307090653  0.6323012579169712  1.0000
  C   C55       1.0  0.543186697524611  0.10780781057695782  0.24761248403831354  1.0000
  C   C56       1.0  0.4591552995308064  0.9068252758315297  0.7533365382419959  1.0000
  C   C57       1.0  0.45700157887732457  0.1076995202299571  0.7524496659678519  1.0000
  C   C58       1.0  0.54090288714454  0.9069475861066181  0.24667591796747246  1.0000
  N   N1        1.0  0.5000944426133671  0.24800642680271778  0.5000227512007597  1.0000
  N   N2        1.0  0.49993981926122183  0.7640262970272644  0.4999631727353702  1.0000
  O   O1        1.0  0.5317699064329631  0.4328714958548473  0.3733264428379782  1.0000
  O   O2        1.0  0.5065429992503638  0.5863532446793444  0.6415957269453327  1.0000
  O   O3        1.0  0.4680757960235837  0.4329167258643309  0.6266689755540111  1.0000
  O   O4        1.0  0.4933462541315237  0.5863119473764016  0.3583612123825119  1.0000
  O   O5        1.0  0.3270950908745008  0.4221301744429128  0.4769259433309472  1.0000
  O   O6        1.0  0.6678673542333798  0.5788682829428566  0.49279718710335624  1.0000
  O   O7        1.0  0.6726875251822975  0.42230057322360176  0.5230498589223486  1.0000
  O   O8        1.0  0.33187339922218223  0.578703411832123  0.5071124756520077  1.0000
