data_image0
_chemical_formula_structural       Zn16H40C112S8O52F16
_chemical_formula_sum              "Zn16 H40 C112 S8 O52 F16"
_cell_length_a       18.537680814307492
_cell_length_b       19.734753823215577
_cell_length_c       32.81285879828853
_cell_angle_alpha    85.94448966284592
_cell_angle_beta     73.58849268317171
_cell_angle_gamma    61.97760055965601

_space_group_name_H-M_alt    "P 1"
_space_group_IT_number       1

loop_
  _space_group_symop_operation_xyz
  'x, y, z'

loop_
  _atom_site_type_symbol
  _atom_site_label
  _atom_site_symmetry_multiplicity
  _atom_site_fract_x
  _atom_site_fract_y
  _atom_site_fract_z
  _atom_site_occupancy
  Zn  Zn1       1.0  0.8737669296357282  0.5564387271051673  0.5188288984020418  1.0000
  Zn  Zn2       1.0  0.03842152129525547  0.48490556685071334  0.4381316919920835  1.0000
  Zn  Zn3       1.0  0.041068463687494706  0.3988222475225172  0.5239345750303386  1.0000
  Zn  Zn4       1.0  0.0475494597642339  0.5593457038659507  0.5181638764597379  1.0000
  Zn  Zn5       1.0  0.6255233836573452  0.19226498158806038  0.7318629745783268  1.0000
  Zn  Zn6       1.0  0.4630179743142405  0.35063721860660024  0.7254864238793388  1.0000
  Zn  Zn7       1.0  0.4589477759346821  0.26478278004083927  0.8124777113661282  1.0000
  Zn  Zn8       1.0  0.4530692591000687  0.192689353043427  0.72974998795506  1.0000
  Zn  Zn9       1.0  0.46236661510338456  0.7629541896396218  0.31253600837528944  1.0000
  Zn  Zn10      1.0  0.4526422511151933  0.6919502484428222  0.23114969498062982  1.0000
  Zn  Zn11      1.0  0.6257823714605024  0.6929201208679389  0.22985979325912353  1.0000
  Zn  Zn12      1.0  0.4589864836596008  0.851039591381209  0.22612296818598301  1.0000
  Zn  Zn13      1.0  0.03697366175354222  0.8995120520662995  0.024491000921898425  1.0000
  Zn  Zn14      1.0  0.049535630674626005  0.056608091436238794  0.018849853822281697  1.0000
  Zn  Zn15      1.0  0.8750361040888418  0.0583824712445704  0.0195197927598869  1.0000
  Zn  Zn16      1.0  0.037635578812150045  0.9852625069543278  0.9374636281633499  1.0000
  H   H1        1.0  0.8136842812379257  0.24352084138236318  0.6520474634023401  1.0000
  H   H2        1.0  0.5417432493139387  0.4846296409941432  0.62113748619079  1.0000
  H   H3        1.0  0.5469602383745381  0.5247401616484169  0.6665738528958515  1.0000
  H   H4        1.0  0.6445346836236395  0.5715642043181505  0.6184912858095473  1.0000
  H   H5        1.0  0.6392188425871693  0.5314642290112844  0.5731028305390851  1.0000
  H   H6        1.0  0.2909169954923384  0.6003375663725947  0.2958260850604971  1.0000
  H   H7        1.0  0.3526692244795841  0.6741564994781867  0.4319445240801514  1.0000
  H   H8        1.0  0.26187117663364745  0.762428658891082  0.4292963694408485  1.0000
  H   H9        1.0  0.16545241258472726  0.713788683251657  0.4766830200032858  1.0000
  H   H10       1.0  0.25612574730063636  0.6255638574438437  0.4793675906597912  1.0000
  H   H11       1.0  0.8132983463630976  0.6001583814385468  0.29579410834256953  1.0000
  H   H12       1.0  0.5463874461956735  0.7625457413102765  0.4291758400096768  1.0000
  H   H13       1.0  0.5411480797999674  0.6743345657912414  0.43180367251132884  1.0000
  H   H14       1.0  0.6388288966161185  0.6255393418630176  0.4791512659511383  1.0000
  H   H15       1.0  0.6440645209372848  0.7137111039540188  0.4766019337782339  1.0000
  H   H16       1.0  0.30429938532736855  0.4590079182420014  0.645388770971664  1.0000
  H   H17       1.0  0.3331520915714847  0.17792159003798252  0.6308145354049159  1.0000
  H   H18       1.0  0.24241862006047646  0.217861914658684  0.676273092566781  1.0000
  H   H19       1.0  0.14617585234682906  0.26739112468401777  0.6281105543045555  1.0000
  H   H20       1.0  0.2369706492711002  0.22740736228536923  0.5827330981214658  1.0000
  H   H21       1.0  0.6865664545594754  0.1499386899575654  0.9543475631630899  1.0000
  H   H22       1.0  0.9582621463008677  0.07600436172281629  0.818217407600784  1.0000
  H   H23       1.0  0.9530513230545807  0.9877679166498653  0.8208654457540446  1.0000
  H   H24       1.0  0.855446680691351  0.03646918552504989  0.7734715067642455  1.0000
  H   H25       1.0  0.8607174146145056  0.12462109046754218  0.7708446028331223  1.0000
  H   H26       1.0  0.19558581262041488  0.0524362990654197  0.8432687018316614  1.0000
  H   H27       1.0  0.16680494555807715  0.21475458385772578  0.9765613025012739  1.0000
  H   H28       1.0  0.25768095606944996  0.12658883795629086  0.9791994089616551  1.0000
  H   H29       1.0  0.3537250322064622  0.17414685713532654  0.9303817322802032  1.0000
  H   H30       1.0  0.26290600720449225  0.2622505368340882  0.927767105525767  1.0000
  H   H31       1.0  0.19560032990084156  0.7913269522571511  0.10451386794904487  1.0000
  H   H32       1.0  0.2577521698605238  0.0323263192838326  0.0736577305158335  1.0000
  H   H33       1.0  0.16679146058945798  0.0724637651183144  0.1190415470733797  1.0000
  H   H34       1.0  0.26277931314403696  0.022964087281458507  0.1672474061738853  1.0000
  H   H35       1.0  0.35368162537339753  0.9828723111997629  0.12192443842913286  1.0000
  H   H36       1.0  0.6862875132403302  0.006456655282448799  0.09789350422389019  1.0000
  H   H37       1.0  0.953072761406581  0.7252173472133238  0.08341571138149814  1.0000
  H   H38       1.0  0.9582944509133638  0.7653491267163729  0.12884339474811665  1.0000
  H   H39       1.0  0.8608550511807138  0.7185985328423002  0.17687319864936057  1.0000
  H   H40       1.0  0.8555592591601525  0.6783950479090136  0.1315043334988885  1.0000
  C   C1        1.0  0.8621862341160806  0.5684231084027473  0.43090939367199604  1.0000
  C   C2        1.0  0.12308988867926021  0.3160933811459969  0.43855170770740404  1.0000
  C   C3        1.0  0.8631563305310976  0.43028057464037767  0.5687427306825368  1.0000
  C   C4        1.0  0.13826729181985092  0.4318811069787571  0.5686394838297699  1.0000
  C   C5        1.0  0.8762721989940944  0.6836570476244502  0.5609154992612274  1.0000
  C   C6        1.0  0.13781910403678668  0.5690378702348937  0.43081151509722554  1.0000
  C   C7        1.0  0.6395704771068225  0.3177193029390892  0.6810895959601738  1.0000
  C   C8        1.0  0.3773685381365296  0.43426332129064354  0.8106565721177219  1.0000
  C   C9        1.0  0.6367280484256881  0.18152810719634263  0.8194465496930617  1.0000
  C   C10       1.0  0.3616502724421053  0.18111753536124553  0.8184022976219651  1.0000
  C   C11       1.0  0.6235376186567123  0.06638740794685559  0.6886938410658843  1.0000
  C   C12       1.0  0.3627395076077562  0.32026142140331604  0.6806383719327656  1.0000
  C   C13       1.0  0.36247794068534495  0.6801512004993953  0.31861497536436195  1.0000
  C   C14       1.0  0.6222767516547945  0.5661108341352232  0.18864693096083576  1.0000
  C   C15       1.0  0.6391266675032553  0.6802812959151227  0.3182433651649034  1.0000
  C   C16       1.0  0.6368567753821284  0.8194818849173726  0.18094458525317228  1.0000
  C   C17       1.0  0.3773390992791191  0.9326037704941188  0.3118296429761783  1.0000
  C   C18       1.0  0.36164636782143605  0.8185201050651043  0.18115320978095173  1.0000
  C   C19       1.0  0.1378710933935709  0.9299167199198093  0.06891667562290134  1.0000
  C   C20       1.0  0.8791739919258177  0.18360153945114632  0.06114350889458106  1.0000
  C   C21       1.0  0.8604355324311542  0.9324154482211141  0.06905503893192834  1.0000
  C   C22       1.0  0.8607538824545955  0.0696169725915396  0.9316706900533375  1.0000
  C   C23       1.0  0.12176404950988477  0.8159468589455087  0.9392767866423668  1.0000
  C   C24       1.0  0.1378999132149517  0.06811053465126092  0.9303467780469248  1.0000
  C   C25       1.0  0.73888772825822  0.8029411277815441  0.601002866699325  1.0000
  C   C26       1.0  0.7609179757348128  0.9469132296057342  0.6490224406885402  1.0000
  C   C27       1.0  0.8265512743225473  0.7581726652119513  0.5860482591885301  1.0000
  C   C28       1.0  0.6731965266223341  0.9917055632625988  0.6638956429100203  1.0000
  C   C29       1.0  0.7856496807595266  0.8780253325984829  0.626020367306907  1.0000
  C   C30       1.0  0.7142412642786127  0.8718587386730831  0.623950743360858  1.0000
  C   C31       1.0  0.20200805864411106  0.22605729909772523  0.369745042444208  1.0000
  C   C32       1.0  0.29834316764439706  0.022983942666613202  0.38046623955683156  1.0000
  C   C33       1.0  0.17235858657218725  0.24151934992030283  0.41363835069627436  1.0000
  C   C34       1.0  0.3280667705038097  0.0072872560778592  0.33661428628219164  1.0000
  C   C35       1.0  0.25236799076533606  0.1024376385460073  0.3928993094952701  1.0000
  C   C36       1.0  0.2480704993661007  0.1465493512638361  0.3572711616062278  1.0000
  C   C37       1.0  0.6959920252624627  0.3462636094336701  0.652558206159874  1.0000
  C   C38       1.0  0.8076137398185139  0.4007256560946928  0.5972620414809597  1.0000
  C   C39       1.0  0.6646510331827287  0.4185949583123616  0.6364299270208491  1.0000
  C   C40       1.0  0.8379516335866983  0.3274619075030358  0.6140924319745408  1.0000
  C   C41       1.0  0.7187762347182767  0.44434019831908234  0.6098297200183325  1.0000
  C   C42       1.0  0.7850873274612055  0.30068319435469704  0.6405773828347422  1.0000
  C   C43       1.0  0.5845934630313182  0.49181071602538395  0.6356448751346163  1.0000
  C   C44       1.0  0.6457123564281277  0.5211381980511831  0.6055244049607397  1.0000
  C   C45       1.0  0.30541718441727983  0.6522396413379213  0.34706472738142213  1.0000
  C   C46       1.0  0.1945284942003625  0.5967292623471251  0.4017965067407019  1.0000
  C   C47       1.0  0.2804363601588448  0.6642687724085122  0.39128150104269105  1.0000
  C   C48       1.0  0.22076054295644096  0.585152056756094  0.35673583181174  1.0000
  C   C49       1.0  0.22705369570085304  0.63737133664592  0.4173962075998006  1.0000
  C   C50       1.0  0.2738748748288413  0.6116023775853564  0.3301530696336599  1.0000
  C   C51       1.0  0.28809997614470706  0.6995726656940777  0.42829915913682026  1.0000
  C   C52       1.0  0.22768346433168316  0.6690782262526724  0.457986886972499  1.0000
  C   C53       1.0  0.6954576664871651  0.652255341822489  0.3468546978234883  1.0000
  C   C54       1.0  0.8069127382638683  0.5965668326149398  0.4018070791648114  1.0000
  C   C55       1.0  0.6640333201181576  0.6643139270662746  0.3910979233680507  1.0000
  C   C56       1.0  0.8374474793604777  0.585077287371874  0.3567480778589527  1.0000
  C   C57       1.0  0.7181356575153899  0.6373321470599862  0.4172647698700517  1.0000
  C   C58       1.0  0.7845735689566031  0.6115634349015905  0.33010125257203526  1.0000
  C   C59       1.0  0.5840058052929465  0.6996839890020254  0.4281451822736102  1.0000
  C   C60       1.0  0.6451911747688612  0.6691261822799106  0.45783464521895223  1.0000
  C   C61       1.0  0.3053654204103537  0.3484966593443417  0.6525719001711109  1.0000
  C   C62       1.0  0.19460913709866653  0.4048955875571565  0.5972574811916544  1.0000
  C   C63       1.0  0.2728916628737892  0.30483179138444433  0.6402301971734587  1.0000
  C   C64       1.0  0.2281931840098181  0.44828524283629895  0.6103593783552981  1.0000
  C   C65       1.0  0.21966901767066094  0.33238486580700066  0.6135870922075951  1.0000
  C   C66       1.0  0.28130258312089035  0.4219044253919364  0.6368635069350645  1.0000
  C   C67       1.0  0.27126876706995523  0.2286100241842348  0.6440119292629162  1.0000
  C   C68       1.0  0.21100606199128444  0.25964020059493714  0.6138613342506503  1.0000
  C   C69       1.0  0.2981534390478727  0.5824935154210208  0.8215208299955776  1.0000
  C   C70       1.0  0.20184361763151068  0.6677605367120804  0.9284705804046425  1.0000
  C   C71       1.0  0.3278152535756575  0.5088633995592106  0.8356038086066988  1.0000
  C   C72       1.0  0.1719792069634921  0.7413877464896571  0.9143749253470688  1.0000
  C   C73       1.0  0.24790403199931896  0.6093789016883662  0.8949358903010562  1.0000
  C   C74       1.0  0.2521314896508643  0.6408389810933741  0.8550789979972109  1.0000
  C   C75       1.0  0.8042497028872901  0.09786890083361038  0.9031621702360796  1.0000
  C   C76       1.0  0.6923845627825642  0.1536645905263114  0.8483939360976791  1.0000
  C   C77       1.0  0.8354341513728372  0.08594731441308309  0.858924417309389  1.0000
  C   C78       1.0  0.6621870922880575  0.16503319618632156  0.8934355081538284  1.0000
  C   C79       1.0  0.7812299200324518  0.1129758109793926  0.8327833659483589  1.0000
  C   C80       1.0  0.7151398085781365  0.13861186361815922  0.9200276363496301  1.0000
  C   C81       1.0  0.9154322909428956  0.0506348398564711  0.8218878709916099  1.0000
  C   C82       1.0  0.8542458224135957  0.08113741775262888  0.7922022039553056  1.0000
  C   C83       1.0  0.19462483277578713  0.0967653337093637  0.9021337159321732  1.0000
  C   C84       1.0  0.305146662946278  0.15185130876981384  0.8462305897558622  1.0000
  C   C85       1.0  0.22699435833855122  0.1372676668225594  0.9177545618562846  1.0000
  C   C86       1.0  0.2715655525172451  0.11045442806822342  0.8311179280785126  1.0000
  C   C87       1.0  0.28010755836037043  0.16358661679163333  0.8906626498214081  1.0000
  C   C88       1.0  0.21854583612801542  0.0837930076910354  0.8575725762378993  1.0000
  C   C89       1.0  0.2286564099386013  0.1696743244185228  0.957758001331854  1.0000
  C   C90       1.0  0.2888584134774419  0.19944441551306372  0.9271753718406046  1.0000
  C   C91       1.0  0.6436159763441933  0.44688203103105206  0.14899306723280156  1.0000
  C   C92       1.0  0.8575360885862368  0.3027893038136895  0.100895844184059  1.0000
  C   C93       1.0  0.6719928666524098  0.4914364097145025  0.16382782185746683  1.0000
  C   C94       1.0  0.8293992220823725  0.2581345368813004  0.08599701487669614  1.0000
  C   C95       1.0  0.7904456998881741  0.3716331978665933  0.12387770754518354  1.0000
  C   C96       1.0  0.7107209929906729  0.37793103716052195  0.1259937195391103  1.0000
  C   C97       1.0  0.19472593060982765  0.9018050047209201  0.09722635317956463  1.0000
  C   C98       1.0  0.30513680385670483  0.8455360557378028  0.15266760032599788  1.0000
  C   C99       1.0  0.22703760469101292  0.9455208801778882  0.10966299402561222  1.0000
  C   C100      1.0  0.2716156164042544  0.8020600779862407  0.1395658346709681  1.0000
  C   C101      1.0  0.2800841669148112  0.9180284768443556  0.1363687156447853  1.0000
  C   C102      1.0  0.2186055270363809  0.8284619432788246  0.11299863366872386  1.0000
  C   C103      1.0  0.22866420469603102  0.021730696388715408  0.10591117099065879  1.0000
  C   C104      1.0  0.2888074344437184  0.9907122435699665  0.1361225530899901  1.0000
  C   C105      1.0  0.8040315255671615  0.9036850895620462  0.09738326723400798  1.0000
  C   C106      1.0  0.6923903577806383  0.8492280654168168  0.1526369059751715  1.0000
  C   C107      1.0  0.8353879521108637  0.831354331568967  0.11351606929801508  1.0000
  C   C108      1.0  0.6620521293157111  0.9225518882273744  0.13586765116924931  1.0000
  C   C109      1.0  0.7812377048681753  0.8055934754256812  0.1400944345634939  1.0000
  C   C110      1.0  0.7149224565377208  0.949293086881319  0.10935320048655227  1.0000
  C   C111      1.0  0.9154448088859868  0.7581766872951549  0.11433706292906007  1.0000
  C   C112      1.0  0.8543338672474332  0.7288555412159424  0.1444593421203777  1.0000
  S   S1        1.0  0.8807176657357516  0.8006955952321917  0.6002423502034945  1.0000
  S   S2        1.0  0.619118795710456  0.9491473409744913  0.6496526843863889  1.0000
  S   S3        1.0  0.20094474048227082  0.15757033080022606  0.4405380134801788  1.0000
  S   S4        1.0  0.2995526030256102  0.09124929923144978  0.30965960872109827  1.0000
  S   S5        1.0  0.2993051321429832  0.5103262331427203  0.89104457872007  1.0000
  S   S6        1.0  0.2006179335481946  0.7398765450124571  0.8589291633703412  1.0000
  S   S7        1.0  0.7828264382861506  0.44877686262600486  0.14956362591818348  1.0000
  S   S8        1.0  0.7184885974928364  0.30076816401354023  0.10025268046732089  1.0000
  O   O1        1.0  0.9989846807297197  0.5004249139366479  0.5006303361054235  1.0000
  O   O2        1.0  0.823528436887379  0.5843935569163534  0.47079276030091677  1.0000
  O   O3        1.0  0.10303589263879323  0.37595215677581  0.4176691133627912  1.0000
  O   O4        1.0  0.9432814253158881  0.38686452741650607  0.5587367571298928  1.0000
  O   O5        1.0  0.9422051098104945  0.5311415544829003  0.41415521526334226  1.0000
  O   O6        1.0  0.824201934031926  0.497921278781071  0.5567141729864177  1.0000
  O   O7        1.0  0.10520237594115409  0.31335952583230403  0.4791145859686239  1.0000
  O   O8        1.0  0.11573463746801592  0.3839461412827632  0.5595591589697761  1.0000
  O   O9        1.0  0.9572845034349624  0.6562103755680084  0.5511137809264213  1.0000
  O   O10       1.0  0.11734282613574724  0.49900615588821035  0.5556436274572577  1.0000
  O   O11       1.0  0.8347414167875442  0.6539418720597184  0.5513571119233802  1.0000
  O   O12       1.0  0.11268197932395906  0.5308604009862138  0.41414368790825046  1.0000
  O   O13       1.0  0.11917037935774735  0.5863678234947258  0.47064247888916816  1.0000
  O   O14       1.0  0.5004202257494511  0.2501508024994621  0.7499295570899563  1.0000
  O   O15       1.0  0.6752231482489961  0.25059556501409475  0.6940228523212184  1.0000
  O   O16       1.0  0.3980238891895667  0.4356204624836835  0.7702507712998711  1.0000
  O   O17       1.0  0.5565421519103495  0.21852536187279978  0.8360346174865683  1.0000
  O   O18       1.0  0.5596565537730385  0.3637247810268107  0.6901496105055287  1.0000
  O   O19       1.0  0.6757027077100233  0.1653092797606917  0.7796286059312437  1.0000
  O   O20       1.0  0.3948783000050327  0.3748749824557862  0.8323296869167931  1.0000
  O   O21       1.0  0.3844178178171092  0.21860602888028782  0.8377513898009425  1.0000
  O   O22       1.0  0.5424302760720394  0.0951768257605607  0.6974713026111843  1.0000
  O   O23       1.0  0.3825844673717711  0.16700152987014152  0.778335980988885  1.0000
  O   O24       1.0  0.6650382764552206  0.0953362698504137  0.6990738906061863  1.0000
  O   O25       1.0  0.38799240095113413  0.3655792254231898  0.6900881603935998  1.0000
  O   O26       1.0  0.3817763335868207  0.25251422251866973  0.6927910547999546  1.0000
  O   O27       1.0  0.5008250612424022  0.7498337092125026  0.2500138004701711  1.0000
  O   O28       1.0  0.38754715932889633  0.7167523433377028  0.33693534326703656  1.0000
  O   O29       1.0  0.5415362441364805  0.594965397904474  0.1987024887372328  1.0000
  O   O30       1.0  0.6749107191531677  0.6659540586332683  0.27821766557516986  1.0000
  O   O31       1.0  0.3815046893678583  0.6652531348989116  0.2786499885310647  1.0000
  O   O32       1.0  0.5591872987221721  0.7164947789519757  0.33668981197708087  1.0000
  O   O33       1.0  0.6656032871936477  0.5948468710904676  0.1977043682018475  1.0000
  O   O34       1.0  0.675804978269156  0.7514349522965486  0.1925194186778967  1.0000
  O   O35       1.0  0.3951245785005426  0.9354787290947044  0.2712960966549005  1.0000
  O   O36       1.0  0.5567211199622831  0.8629720234051561  0.19122147540147696  1.0000
  O   O37       1.0  0.3974429277708964  0.8725745138355592  0.3326736106489959  1.0000
  O   O38       1.0  0.3826666424762592  0.7512942391565147  0.19396629043257715  1.0000
  O   O39       1.0  0.3843522781276647  0.8662546568162311  0.19034993917787796  1.0000
  O   O40       1.0  0.9999060948804156  1.5062984182599317e-05  0.9999188629233869  1.0000
  O   O41       1.0  0.11171252588189158  0.8850556983325647  0.05987545835829878  1.0000
  O   O42       1.0  0.960086860898308  0.15397701158339314  0.05124297948748335  1.0000
  O   O43       1.0  0.824755810597537  0.9999812114637694  0.056606678940930494  1.0000
  O   O44       1.0  0.12018403096008272  0.9971135449456837  0.05611253584314107  1.0000
  O   O45       1.0  0.94033124761188  0.8863047114041365  0.05969835500269474  1.0000
  O   O46       1.0  0.8355203435987663  0.15550384588255642  0.05181485093869747  1.0000
  O   O47       1.0  0.8250506885626406  0.08502527451010881  0.9716438016515596  1.0000
  O   O48       1.0  0.10272760944616971  0.8753483294891354  0.9175387046807657  1.0000
  O   O49       1.0  0.9406558147308883  0.03211767646075  0.9133077638988779  1.0000
  O   O50       1.0  0.10191452734267865  0.8147151045185552  0.9796857967985204  1.0000
  O   O51       1.0  0.12009703639324695  0.08272021798101291  0.9703193432102636  1.0000
  O   O52       1.0  0.11210575200059479  0.031732019388194005  0.9124535287520743  1.0000
  F   F1        1.0  0.6816031996962831  0.7843021630720984  0.5947661437043763  1.0000
  F   F2        1.0  0.8180300376737152  0.9656773118039578  0.6553208393551415  1.0000
  F   F3        1.0  0.1894305660704987  0.2797288235044206  0.3413060747636223  1.0000
  F   F4        1.0  0.31087887974116774  0.9693076585947862  0.4090228944007419  1.0000
  F   F5        1.0  0.3107276739034717  0.5985038014924766  0.7804344730321588  1.0000
  F   F6        1.0  0.18912909325607066  0.6518221888750091  0.969555452981254  1.0000
  F   F7        1.0  0.5615077734969133  0.46574277667763647  0.1553035967937575  1.0000
  F   F8        1.0  0.9397605859226554  0.28393954988975884  0.09460378025362813  1.0000
  F   F9        1.0  0.9229321365844713  0.2787472956989276  0.6047127015359023  1.0000
  F   F10       1.0  0.1940480644548827  0.5466163007779984  0.33715063228765974  1.0000
  F   F11       1.0  0.9223054019424523  0.5464653089842741  0.3371773866234307  1.0000
  F   F12       1.0  0.20935784290637838  0.519842864497896  0.5969217977982665  1.0000
  F   F13       1.0  0.5772131526847845  0.203517763189744  0.9130942368696325  1.0000
  F   F14       1.0  0.29042033055897315  0.09474885044131297  0.7886326407451705  1.0000
  F   F15       1.0  0.2904402951987278  0.7305857619857434  0.15296705484805526  1.0000
  F   F16       1.0  0.5770756379247434  0.9712662508304671  0.1453351330041456  1.0000
