data_image0
_chemical_formula_structural       Cu5As2H12C12S2O16
_chemical_formula_sum              "Cu5 As2 H12 C12 S2 O16"
_cell_length_a       6.224780473783264
_cell_length_b       7.30957663599002
_cell_length_c       12.00113140596154
_cell_angle_alpha    85.8395942670775
_cell_angle_beta     80.2942497400895
_cell_angle_gamma    73.88860421094873

_space_group_name_H-M_alt    "P 1"
_space_group_IT_number       1

loop_
  _space_group_symop_operation_xyz
  'x, y, z'

loop_
  _atom_site_type_symbol
  _atom_site_label
  _atom_site_symmetry_multiplicity
  _atom_site_fract_x
  _atom_site_fract_y
  _atom_site_fract_z
  _atom_site_occupancy
  Cu  Cu1       1.0  0.042945693454804375  0.6770558184268507  0.12569480534722288  1.0000
  Cu  Cu2       1.0  0.9592271177219445  0.3222174022069737  0.8728624429764409  1.0000
  Cu  Cu3       1.0  0.4970838494308225  0.5004558604566397  0.0008278695263542079  1.0000
  Cu  Cu4       1.0  0.24690191697015249  0.9168439628254532  0.9084066640371375  1.0000
  Cu  Cu5       1.0  0.7525987136543009  0.08496195099336029  0.08972294372028951  1.0000
  As  As1       1.0  0.19735574236415232  0.21482887278327914  0.14430635404374934  1.0000
  As  As2       1.0  0.8018370283695905  0.7828831048545768  0.8562930846018872  1.0000
  H   H1        1.0  0.6790174089459103  0.47591058827027405  0.5127457299615088  1.0000
  H   H2        1.0  0.3226633656842068  0.525817988230436  0.4873860191267809  1.0000
  H   H3        1.0  0.9309234984565508  0.2590442902050611  0.6328585612156914  1.0000
  H   H4        1.0  0.0694008639248906  0.7416697844702185  0.3674923642677683  1.0000
  H   H5        1.0  0.2870776882060113  0.03237327426415959  0.5437250738908759  1.0000
  H   H6        1.0  0.711599299503476  0.9661276517763824  0.4568502531530214  1.0000
  H   H7        1.0  0.38134277245131193  0.0186442969055136  0.3349515888233014  1.0000
  H   H8        1.0  0.6163158982187085  0.9777709695389304  0.665677981357554  1.0000
  H   H9        1.0  0.6086577362213961  0.16629956217565933  0.9127995777019606  1.0000
  H   H10       1.0  0.3917161399305371  0.8344723167521835  0.08601819443436645  1.0000
  H   H11       1.0  0.7517090882767691  0.8671163585580427  0.25226672364728137  1.0000
  H   H12       1.0  0.24973716904930401  0.1335513263227881  0.7460389660080294  1.0000
  C   C1        1.0  0.0823259982589519  0.23773007647321978  0.3057502541052628  1.0000
  C   C2        1.0  0.91670688456464  0.7602867905278572  0.6946453179008998  1.0000
  C   C3        1.0  0.882669412290184  0.3660899217936803  0.3558211001787441  1.0000
  C   C4        1.0  0.11758680491145411  0.6336694351844726  0.6444194959533505  1.0000
  C   C5        1.0  0.830777391769736  0.37325464374994505  0.4736907600189397  1.0000
  C   C6        1.0  0.170012684775422  0.6273430730091079  0.5265514557774864  1.0000
  C   C7        1.0  0.9753639871440145  0.2537362875902645  0.541181249830835  1.0000
  C   C8        1.0  0.02477980427953251  0.746370588134958  0.4591838702680917  1.0000
  C   C9        1.0  0.1742796698870421  0.1274959330754797  0.4913707870190933  1.0000
  C   C10       1.0  0.8249144894545992  0.8713560699008909  0.5090816447727775  1.0000
  C   C11       1.0  0.22810458387056803  0.11927971638923651  0.3740303846333006  1.0000
  C   C12       1.0  0.770475464056709  0.8784303205392091  0.6264600233963691  1.0000
  S   S1        1.0  0.6768686738640711  0.5194761445198566  0.28000898980690897  1.0000
  S   S2        1.0  0.3234492818939287  0.4816937751029684  0.7206030331823001  1.0000
  O   O1        1.0  0.249896205549291  0.4291637656540173  0.0908604928547163  1.0000
  O   O2        1.0  0.7516441130774824  0.5683989503765047  0.9134201541722362  1.0000
  O   O3        1.0  0.03676381922323202  0.16235772145558505  0.0541857196820814  1.0000
  O   O4        1.0  0.9636921741427075  0.8386963872948882  0.9446007118646448  1.0000
  O   O5        1.0  0.45039576877785953  0.03937559791899051  0.13150752368650126  1.0000
  O   O6        1.0  0.5496407704423589  0.9596142650092004  0.8683757830245754  1.0000
  O   O7        1.0  0.8014446405605185  0.540685302139792  0.1624040434321543  1.0000
  O   O8        1.0  0.1975355738144274  0.4606558832991894  0.8380217800394049  1.0000
  O   O9        1.0  0.5053789273784021  0.42106483335078326  0.2759888429796433  1.0000
  O   O10       1.0  0.4937628203572826  0.5810055726053492  0.7254416103437364  1.0000
  O   O11       1.0  0.5976637442651977  0.7012803572511215  0.33724446428207244  1.0000
  O   O12       1.0  0.404645541687458  0.2997759020132377  0.6635536968276128  1.0000
  O   O13       1.0  0.6788205805994778  0.24578832371941667  0.9524796656514312  1.0000
  O   O14       1.0  0.32101526462395213  0.7579336069371719  0.04446638188984051  1.0000
  O   O15       1.0  0.8769664799140101  0.9055253418777555  0.20323021050127468  1.0000
  O   O16       1.0  0.12430919101866779  0.09442430507705518  0.7944911006934704  1.0000
