data_image0
_chemical_formula_structural       Zn2H38C58N6O8
_chemical_formula_sum              "Zn2 H38 C58 N6 O8"
_cell_length_a       9.18100520152049
_cell_length_b       10.378417583487654
_cell_length_c       14.2612
_cell_angle_alpha    76.97603203360038
_cell_angle_beta     71.6528273097978
_cell_angle_gamma    64.94375507709938

_space_group_name_H-M_alt    "P 1"
_space_group_IT_number       1

loop_
  _space_group_symop_operation_xyz
  'x, y, z'

loop_
  _atom_site_type_symbol
  _atom_site_label
  _atom_site_symmetry_multiplicity
  _atom_site_fract_x
  _atom_site_fract_y
  _atom_site_fract_z
  _atom_site_occupancy
  Zn  Zn1       1.0  0.5489644101557545  0.8067320547254866  0.8101026926680818  1.0000
  Zn  Zn2       1.0  0.451036436817887  0.1932667731146367  0.189896766972069  1.0000
  H   H1        1.0  0.362182758453379  0.7070540692736458  0.7058093366535731  1.0000
  H   H2        1.0  0.6378225488604059  0.2929372700941428  0.29419044725165133  1.0000
  H   H3        1.0  0.16713549829169239  0.574198942038322  0.7579624239914226  1.0000
  H   H4        1.0  0.8328741981526091  0.4257902577659465  0.2420396261901133  1.0000
  H   H5        1.0  0.0856918970151455  0.491055503499247  0.9363323119028522  1.0000
  H   H6        1.0  0.91431286583164  0.5089422545591162  0.06366933446982873  1.0000
  H   H7        1.0  0.18372687877447186  0.5501470386843081  0.061326520399497  1.0000
  H   H8        1.0  0.8162750445281333  0.4498571380646297  0.9386725451006656  1.0000
  H   H9        1.0  0.2592009111037895  0.6341751867405208  0.15633632641375783  1.0000
  H   H10       1.0  0.7407975695830302  0.3658289900084171  0.8436606318976702  1.0000
  H   H11       1.0  0.595916671385119  0.8276067062464989  0.15313817885255088  1.0000
  H   H12       1.0  0.4040797864580057  0.1723942611571516  0.846861819324346  1.0000
  H   H13       1.0  0.7861240926798346  0.8981224408674677  0.06016316485083449  1.0000
  H   H14       1.0  0.21387371372575356  0.1018806660997029  0.939836910358878  1.0000
  H   H15       1.0  0.0011840018223522898  0.9805138228278879  0.9344457591691652  1.0000
  H   H16       1.0  0.9988192114381105  0.019479656103421  0.06555339698665821  1.0000
  H   H17       1.0  0.03528303140154077  0.9843297343727783  0.7554756077435202  1.0000
  H   H18       1.0  0.9647218026548855  0.0156626747767703  0.24452479782118539  1.0000
  H   H19       1.0  0.8507364846646298  0.9032424163801808  0.7027752169947733  1.0000
  H   H20       1.0  0.14926645636234068  0.0967542718964225  0.297225571598041  1.0000
  H   H21       1.0  0.1183943774978999  0.7616172182603549  0.29496160905823393  1.0000
  H   H22       1.0  0.8816025536025975  0.2383826793615285  0.7050377674591887  1.0000
  H   H23       1.0  0.046164525026448175  0.746609249921903  0.4771616841702127  1.0000
  H   H24       1.0  0.9538309863019521  0.2533938570452676  0.5228374537158516  1.0000
  H   H25       1.0  0.26341967368203706  0.6845180466763168  0.5673278851458718  1.0000
  H   H26       1.0  0.7365749623412654  0.3154818509455666  0.43267195645442774  1.0000
  H   H27       1.0  0.556043186296172  0.6403660137969496  0.47198813177598714  1.0000
  H   H28       1.0  0.44395104767940535  0.3596296046978935  0.5280117918790809  1.0000
  H   H29       1.0  0.6282256409361792  0.6652266721630014  0.28849453685288756  1.0000
  H   H30       1.0  0.371769066296764  0.3347678765500746  0.711506868752494  1.0000
  H   H31       1.0  0.7261394910675488  0.7015757168706784  0.5204945864507026  1.0000
  H   H32       1.0  0.27386527177923636  0.2984220411876848  0.47950565751544627  1.0000
  H   H33       1.0  0.11241638782520623  0.378659952461291  0.648426378633097  1.0000
  H   H34       1.0  0.887582164071247  0.6213388753788323  0.3515742472932004  1.0000
  H   H35       1.0  0.6438780089893824  0.0109417278612653  0.6173175233268751  1.0000
  H   H36       1.0  0.3561201994639377  0.9890656582329527  0.38268317103133864  1.0000
  H   H37       1.0  0.20330450086142798  0.0314344672932592  0.5588934155184122  1.0000
  H   H38       1.0  0.796694381873117  0.968573988582719  0.44110696675457456  1.0000
  C   C1        1.0  0.3162875037953654  0.6721716953616053  0.7835853879240846  1.0000
  C   C2        1.0  0.6837159104889636  0.3278239231332307  0.21641407780598595  1.0000
  C   C3        1.0  0.2110604087995326  0.5976186043710214  0.812300355183453  1.0000
  C   C4        1.0  0.7889430054847962  0.4023770141238145  0.1877012141564194  1.0000
  C   C5        1.0  0.16376535454514138  0.5531017759108252  0.9129411750440113  1.0000
  C   C6        1.0  0.8362431231509289  0.4468927728022507  0.08706024487715072  1.0000
  C   C7        1.0  0.2181024017467834  0.5859986348726736  0.9823026411340551  1.0000
  C   C8        1.0  0.7818983740172173  0.4140055418762572  0.017697358110815662  1.0000
  C   C9        1.0  0.3212969478800929  0.6635535334873026  0.94739135957677  1.0000
  C   C10       1.0  0.6787043011412807  0.336449573479868  0.052607316805357074  1.0000
  C   C11       1.0  0.39106601088754894  0.703679977596444  0.012449074122976434  1.0000
  C   C12       1.0  0.6089336173378612  0.2963241991524939  0.9875490540535455  1.0000
  C   C13       1.0  0.34795667731239627  0.6842324149458747  0.11626843832494428  1.0000
  C   C14       1.0  0.6520413301170576  0.3157728315848161  0.8837291416459652  1.0000
  C   C15       1.0  0.4229403607823554  0.7281533749646698  0.16871607693530424  1.0000
  C   C16       1.0  0.5770567713420007  0.2718486622207408  0.8312836091563655  1.0000
  C   C17       1.0  0.5412253026221948  0.7873112366189687  0.11432661934082229  1.0000
  C   C18       1.0  0.4587718295021618  0.2126908005664419  0.8856744691573796  1.0000
  C   C19       1.0  0.5805264004177886  0.800760532930255  0.010818219274071292  1.0000
  C   C20       1.0  0.4194693119344777  0.1992447136004358  0.9891819293895097  1.0000
  C   C21       1.0  0.7078841179964073  0.8559281086124743  0.945227246275998  1.0000
  C   C22       1.0  0.29211855079705634  0.1440717890094163  0.05477447355055181  1.0000
  C   C23       1.0  0.8048097887134418  0.898822078139787  0.9805375417899929  1.0000
  C   C24       1.0  0.1951901117454682  0.1011788892638634  0.01946386237238329  1.0000
  C   C25       1.0  0.9233679908476159  0.9451083256342586  0.911022798407636  1.0000
  C   C26       1.0  0.07663447692198838  0.054889432424104705  0.088975807031602  1.0000
  C   C27       1.0  0.9441124825941997  0.9465236469053195  0.8097605887221211  1.0000
  C   C28       1.0  0.0558941732820415  0.0534698320259892  0.19023997341918186  1.0000
  C   C29       1.0  0.8416496665833507  0.9033397665205172  0.7809806056216857  1.0000
  C   C30       1.0  0.1583497606182007  0.0966622706648934  0.219020017793639  1.0000
  C   C31       1.0  0.37922350173849395  0.7143617484895515  0.27818694567751123  1.0000
  C   C32       1.0  0.6207709332609497  0.2856360095688046  0.721813287551804  1.0000
  C   C33       1.0  0.2153197613892531  0.736264460283806  0.3326749828180696  1.0000
  C   C34       1.0  0.7846746736101836  0.2637332977745572  0.6673266528177779  1.0000
  C   C35       1.0  0.1739863010024578  0.7286647306468836  0.4360629201889878  1.0000
  C   C36       1.0  0.8260099558168078  0.2713340971932396  0.5639381708201938  1.0000
  C   C37       1.0  0.2960065204099606  0.6935887262359302  0.48635298815084843  1.0000
  C   C38       1.0  0.7039915582291272  0.3064111713859603  0.5136468570283981  1.0000
  C   C39       1.0  0.4599617590673546  0.6691623992652325  0.4330544421197047  1.0000
  C   C40       1.0  0.5400359175240012  0.3308332192296106  0.5669440827077779  1.0000
  C   C41       1.0  0.5006675002566894  0.6818489411802418  0.3297090467359497  1.0000
  C   C42       1.0  0.49932551497064986  0.3181520262234017  0.6702902466587447  1.0000
  C   C43       1.0  0.8132126130024063  0.5969007808087525  0.6942432455296557  1.0000
  C   C44       1.0  0.1867856666605476  0.4031012563766581  0.305755506817313  1.0000
  C   C45       1.0  0.8456813830401089  0.6123238244708418  0.5105507585960113  1.0000
  C   C46       1.0  0.15431878965230084  0.3876739335875214  0.48945041553589874  1.0000
  C   C47       1.0  0.9103030481499345  0.5461171707870278  0.5939712019783414  1.0000
  C   C48       1.0  0.08969482946528731  0.4538805872713354  0.4060297360331831  1.0000
  C   C49       1.0  0.06556361783908222  0.43307868091013546  0.5828872707085893  1.0000
  C   C50       1.0  0.9344367558771935  0.5669212167117479  0.4171135117943122  1.0000
  C   C51       1.0  0.3186674682249162  0.0522256758368371  0.7055584832974305  1.0000
  C   C52       1.0  0.6813326332578596  0.9477774311303335  0.2944418280326673  1.0000
  C   C53       1.0  0.5815975680021807  0.0050172764635619  0.5658038610915883  1.0000
  C   C54       1.0  0.41840665037760516  0.9949869002853688  0.43419473932569735  1.0000
  C   C55       1.0  0.41434117909370377  0.0219722476087796  0.6000300031786807  1.0000
  C   C56       1.0  0.5856574314073413  0.9780394176124928  0.39996780431170725  1.0000
  C   C57       1.0  0.3338565777406046  0.0168458534054921  0.5328137646369202  1.0000
  C   C58       1.0  0.6661460198432253  0.9831593931252058  0.4671842875747529  1.0000
  N   N1        1.0  0.3686597904235427  0.7044438017744739  0.8494225542775312  1.0000
  N   N2        1.0  0.6313417308313303  0.2955560958474095  0.15057519087086754  1.0000
  N   N3        1.0  0.5042937458990834  0.7609935354931352  0.9628368171685581  1.0000
  N   N4        1.0  0.4957033150156391  0.23901385060108282  0.03716200612130651  1.0000
  N   N5        1.0  0.7264696432162836  0.8603249116541037  0.846839689614022  1.0000
  N   N6        1.0  0.2735304582664924  0.139678195313067  0.1531613229193454  1.0000
  O   O1        1.0  0.6793455521432534  0.7107523048247231  0.6913034216035001  1.0000
  O   O2        1.0  0.3206509056998711  0.2892486625789275  0.30869657657340355  1.0000
  O   O3        1.0  0.8618483777745424  0.5329524364244165  0.7712151741976286  1.0000
  O   O4        1.0  0.13815226817523305  0.46704425185217957  0.228783975868275  1.0000
  O   O5        1.0  0.40112471954890333  0.006079569753183  0.7740381964173437  1.0000
  O   O6        1.0  0.5988735601140505  0.9939224674322205  0.2259633607426822  1.0000
  O   O7        1.0  0.1658357819847112  0.1233190926092647  0.7230694033941633  1.0000
  O   O8        1.0  0.8341636452168332  0.8766829445761459  0.2769326224276866  1.0000
