data_image0
_chemical_formula_structural       Cd4H56C48N20O12
_chemical_formula_sum              "Cd4 H56 C48 N20 O12"
_cell_length_a       9.761014056104651
_cell_length_b       11.152680602912099
_cell_length_c       18.961722104630113
_cell_angle_alpha    105.24782945326973
_cell_angle_beta     104.92430618469325
_cell_angle_gamma    89.98946417613463

_space_group_name_H-M_alt    "P 1"
_space_group_IT_number       1

loop_
  _space_group_symop_operation_xyz
  'x, y, z'

loop_
  _atom_site_type_symbol
  _atom_site_label
  _atom_site_symmetry_multiplicity
  _atom_site_fract_x
  _atom_site_fract_y
  _atom_site_fract_z
  _atom_site_occupancy
  Cd  Cd1       1.0  0.454697904903973  0.6284342292996214  0.5775909124179248  1.0000
  Cd  Cd2       1.0  0.877068821870857  0.8715086934203385  0.4224648281539059  1.0000
  Cd  Cd3       1.0  0.5453007868365063  0.37156462578801813  0.4224066724516716  1.0000
  Cd  Cd4       1.0  0.12293053136806986  0.12849294291169136  0.5775368094598506  1.0000
  H   H1        1.0  0.646824315656829  0.08504819039318082  0.9409671723539148  1.0000
  H   H2        1.0  0.7063826604973825  0.415170235526304  0.05892961202092538  1.0000
  H   H3        1.0  0.35316833665970654  0.9149460073875844  0.059029291845682404  1.0000
  H   H4        1.0  0.2936307482030357  0.5848313988339059  0.9410722843691842  1.0000
  H   H5        1.0  0.6198565986279332  0.9697664047652739  0.8078939015365093  1.0000
  H   H6        1.0  0.8123599244908987  0.5303911928947399  0.19203940159042068  1.0000
  H   H7        1.0  0.3801356660717373  0.03022779040274771  0.19210323137082236  1.0000
  H   H8        1.0  0.18764920517996592  0.4696141662043445  0.8079638278844072  1.0000
  H   H9        1.0  0.30582208140997846  0.7137277719174336  0.8205025410550418  1.0000
  H   H10       1.0  0.48524625454677295  0.7861457227321862  0.17947708249265995  1.0000
  H   H11       1.0  0.6941695762434107  0.2862701499845599  0.17949535645357156  1.0000
  H   H12       1.0  0.5147570144601304  0.21385126650622505  0.8205206758270477  1.0000
  H   H13       1.0  0.3306701820991264  0.8266101816591915  0.9540624775033705  1.0000
  H   H14       1.0  0.37661319658164416  0.6732737418982141  0.04589174022805044  1.0000
  H   H15       1.0  0.6693222380753169  0.17338587712520595  0.04593496664417522  1.0000
  H   H16       1.0  0.6233990456667085  0.3267288500177727  0.9541038087222302  1.0000
  H   H17       1.0  0.5114718566545163  0.3601726219149413  0.633170858360195  1.0000
  H   H18       1.0  0.8780618902807189  0.1400932045816887  0.36685102220364013  1.0000
  H   H19       1.0  0.48852488535904803  0.6398290081940415  0.3668324009107449  1.0000
  H   H20       1.0  0.12193966114136155  0.8599046986744485  0.6331514305694554  1.0000
  H   H21       1.0  0.33887082449640354  0.1478946379243453  0.4562364697044642  1.0000
  H   H22       1.0  0.8822291904771757  0.3521706067927611  0.5438645113061182  1.0000
  H   H23       1.0  0.6611329505341741  0.8521032689420877  0.5437650301191821  1.0000
  H   H24       1.0  0.11776671127795166  0.6478319546256301  0.4561390457057826  1.0000
  H   H25       1.0  0.21058328028756512  0.5448676218879245  0.6315399737460508  1.0000
  H   H26       1.0  0.5790779992822123  0.955100415296336  0.36837067801576495  1.0000
  H   H27       1.0  0.7894189163188089  0.45513215966352766  0.3684590622625662  1.0000
  H   H28       1.0  0.420924417823649  0.044900293336581895  0.6316297089075746  1.0000
  H   H29       1.0  0.14297317266748885  0.4104789861682008  0.6387692588659775  1.0000
  H   H30       1.0  0.5041494901582837  0.08948966300422971  0.36114930490560937  1.0000
  H   H31       1.0  0.8570300846968093  0.5895207911553088  0.36123083031640124  1.0000
  H   H32       1.0  0.49585140083541296  0.910510115435699  0.6388505419316032  1.0000
  H   H33       1.0  0.8774323878830684  0.4816608712462128  0.69035698084474  1.0000
  H   H34       1.0  0.18686301809813693  0.018236968553424004  0.3097227638906687  1.0000
  H   H35       1.0  0.12257010696017544  0.5183407691948929  0.30964356169870644  1.0000
  H   H36       1.0  0.813137718490857  0.9817656026983173  0.6902782185145994  1.0000
  H   H37       1.0  0.9415945942015893  0.33858925359167097  0.7079053893780624  1.0000
  H   H38       1.0  0.23362478997091782  0.1612348962631316  0.29217071213450646  1.0000
  H   H39       1.0  0.0584042286583752  0.6614123848543372  0.2920957216488134  1.0000
  H   H40       1.0  0.7663735802474746  0.8387676761050286  0.7078300279255954  1.0000
  H   H41       1.0  0.8875171145829127  0.4524446693094363  0.7796098251249218  1.0000
  H   H42       1.0  0.10765595804305406  0.04753236358290991  0.2204891693299018  1.0000
  H   H43       1.0  0.11248309162711931  0.5475579040562835  0.2203906306934726  1.0000
  H   H44       1.0  0.8923427870795279  0.9524683430549106  0.7795117860768668  1.0000
  H   H45       1.0  0.5804487452421581  0.2031959739023677  0.677033146786897  1.0000
  H   H46       1.0  0.9036577112367323  0.29717959008109324  0.32309512498192544  1.0000
  H   H47       1.0  0.4195529743673632  0.7968056613132364  0.3229687331720186  1.0000
  H   H48       1.0  0.09633865480257937  0.7028192493300481  0.6769064721340782  1.0000
  H   H49       1.0  0.7403884594224692  0.22191331853788648  0.7511339065292687  1.0000
  H   H50       1.0  0.9894610770591966  0.2782321870329413  0.2489721938535253  1.0000
  H   H51       1.0  0.25961479901189216  0.7780911152138048  0.24886762946137955  1.0000
  H   H52       1.0  0.01053499181331574  0.7217694499167352  0.7510293435359188  1.0000
  H   H53       1.0  0.7454096661159113  0.1594722302287224  0.6549201417054816  1.0000
  H   H54       1.0  0.09077201221064254  0.3405659095223185  0.34517811035188106  1.0000
  H   H55       1.0  0.25459412269741216  0.8405322014089976  0.34508192087204037  1.0000
  H   H56       1.0  0.9092245093034418  0.6594347935051984  0.6548237980043365  1.0000
  C   C1        1.0  0.49132657480282665  0.9660265601674071  0.9596277371458156  1.0000
  C   C2        1.0  0.5318364831118102  0.5339645594076361  0.040355759543530115  1.0000
  C   C3        1.0  0.508665767634234  0.03396856680880231  0.040369551381623035  1.0000
  C   C4        1.0  0.4681773248480778  0.466034289480234  0.9596431372761811  1.0000
  C   C5        1.0  0.4470303035895069  0.7625382928660116  0.7250403165632304  1.0000
  C   C6        1.0  0.7219161884933457  0.7374074893949043  0.27495471015944145  1.0000
  C   C7        1.0  0.5529601505438677  0.23745963799065348  0.27495533247702025  1.0000
  C   C8        1.0  0.2780858537083262  0.2625950849683605  0.7250454614172313  1.0000
  C   C9        1.0  0.4604328572271326  0.8344799893636788  0.8053179330593634  1.0000
  C   C10       1.0  0.6552210214756186  0.6654760385362906  0.19464810946517005  1.0000
  C   C11       1.0  0.5395608685599881  0.16551607253224182  0.1946787002595939  1.0000
  C   C12       1.0  0.3447835298587519  0.3345265299838331  0.8053534997512769  1.0000
  C   C13       1.0  0.5709969765058387  0.0038987978050997003  0.9158597233691593  1.0000
  C   C14       1.0  0.6554818395321148  0.49619197838353557  0.08405888628271176  1.0000
  C   C15       1.0  0.4289954553112096  0.9960944728942068  0.08413538991571552  1.0000
  C   C16       1.0  0.34453035293562106  0.503807796588248  0.9159416456934294  1.0000
  C   C17       1.0  0.5563853535243551  0.9395571174738961  0.8405325881663258  1.0000
  C   C18       1.0  0.7161500408830078  0.5605227106604858  0.15939777382334328  1.0000
  C   C19       1.0  0.4436101305170226  0.060438013611388904  0.15946360529080283  1.0000
  C   C20       1.0  0.28385603656352737  0.4394807880526203  0.8406043754792307  1.0000
  C   C21       1.0  0.3793828852469615  0.7961988469081048  0.8476657086467866  1.0000
  C   C22       1.0  0.5317416556852307  0.7037317977011168  0.15231401111347495  1.0000
  C   C23       1.0  0.6206087840490397  0.20379628690879772  0.15232985799916307  1.0000
  C   C24       1.0  0.46826360478807777  0.2962670561512226  0.8476837742047252  1.0000
  C   C25       1.0  0.39486097986542024  0.8604175582433627  0.923103073675854  1.0000
  C   C26       1.0  0.4718177744888478  0.6395272774564376  0.0768776544227733  1.0000
  C   C27       1.0  0.6051329653511174  0.13957477430583506  0.07689346374954903  1.0000
  C   C28       1.0  0.5281913911799022  0.36047437381556346  0.9231200292723185  1.0000
  C   C29       1.0  0.6163642059950333  0.4130807393852862  0.6542129182981852  1.0000
  C   C30       1.0  0.9619641411346576  0.08713562198880001  0.34589308256205675  1.0000
  C   C31       1.0  0.3836308809270008  0.5869264900287163  0.34578916834589524  1.0000
  C   C32       1.0  0.03803545802909968  0.9128706781108918  0.6541081378576266  1.0000
  C   C33       1.0  0.2361312648860832  0.3917781145372174  0.5549753869331653  1.0000
  C   C34       1.0  0.6810547795300507  0.10821593786429419  0.4449827203480935  1.0000
  C   C35       1.0  0.7638713066244873  0.6082198012838873  0.44502386442211855  1.0000
  C   C36       1.0  0.3189439655925312  0.8917847687735262  0.5550182350586751  1.0000
  C   C37       1.0  0.3165407981970105  0.2408628965324837  0.48482851762586415  1.0000
  C   C38       1.0  0.8314244062774562  0.2591831714869031  0.5152420059035662  1.0000
  C   C39       1.0  0.6834633644504321  0.7591350129467003  0.5151723134900478  1.0000
  C   C40       1.0  0.16857196083191875  0.7408203243524271  0.4847610380207143  1.0000
  C   C41       1.0  0.8655325385647216  0.40914640322758794  0.7180974728650182  1.0000
  C   C42       1.0  0.147294049064179  0.0907977172505099  0.282005561108889  1.0000
  C   C43       1.0  0.1344662192705357  0.5908561717533302  0.28190259848734905  1.0000
  C   C44       1.0  0.8527039335373554  0.9092048525049063  0.7179958476589474  1.0000
  C   C45       1.0  0.6951874907448355  0.22682367334745387  0.6925550480751993  1.0000
  C   C46       1.0  0.0028019223896010147  0.27334501696118724  0.3075460393138556  1.0000
  C   C47       1.0  0.3048146942189334  0.7731788962890888  0.3074463187960886  1.0000
  C   C48       1.0  0.9971944436497109  0.7266538224499542  0.6924555578021481  1.0000
  N   N1        1.0  0.3257758492090518  0.44286652835456414  0.5258520717791413  1.0000
  N   N2        1.0  0.7998784654162421  0.05716831240162179  0.47413792139224836  1.0000
  N   N3        1.0  0.6742273304178638  0.5571323171607575  0.47414786178312324  1.0000
  N   N4        1.0  0.2001213531769324  0.9428342583513466  0.5258632031338806  1.0000
  N   N5        1.0  0.7209518220230604  0.35226141379185805  0.6875930681793746  1.0000
  N   N6        1.0  0.03329883740163091  0.14785955956910607  0.3125302711729957  1.0000
  N   N7        1.0  0.2790474661911587  0.647741159075082  0.3124075297598806  1.0000
  N   N8        1.0  0.966699520104093  0.852141144455963  0.6874713529415072  1.0000
  N   N9        1.0  0.22656850268916176  0.2649790217996681  0.5298910791817733  1.0000
  N   N10       1.0  0.6964394477820406  0.23500327489205827  0.47011082388898007  1.0000
  N   N11       1.0  0.7734362030499182  0.7350207539086356  0.4701093944666183  1.0000
  N   N12       1.0  0.30355845708211143  0.76499836305517  0.5298904292587563  1.0000
  N   N13       1.0  0.3774174129438208  0.3442760752654337  0.4808401364450318  1.0000
  N   N14       1.0  0.8964259162713686  0.15579788043403653  0.5192211782584903  1.0000
  N   N15       1.0  0.6225856889457047  0.6557218384416927  0.5191596414971257  1.0000
  N   N16       1.0  0.10357052857539625  0.8442065472134812  0.48078202128589703  1.0000
  N   N17       1.0  0.16159380709105875  0.4584522714278166  0.6023288504452964  1.0000
  N   N18       1.0  0.5592245179764602  0.04149647757934359  0.397588996135191  1.0000
  N   N19       1.0  0.8384088421568944  0.5415465762014691  0.39767055653008737  1.0000
  N   N20       1.0  0.4407769811335809  0.9585042305547946  0.6024115329090022  1.0000
  O   O1        1.0  0.5373786687625495  0.7905283511973876  0.6921902983598682  1.0000
  O   O2        1.0  0.8452677025742688  0.7096267112689318  0.3078172848054875  1.0000
  O   O3        1.0  0.46261801879884246  0.20946677093322566  0.30780814356562297  1.0000
  O   O4        1.0  0.15473256866047794  0.29037492556187067  0.6921842106874081  1.0000
  O   O5        1.0  0.6341755212338779  0.5197691101874041  0.6468175760345927  1.0000
  O   O6        1.0  0.9871457320688678  0.9804578083156699  0.3533376425525529  1.0000
  O   O7        1.0  0.36581815584268174  0.4802287911925022  0.35318548711848047  1.0000
  O   O8        1.0  0.012858185723807525  0.019540093824041104  0.6466650525657016  1.0000
  O   O9        1.0  0.34882162287918544  0.6760068663851301  0.6922987661464289  1.0000
  O   O10       1.0  0.6561708832725514  0.8237122909002323  0.3076821743604297  1.0000
  O   O11       1.0  0.6511651069588706  0.32399386735443875  0.3076955276483557  1.0000
  O   O12       1.0  0.3438304730753928  0.1762884219606278  0.6923171593891553  1.0000
