data_image0
_chemical_formula_structural       Mg4H72C32O28
_chemical_formula_sum              "Mg4 H72 C32 O28"
_cell_length_a       7.9904423670219025
_cell_length_b       9.026383209180379
_cell_length_c       15.873385431456073
_cell_angle_alpha    103.82280956514445
_cell_angle_beta     89.99972932124236
_cell_angle_gamma    90.00006043810879

_space_group_name_H-M_alt    "P 1"
_space_group_IT_number       1

loop_
  _space_group_symop_operation_xyz
  'x, y, z'

loop_
  _atom_site_type_symbol
  _atom_site_label
  _atom_site_symmetry_multiplicity
  _atom_site_fract_x
  _atom_site_fract_y
  _atom_site_fract_z
  _atom_site_occupancy
  Mg  Mg1       1.0  0.8675824412776547  0.303722674663682  0.3702591427503918  1.0000
  Mg  Mg2       1.0  0.6324180489061532  0.8037207476432828  0.370259288351498  1.0000
  Mg  Mg3       1.0  0.13241690181244783  0.6962774730333124  0.6297408943877014  1.0000
  Mg  Mg4       1.0  0.3675825456761288  0.19627939391088492  0.6297413779267416  1.0000
  H   H1        1.0  0.79271548776547  0.7672131009707005  0.168653089385792  1.0000
  H   H2        1.0  0.7072906208217589  0.267212756029899  0.1686536360552466  1.0000
  H   H3        1.0  0.20728385532169108  0.23278589969515212  0.8313474184990638  1.0000
  H   H4        1.0  0.2927124767538912  0.7327862507785313  0.83134624268353  1.0000
  H   H5        1.0  0.9871065544058552  0.8620954010001186  0.164826042765867  1.0000
  H   H6        1.0  0.5128984565305499  0.36208708919355814  0.1648259414041107  1.0000
  H   H7        1.0  0.012895291677565998  0.13790475283952466  0.8351733652276252  1.0000
  H   H8        1.0  0.4871021380517816  0.6379119114722299  0.8351745664792674  1.0000
  H   H9        1.0  0.8489801448741473  0.039608816707833214  0.0866363238630399  1.0000
  H   H10       1.0  0.6510214522999149  0.5396068755498646  0.0866376836562992  1.0000
  H   H11       1.0  0.1510154437304578  0.9603913309893528  0.9133637132795015  1.0000
  H   H12       1.0  0.34898039378056467  0.4603921312586295  0.9133621950839625  1.0000
  H   H13       1.0  0.6572441355827576  0.9423408871961956  0.08669581162426711  1.0000
  H   H14       1.0  0.8427567087208558  0.4423393940230299  0.08669524967912422  1.0000
  H   H15       1.0  0.3427527045111346  0.05765696643862842  0.9133051670103356  1.0000
  H   H16       1.0  0.15724388586739477  0.5576607598166706  0.9133041583158459  1.0000
  H   H17       1.0  0.9810866284042346  0.7993672394753305  0.999026489165665  1.0000
  H   H18       1.0  0.5189141595502491  0.29936806646223607  0.9990263824165664  1.0000
  H   H19       1.0  0.018911463184778696  0.20063175504781586  0.0009746478623143017  1.0000
  H   H20       1.0  0.48108643503501713  0.7006320812347016  0.0009736547200418087  1.0000
  H   H21       1.0  0.7923395382012329  0.6999189792668477  0.0013455205975177174  1.0000
  H   H22       1.0  0.7076593108875642  0.1999175056861376  0.001344649706389604  1.0000
  H   H23       1.0  0.2076585533907647  0.3000800213990687  0.9986549872888232  1.0000
  H   H24       1.0  0.29234003220552296  0.8000826481536267  0.9986547582900654  1.0000
  H   H25       1.0  0.84409345485291  0.9695205274470029  0.9171037039908682  1.0000
  H   H26       1.0  0.6559045653098181  0.469522475541133  0.9171040600903169  1.0000
  H   H27       1.0  0.15590463673912316  0.030477332330526997  0.082896645500611  1.0000
  H   H28       1.0  0.34409477777725767  0.5304788069014779  0.08289676458427661  1.0000
  H   H29       1.0  0.6486636315729014  0.8840681146818314  0.925470558752977  1.0000
  H   H30       1.0  0.851335454938038  0.3840689024312668  0.9254702932627623  1.0000
  H   H31       1.0  0.3513357115142171  0.11593202687240023  0.0745301075267548  1.0000
  H   H32       1.0  0.14866263665685148  0.615932386154171  0.07452990227167787  1.0000
  H   H33       1.0  0.7615499954828522  0.6324272295254333  0.8400720193879536  1.0000
  H   H34       1.0  0.7384470848436777  0.13242803465627878  0.8400713923135186  1.0000
  H   H35       1.0  0.2384480961091455  0.36757177114048295  0.15992848849839447  1.0000
  H   H36       1.0  0.2615510067541535  0.8675744009603081  0.15992833247415214  1.0000
  H   H37       1.0  0.9543854904415168  0.7205611558629246  0.8275874841951066  1.0000
  H   H38       1.0  0.5456168233271228  0.2205608331603415  0.8275877849058801  1.0000
  H   H39       1.0  0.0456151041437991  0.2794378509456339  0.1724123945466403  1.0000
  H   H40       1.0  0.4543837712610851  0.7794404615677453  0.17241178148395866  1.0000
  H   H41       1.0  0.6222577957623514  0.8320481437119158  0.7682467323667551  1.0000
  H   H42       1.0  0.8777427151483933  0.3320512044664099  0.7682473502210313  1.0000
  H   H43       1.0  0.3777427988258991  0.16795201012779165  0.23175267562821486  1.0000
  H   H44       1.0  0.12225913093191558  0.6679523658956017  0.23175316209869123  1.0000
  H   H45       1.0  0.8298359362127881  0.883313158494069  0.7440871441688657  1.0000
  H   H46       1.0  0.6701636155384775  0.38330941301233434  0.7440854162167767  1.0000
  H   H47       1.0  0.1701634068742948  0.11668812394854206  0.2559136805057207  1.0000
  H   H48       1.0  0.32983697904968773  0.6166930226041247  0.255914308567931  1.0000
  H   H49       1.0  0.617733882313459  0.12697693677499444  0.3606285595349162  1.0000
  H   H50       1.0  0.8822702344884161  0.6269772727999623  0.3606278006069701  1.0000
  H   H51       1.0  0.38226671227180725  0.8730232109219432  0.639371477601692  1.0000
  H   H52       1.0  0.11773161159509019  0.37302059926292236  0.6393712905967988  1.0000
  H   H53       1.0  0.5299828858963237  0.2919607617891203  0.3631796470403613  1.0000
  H   H54       1.0  0.9700201597532467  0.7919622422518985  0.3631775802442547  1.0000
  H   H55       1.0  0.4700189601811288  0.7080393797649834  0.6368210192364003  1.0000
  H   H56       1.0  0.029980434832019398  0.20803790544503906  0.6368224568923538  1.0000
  H   H57       1.0  0.8520231849786056  0.5139505800091513  0.5389375676384063  1.0000
  H   H58       1.0  0.6479791031689714  0.013949100084609306  0.5389380964843085  1.0000
  H   H59       1.0  0.1479774096066606  0.4860495676877863  0.4610624694982022  1.0000
  H   H60       1.0  0.3520227429084812  0.9860510414694946  0.4610625697924533  1.0000
  H   H61       1.0  0.7187280270285469  0.542392874925966  0.4706985857125261  1.0000
  H   H62       1.0  0.7812749425845951  0.042392522619415715  0.4706989570260092  1.0000
  H   H63       1.0  0.28127131606159844  0.45760613188264915  0.5293012930306985  1.0000
  H   H64       1.0  0.21872690348689616  0.9576076066491555  0.5293029675340222  1.0000
  H   H65       1.0  0.038846996688541  0.07434624068337571  0.41444181903438687  1.0000
  H   H66       1.0  0.46115558999987627  0.574343121618526  0.4144429145182542  1.0000
  H   H67       1.0  0.9611510949063983  0.9256539070136901  0.5855582181051844  1.0000
  H   H68       1.0  0.5388450045853472  0.42565816696679093  0.5855572810132228  1.0000
  H   H69       1.0  0.023908814857186697  0.20453327257834536  0.5023436369294458  1.0000
  H   H70       1.0  0.4760918492955496  0.7045335931198481  0.5023432847698857  1.0000
  H   H71       1.0  0.9760905282299319  0.7954668689758789  0.4976570293502788  1.0000
  H   H72       1.0  0.523907493794553  0.2954665545771534  0.4976567523682077  1.0000
  C   C1        1.0  0.8070486236009059  0.9942456461104857  0.24869838506563013  1.0000
  C   C2        1.0  0.6929469964249079  0.4942533133868921  0.2486975579163797  1.0000
  C   C3        1.0  0.19295197098730196  0.005755648617601102  0.7513011813242088  1.0000
  C   C4        1.0  0.3070548496615757  0.5057445648187625  0.7513009041457508  1.0000
  C   C5        1.0  0.8504282655436979  0.8765290681134844  0.16645021057383497  1.0000
  C   C6        1.0  0.6495767478977824  0.3765252939677311  0.16645167712988504  1.0000
  C   C7        1.0  0.14957358053678146  0.12346993869500981  0.8335496681664267  1.0000
  C   C8        1.0  0.3504250981827396  0.6234725719523839  0.8335480432155151  1.0000
  C   C9        1.0  0.7943629494504449  0.926994057602336  0.08522521222015908  1.0000
  C   C10       1.0  0.7056378897468463  0.4269937005402797  0.0852270210838171  1.0000
  C   C11       1.0  0.2056338906553776  0.07300382060356012  0.9147732498479043  1.0000
  C   C12       1.0  0.29436270483846266  0.5730053062682787  0.9147728576579297  1.0000
  C   C13       1.0  0.8438311260019659  0.8132768038717162  0.0012567354245618116  1.0000
  C   C14       1.0  0.6561691159180185  0.3132775987657013  0.0012581907880217951  1.0000
  C   C15       1.0  0.15616571410385657  0.18672107433418725  0.9987417266435017  1.0000
  C   C16       1.0  0.3438302271720842  0.6867225489313001  0.9987418463500717  1.0000
  C   C17       1.0  0.7844421075979183  0.8606994563900731  0.9201029374285241  1.0000
  C   C18       1.0  0.7155570007738489  0.36070139240271004  0.9201037812870396  1.0000
  C   C19       1.0  0.21555598399710618  0.13929840953023392  0.0798967829213169  1.0000
  C   C20       1.0  0.2844410908210405  0.6392998961827274  0.0798964142474006  1.0000
  C   C21       1.0  0.8191501470494557  0.7414774376789952  0.836070149630707  1.0000
  C   C22       1.0  0.6808496093204255  0.24147823011585964  0.836071546497692  1.0000
  C   C23       1.0  0.18084794454552616  0.2585215691296839  0.1639297291140025  1.0000
  C   C24       1.0  0.31914973376959205  0.7585241993578935  0.1639288074301319  1.0000
  C   C25       1.0  0.7515247626093783  0.790705007370619  0.7562659941296843  1.0000
  C   C26       1.0  0.7484770620035305  0.2907057930748494  0.7562672307134548  1.0000
  C   C27       1.0  0.24847583197887965  0.20929514646908845  0.24373341386529285  1.0000
  C   C28       1.0  0.251523532587619  0.7092966486843795  0.2437318649296145  1.0000
  C   C29       1.0  0.7531770285109615  0.6581857597295979  0.6771916990631225  1.0000
  C   C30       1.0  0.7468191231870093  0.15818311679070265  0.6771930935267393  1.0000
  C   C31       1.0  0.24681730859259687  0.3418120939053538  0.32280927957444316  1.0000
  C   C32       1.0  0.2531852258748515  0.8418158715893613  0.3228086726354604  1.0000
  O   O1        1.0  0.8735036716491605  0.1252033422368228  0.2609909451684587  1.0000
  O   O2        1.0  0.6265038894861732  0.6251865781138691  0.2609896748036604  1.0000
  O   O3        1.0  0.12649567144094215  0.8747968054601715  0.7390090919696349  1.0000
  O   O4        1.0  0.37349795659434887  0.37481128780624573  0.7390100455417395  1.0000
  O   O5        1.0  0.7008702521083235  0.9594863836679867  0.3011883557005035  1.0000
  O   O6        1.0  0.7991410971726792  0.4594848518381697  0.3011923011338027  1.0000
  O   O7        1.0  0.2991328454672768  0.040513764028823104  0.6988116814331418  1.0000
  O   O8        1.0  0.20085824592342755  0.5405141672559851  0.6988063193261596  1.0000
  O   O9        1.0  0.8918691295530079  0.6159914450719698  0.638890676906712  1.0000
  O   O10       1.0  0.6081348415365967  0.11599455723884942  0.6388894172034866  1.0000
  O   O11       1.0  0.10813772249910157  0.38400982508472487  0.361111406042248  1.0000
  O   O12       1.0  0.39186325006136963  0.8840044557125994  0.3611098323995918  1.0000
  O   O13       1.0  0.6153199029286469  0.5903007641890953  0.652892901083554  1.0000
  O   O14       1.0  0.8846776461965077  0.09028891284810922  0.6528996222056662  1.0000
  O   O15       1.0  0.3846856976459846  0.409706247266172  0.3471061989914048  1.0000
  O   O16       1.0  0.1153179424079696  0.9097146575142149  0.34710089012146744  1.0000
  O   O17       1.0  0.6152070367147359  0.2376052174807271  0.3913405686842211  1.0000
  O   O18       1.0  0.8847956748796972  0.7376032776202095  0.3913388578376312  1.0000
  O   O19       1.0  0.38479230637234  0.7623960649618767  0.6086602559903653  1.0000
  O   O20       1.0  0.11520491970851049  0.26239801710787003  0.6086607085522076  1.0000
  O   O21       1.0  0.814453568378191  0.4770243168869899  0.4774409516100491  1.0000
  O   O22       1.0  0.6855486246088062  0.977023525465576  0.4774411296818215  1.0000
  O   O23       1.0  0.18554452321379958  0.5229746837789193  0.5225595562762919  1.0000
  O   O24       1.0  0.31445322146864635  0.022976616088527607  0.5225595365949331  1.0000
  O   O25       1.0  0.9644677371076822  0.15788596298167337  0.4470492538449307  1.0000
  O   O26       1.0  0.5355330966233112  0.6578851926379414  0.4470491583293351  1.0000
  O   O27       1.0  0.035531605982463084  0.8421130438269416  0.552950624898294  1.0000
  O   O28       1.0  0.4644674979650246  0.342112679425  0.5529499328759115  1.0000
