data_image0
_chemical_formula_structural       Na4H28C8N16O8
_chemical_formula_sum              "Na4 H28 C8 N16 O8"
_cell_length_a       6.937487549005459
_cell_length_b       6.8609367250056215
_cell_length_c       11.993369411018078
_cell_angle_alpha    90.00014362684315
_cell_angle_beta     89.99985784059344
_cell_angle_gamma    90.00000322918181

_space_group_name_H-M_alt    "P 1"
_space_group_IT_number       1

loop_
  _space_group_symop_operation_xyz
  'x, y, z'

loop_
  _atom_site_type_symbol
  _atom_site_label
  _atom_site_symmetry_multiplicity
  _atom_site_fract_x
  _atom_site_fract_y
  _atom_site_fract_z
  _atom_site_occupancy
  Na  Na1       1.0  0.13990357457876  0.25000095325437843  0.7241143570480659  1.0000
  Na  Na2       1.0  0.36009529552808334  0.7500015927259014  0.2241157897780326  1.0000
  Na  Na3       1.0  0.8600946414952659  0.750001738938238  0.2758831984378176  1.0000
  Na  Na4       1.0  0.6399043619846552  0.250001099472179  0.7758842670889408  1.0000
  H   H1        1.0  0.9280677520178389  0.9207258608495364  0.7764632025169432  1.0000
  H   H2        1.0  0.5719341318883268  0.07927843757337169  0.276463236731999  1.0000
  H   H3        1.0  0.0719347839053626  0.42072583370656946  0.2235362705758064  1.0000
  H   H4        1.0  0.42806120577873946  0.5792781673114857  0.7235332349421526  1.0000
  H   H5        1.0  0.0719362298287578  0.07927683134705887  0.22353602055284938  1.0000
  H   H6        1.0  0.42806840851778116  0.9207242546195431  0.723534318750751  1.0000
  H   H7        1.0  0.9280605492735248  0.5792768584929959  0.7764646200883404  1.0000
  H   H8        1.0  0.5719355688547837  0.4207259824043774  0.2764626529577541  1.0000
  H   H9        1.0  0.8268469172609019  0.9244189767168507  0.6597754694787454  1.0000
  H   H10       1.0  0.6731554623612226  0.07558336371464242  0.1597753516178528  1.0000
  H   H11       1.0  0.17315706000944436  0.4244180067628775  0.34022400902075134  1.0000
  H   H12       1.0  0.32683699251471415  0.5755850371926456  0.8402211146484575  1.0000
  H   H13       1.0  0.17315850602614094  0.0755866305372734  0.3402254211802287  1.0000
  H   H14       1.0  0.3268456365973336  0.9244178709548265  0.8402238714529631  1.0000
  H   H15       1.0  0.826838273171191  0.575586142961825  0.6597760478504213  1.0000
  H   H16       1.0  0.6731568992272302  0.42441765499965817  0.1597764408405524  1.0000
  H   H17       1.0  0.370778058004099  0.25000259606018455  0.1232630233565857  1.0000
  H   H18       1.0  0.12922700630298325  0.7499951448117128  0.6232715100685482  1.0000
  H   H19       1.0  0.6292244823985839  0.749991350974767  0.8767361997078496  1.0000
  H   H20       1.0  0.8707755340748521  0.25000317482903966  0.37673938611572316  1.0000
  H   H21       1.0  0.3953326471988562  0.12114888574005529  0.9956107595528964  1.0000
  H   H22       1.0  0.10467227673544241  0.8788417069398449  0.4956194214312006  1.0000
  H   H23       1.0  0.6046655722543051  0.6211368108202323  0.004387441016874  1.0000
  H   H24       1.0  0.8953317017093028  0.3788546604815437  0.5043899958602296  1.0000
  H   H25       1.0  0.6046670103211228  0.8788421462354775  0.004385962129362  1.0000
  H   H26       1.0  0.8953317050918059  0.1211507825879536  0.5043889733656286  1.0000
  H   H27       1.0  0.3953312023776335  0.37885276362818127  0.9956092806664003  1.0000
  H   H28       1.0  0.1046722801178745  0.621143659153951  0.49561839894086296  1.0000
  C   C1        1.0  0.11910646642614613  0.2500009073318168  0.0237115318345005  1.0000
  C   C2        1.0  0.3808961379142205  0.7499964065672913  0.5237179862984149  1.0000
  C   C3        1.0  0.8809003983103951  0.7499930397016497  0.9762868574327542  1.0000
  C   C4        1.0  0.6191020781421342  0.2500033705893543  0.4762879071257871  1.0000
  C   C5        1.0  0.3317035807025662  0.2500009465652581  0.0350276305965025  1.0000
  C   C6        1.0  0.16829897555680165  0.7499920432947176  0.5350377282796686  1.0000
  C   C7        1.0  0.668294635375176  0.7499886278814645  0.9649682572916802  1.0000
  C   C8        1.0  0.8317078891584873  0.2500019037602073  0.46497066651613034  1.0000
  N   N1        1.0  0.0191908539092154  0.2500013808445941  0.9274701418402601  1.0000
  N   N2        1.0  0.480801386515708  0.7499991222627924  0.42747390104626254  1.0000
  N   N3        1.0  0.9808001549429335  0.7499983962954531  0.0725282474427544  1.0000
  N   N4        1.0  0.5191939466614457  0.2500006548847082  0.572527823409807  1.0000
  N   N5        1.0  0.8320859432936062  0.2500015019207851  0.9572443382748405  1.0000
  N   N6        1.0  0.6679122897239795  0.750003571859274  0.45724521567824183  1.0000
  N   N7        1.0  0.16790938989409915  0.7500041053236899  0.042752383421216705  1.0000
  N   N8        1.0  0.3320859263482562  0.2500005778620462  0.5427531736027547  1.0000
  N   N9        1.0  0.8187948369743481  0.2500010498911465  0.0672200658024806  1.0000
  N   N10       1.0  0.6812108187332271  0.7500052661573662  0.5672193054660681  1.0000
  N   N11       1.0  0.18120482054366965  0.7500045573554173  0.9327774896844901  1.0000
  N   N12       1.0  0.3187946045591162  0.25000179861831373  0.43277908381183744  1.0000
  N   N13       1.0  0.9981579479734182  0.24999969968352076  0.1113768347098372  1.0000
  N   N14       1.0  0.5018547273606657  0.7500009756485042  0.6113788356396058  1.0000
  N   N15       1.0  0.0018460338732353002  0.7499986199322991  0.8886223883567581  1.0000
  N   N16       1.0  0.4981550202549628  0.2500017165556514  0.3886237226021976  1.0000
  O   O1        1.0  0.8800260001244808  0.010975321869054302  0.7179927637300523  1.0000
  O   O2        1.0  0.6199761321780601  0.9890287257780485  0.2179923930534287  1.0000
  O   O3        1.0  0.1199765465495162  0.5109745720770462  0.2820061092923893  1.0000
  O   O4        1.0  0.38002207762804124  0.4890296797152303  0.7820038448948949  1.0000
  O   O5        1.0  0.11997221594596401  0.9890302853809843  0.2820064593460572  1.0000
  O   O6        1.0  0.3800235253382453  0.010972508889530302  0.7820059962243917  1.0000
  O   O7        1.0  0.8800202280733773  0.48902957764954647  0.717994781371786  1.0000
  O   O8        1.0  0.6199732555632239  0.5109744699987361  0.2179912092120091  1.0000
