data_image0
_chemical_formula_structural       CoH20C16N4O8
_chemical_formula_sum              "Co1 H20 C16 N4 O8"
_cell_length_a       7.226697775428646
_cell_length_b       7.474601306016184
_cell_length_c       9.427734871938332
_cell_angle_alpha    63.4058559418559
_cell_angle_beta     71.42072714568526
_cell_angle_gamma    80.47414735814225

_space_group_name_H-M_alt    "P 1"
_space_group_IT_number       1

loop_
  _space_group_symop_operation_xyz
  'x, y, z'

loop_
  _atom_site_type_symbol
  _atom_site_label
  _atom_site_symmetry_multiplicity
  _atom_site_fract_x
  _atom_site_fract_y
  _atom_site_fract_z
  _atom_site_occupancy
  Co  Co1       1.0  0.49999658515987744  0.49999918984399033  0.5000005588006928  1.0000
  H   H1        1.0  0.6422677073468108  0.23854889012437755  0.3311359080749199  1.0000
  H   H2        1.0  0.35772826518157075  0.7614511295244527  0.6688639207569764  1.0000
  H   H3        1.0  0.8134216829825078  0.6358021019076149  0.8111986399869056  1.0000
  H   H4        1.0  0.18659059743048806  0.3641956524812359  0.1887997938068082  1.0000
  H   H5        1.0  0.6809130255977255  0.9193964705122897  0.8901101795740304  1.0000
  H   H6        1.0  0.3190976140806755  0.08060278230313862  0.10988605692257639  1.0000
  H   H7        1.0  0.5507897863322881  0.8486725694138645  0.1888989797106433  1.0000
  H   H8        1.0  0.4492090937016614  0.15132621643798672  0.811097317650102  1.0000
  H   H9        1.0  0.7939692523737777  0.9319927092157131  0.6134186718195238  1.0000
  H   H10       1.0  0.2060282933940414  0.068008647390549  0.38658666141303405  1.0000
  H   H11       1.0  0.9830193016060207  0.9836707829517337  0.6717498265624187  1.0000
  H   H12       1.0  0.016977878306576603  0.0163350953471451  0.32825301651214295  1.0000
  H   H13       1.0  0.9545697405205332  0.3961633322768634  0.7834525421443176  1.0000
  H   H14       1.0  0.045432236027906504  0.603834027909031  0.2165455457548049  1.0000
  H   H15       1.0  0.007905043004427601  0.13832981380445375  0.8682609154604535  1.0000
  H   H16       1.0  0.9921014858383901  0.8616661934761113  0.13173855621831615  1.0000
  H   H17       1.0  0.7220581678069848  0.8542748838638944  0.3690761208660406  1.0000
  H   H18       1.0  0.27794337539106817  0.14572983339863305  0.6309227839786473  1.0000
  H   H19       1.0  0.8125494374252755  0.683341438673381  0.5067999388812865  1.0000
  H   H20       1.0  0.18744064448839737  0.31666112531698337  0.4932048240890907  1.0000
  C   C1        1.0  0.6578806736479879  0.38721282321470357  0.23027459905909353  1.0000
  C   C2        1.0  0.3421168262096472  0.6127858131289371  0.7697242338641959  1.0000
  C   C3        1.0  0.742283521088041  0.4137077077112894  0.06704431362071259  1.0000
  C   C4        1.0  0.25771995309627027  0.5862910661796406  0.9329571498752641  1.0000
  C   C5        1.0  0.7493887919523702  0.6075528243446515  0.9406285452666127  1.0000
  C   C6        1.0  0.25061762753929884  0.39244467737551514  0.059370451160127416  1.0000
  C   C7        1.0  0.6760823448716878  0.7659271943688923  0.9839510016173137  1.0000
  C   C8        1.0  0.3239225432365274  0.2340703113382433  0.016046272764349105  1.0000
  C   C9        1.0  0.602579944342388  0.7288749772166343  0.14946736197484256  1.0000
  C   C10       1.0  0.39741904504271025  0.2711223141956154  0.8505294106379325  1.0000
  C   C11       1.0  0.8309954337011405  0.23382443256757315  0.03719190612545749  1.0000
  C   C12       1.0  0.16900512892339495  0.7661741958021225  0.9628103708879865  1.0000
  C   C13       1.0  0.8561754099569542  0.24189497643665459  0.5086321743759824  1.0000
  C   C14       1.0  0.14381900149459884  0.7581078442093702  0.4913703039162982  1.0000
  C   C15       1.0  0.9226278804818265  0.02250361738324361  0.5676017516881587  1.0000
  C   C16       1.0  0.07736955593483688  0.9774992336626269  0.4324031062923694  1.0000
  N   N1        1.0  0.593275180578644  0.54197966501323  0.27205893334869563  1.0000
  N   N2        1.0  0.40672500808226897  0.45802072641264874  0.7279354175993831  1.0000
  N   N3        1.0  0.9260770129635959  0.25913530164471155  0.8828248182842632  1.0000
  N   N4        1.0  0.07392503918840988  0.7408619817935931  0.1171753984186736  1.0000
  O   O1        1.0  0.8198753177404827  0.06335301404696742  0.15747160804516377  1.0000
  O   O2        1.0  0.18012808084026236  0.9366458365915593  0.8425277266470061  1.0000
  O   O3        1.0  0.6712820741314334  0.2685797865851286  0.5625269009714343  1.0000
  O   O4        1.0  0.3287136040910852  0.7314232986905013  0.43746984855258847  1.0000
  O   O5        1.0  0.9790784546966478  0.3777626264939473  0.4149377063293045  1.0000
  O   O6        1.0  0.020914652182142383  0.6222399678962633  0.5850694363293272  1.0000
  O   O7        1.0  0.6902221744956378  0.733864955440133  0.4732969107214588  1.0000
  O   O8        1.0  0.3097690729462528  0.26614212625586486  0.5267070841359995  1.0000
