data_image0
_chemical_formula_structural       Hg4H32C28S4Br4N20
_chemical_formula_sum              "Hg4 H32 C28 S4 Br4 N20"
_cell_length_a       7.480346396050056
_cell_length_b       8.563442351609098
_cell_length_c       16.84405140900746
_cell_angle_alpha    98.99636470402497
_cell_angle_beta     89.99971855101084
_cell_angle_gamma    89.99974090288016

_space_group_name_H-M_alt    "P 1"
_space_group_IT_number       1

loop_
  _space_group_symop_operation_xyz
  'x, y, z'

loop_
  _atom_site_type_symbol
  _atom_site_label
  _atom_site_symmetry_multiplicity
  _atom_site_fract_x
  _atom_site_fract_y
  _atom_site_fract_z
  _atom_site_occupancy
  Hg  Hg1       1.0  0.3471459333845743  0.7544886707866354  0.8193270023719352  1.0000
  Hg  Hg2       1.0  0.8471369323999624  0.7454969069617617  0.680670601820708  1.0000
  Hg  Hg3       1.0  0.6528665381397118  0.24550005189807675  0.18067044783471434  1.0000
  Hg  Hg4       1.0  0.1528621707211357  0.2545012572680391  0.3193294024759156  1.0000
  H   H1        1.0  0.6913575182930953  0.2671639653434354  0.7581968251998037  1.0000
  H   H2        1.0  0.1913701556620424  0.23283179726023207  0.7418046796782393  1.0000
  H   H3        1.0  0.3086362374853024  0.7328342044901743  0.24180258587342962  1.0000
  H   H4        1.0  0.8086316211255494  0.7671663557810577  0.25819651107549657  1.0000
  H   H5        1.0  0.7704254947882135  0.11377717861291362  0.687553786903145  1.0000
  H   H6        1.0  0.2704352304268909  0.38622178750625835  0.8124442452837357  1.0000
  H   H7        1.0  0.2295749451651403  0.8862245436532491  0.31244532132442526  1.0000
  H   H8        1.0  0.7295705568834662  0.6137752000128743  0.18755506897626625  1.0000
  H   H9        1.0  0.44077049364180004  0.3018606546285412  0.9305660471757522  1.0000
  H   H10       1.0  0.9407629578274809  0.1981291844060493  0.5694350211934918  1.0000
  H   H11       1.0  0.5592406410284667  0.6981327916115061  0.06943238345385788  1.0000
  H   H12       1.0  0.05923079793079469  0.8018713276348991  0.4305669563963335  1.0000
  H   H13       1.0  0.35897446144355877  0.29180338196860583  0.025947073510643303  1.0000
  H   H14       1.0  0.8589664414755519  0.2081850995242718  0.4740536507430876  1.0000
  H   H15       1.0  0.6410353364074198  0.7081865285993559  0.974049880266911  1.0000
  H   H16       1.0  0.14102464060942313  0.7918166003999187  0.5259478304176498  1.0000
  H   H17       1.0  0.1581929163761089  0.6109097378189786  0.9844838265094397  1.0000
  H   H18       1.0  0.6582010321374054  0.8890861653155682  0.5155185982330864  1.0000
  H   H19       1.0  0.8418168814304039  0.38908841520319015  0.0155173642339648  1.0000
  H   H20       1.0  0.341804755145354  0.11091671685937847  0.4844829797064421  1.0000
  H   H21       1.0  0.021836076139742  0.7091757916128429  0.12026507519021831  1.0000
  H   H22       1.0  0.5218460455264236  0.790824925479761  0.3797376299899967  1.0000
  H   H23       1.0  0.978169711159893  0.2908247427636965  0.8797345294630008  1.0000
  H   H24       1.0  0.4781517207169657  0.2091814867985065  0.6202660180439212  1.0000
  H   H25       1.0  0.0399558600054064  0.9976388023174321  0.17356274444628642  1.0000
  H   H26       1.0  0.5399545304680586  0.5023606405532206  0.3264404104981935  1.0000
  H   H27       1.0  0.9600445799641547  0.002362947904074999  0.8264333976298986  1.0000
  H   H28       1.0  0.46003655159679363  0.49764340157830816  0.6735636371791288  1.0000
  H   H29       1.0  0.18823497198398795  0.17862237491061708  0.0917555687480061  1.0000
  H   H30       1.0  0.6882270922537971  0.32137281510579646  0.4082478590690642  1.0000
  H   H31       1.0  0.8117574469663253  0.8213805632068796  0.9082400769059761  1.0000
  H   H32       1.0  0.3117613161520508  0.6786276857657538  0.5917553049882047  1.0000
  C   C1        1.0  0.1616777271944585  0.7360699668310176  0.010497869376337104  1.0000
  C   C2        1.0  0.6616879665155722  0.763925360122208  0.48950349510182195  1.0000
  C   C3        1.0  0.8383267232826483  0.2639270262823672  0.9895008516551088  1.0000
  C   C4        1.0  0.3383151470906397  0.2360787043449122  0.5104981796388942  1.0000
  C   C5        1.0  0.0873330249089506  0.7900705215458074  0.08565471369426092  1.0000
  C   C6        1.0  0.5873363463010292  0.7099251374403294  0.41434921525159046  1.0000
  C   C7        1.0  0.9126714255577683  0.20992883054812236  0.9143447941629363  1.0000
  C   C8        1.0  0.4126574094367966  0.29007890468481895  0.585654832422293  1.0000
  C   C9        1.0  0.0974910692343229  0.9512584430788279  0.11506472989142941  1.0000
  C   C10       1.0  0.597490195580555  0.5487371954520555  0.38493620673780543  1.0000
  C   C11       1.0  0.9025066970622716  0.048743307149052804  0.8849314121881948  1.0000
  C   C12       1.0  0.4025008864878714  0.45126566439365945  0.6150677441417828  1.0000
  C   C13       1.0  0.1805325689936481  0.0523597053004963  0.0691654913457356  1.0000
  C   C14       1.0  0.6805224547271821  0.4476367093133504  0.430837459885737  1.0000
  C   C15       1.0  0.8194665341530577  0.9476396915347247  0.930829270676135  1.0000
  C   C16       1.0  0.3194646168321142  0.5523649626650523  0.5691669874315509  1.0000
  C   C17       1.0  0.2508787777441199  0.9884398450562768  0.9938769510314885  1.0000
  C   C18       1.0  0.7508755707765145  0.5115485169914181  0.5061252473786129  1.0000
  C   C19       1.0  0.749118988577152  0.011554817047844798  0.006118017031418801  1.0000
  C   C20       1.0  0.24911684813521623  0.48845316615638273  0.49387801347123184  1.0000
  C   C21       1.0  0.33984651531869764  0.088028738130582  0.9410971196768332  1.0000
  C   C22       1.0  0.8398420054365657  0.4119603940966954  0.5589047051361291  1.0000
  C   C23       1.0  0.6601525878254364  0.9119682773598257  0.058899228440388626  1.0000
  C   C24       1.0  0.1601517503184695  0.588040112353184  0.4410978656839718  1.0000
  C   C25       1.0  0.5666900201758766  0.058302143212955605  0.7603779435536567  1.0000
  C   C26       1.0  0.06670027003861631  0.44169306491259863  0.7396202263346583  1.0000
  C   C27       1.0  0.43330507246203354  0.9416948778780778  0.23961781133844806  1.0000
  C   C28       1.0  0.9333068540842077  0.5583086349733577  0.2603812548054094  1.0000
  S   S1        1.0  0.5384395495306434  0.8657318439052873  0.706032798389515  1.0000
  S   S2        1.0  0.0384481107733876  0.6342634869111448  0.7939656854688552  1.0000
  S   S3        1.0  0.4615595536005159  0.13426514922084457  0.29396592264881605  1.0000
  S   S4        1.0  0.9615603501998817  0.3657346717052761  0.20603491204599325  1.0000
  Br  Br1       1.0  0.5743069503146357  0.5248008047689154  0.8516094740511024  1.0000
  Br  Br2       1.0  0.0742658928430231  0.9752179394100936  0.6483973789522113  1.0000
  Br  Br3       1.0  0.4257322578747562  0.4752103868734138  0.1483892220478964  1.0000
  Br  Br4       1.0  0.9257104839610547  0.024801450107652594  0.3516103000357945  1.0000
  N   N1        1.0  0.24121801398059256  0.8323244431333449  0.9662085377146996  1.0000
  N   N2        1.0  0.7412150367878283  0.6676663407177443  0.5337926927195085  1.0000
  N   N3        1.0  0.7587864365166369  0.16767020777270863  0.03378761680015431  1.0000
  N   N4        1.0  0.2587813926362799  0.3323365358884374  0.4662094784623606  1.0000
  N   N5        1.0  0.3936240056773883  0.020626464693521005  0.8690451776949928  1.0000
  N   N6        1.0  0.8936250420158627  0.4793636046460108  0.6309554188985943  1.0000
  N   N7        1.0  0.6063737606266814  0.9793717330858772  0.13095126722168973  1.0000
  N   N8        1.0  0.1063740610922679  0.5206345372195146  0.3690469583191459  1.0000
  N   N9        1.0  0.4895994846198803  0.11634448350059051  0.8283816741416673  1.0000
  N   N10       1.0  0.9896072511230968  0.383648686373803  0.6716177791098732  1.0000
  N   N11       1.0  0.5103982816845161  0.8836525264019314  0.17161526720754952  1.0000
  N   N12       1.0  0.0103971993303205  0.6163518312327199  0.32838360523589943  1.0000
  N   N13       1.0  0.6684325730275873  0.15928360735300368  0.7242964365363778  1.0000
  N   N14       1.0  0.1684482936096927  0.3407146682292961  0.7757011683838186  1.0000
  N   N15       1.0  0.3315625195970213  0.8407145792506296  0.2757011948443022  1.0000
  N   N16       1.0  0.8315588305264257  0.6592858661440602  0.22429843626767376  1.0000
  N   N17       1.0  0.3631243080990174  0.24396253422408165  0.9665635026970067  1.0000
  N   N18       1.0  0.8631195433276062  0.2560276749218531  0.533437765712101  1.0000
  N   N19       1.0  0.6368788055513263  0.7560344756657004  0.03343343864532501  1.0000
  N   N20       1.0  0.1368755492671596  0.7439728371159047  0.46656421187600483  1.0000
