data_image0
_chemical_formula_structural       Zn4H16C64Cl20O16
_chemical_formula_sum              "Zn4 H16 C64 Cl20 O16"
_cell_length_a       7.452316193228996
_cell_length_b       17.708066157960243
_cell_length_c       34.66640097258579
_cell_angle_alpha    89.91886990763643
_cell_angle_beta     90.0545060397704
_cell_angle_gamma    90.13363587363591

_space_group_name_H-M_alt    "P 1"
_space_group_IT_number       1

loop_
  _space_group_symop_operation_xyz
  'x, y, z'

loop_
  _atom_site_type_symbol
  _atom_site_label
  _atom_site_symmetry_multiplicity
  _atom_site_fract_x
  _atom_site_fract_y
  _atom_site_fract_z
  _atom_site_occupancy
  Zn  Zn1       1.0  0.6535476230125284  0.00019543933963459976  0.5001397967646994  1.0000
  Zn  Zn2       1.0  0.2896497608280627  0.009925161087522798  0.4999938203354192  1.0000
  Zn  Zn3       1.0  0.2559448765471757  0.9993341646497739  4.262866058720012e-05  1.0000
  Zn  Zn4       1.0  0.6198877009083718  0.009716870448166  0.00022277077765410011  1.0000
  H   H1        1.0  0.24951002678439954  0.9852920407072292  0.7455606858243797  1.0000
  H   H2        1.0  0.6606390375437597  0.9856377025675299  0.7546059713017144  1.0000
  H   H3        1.0  0.24907392189225425  0.9863418506278808  0.2546063205950233  1.0000
  H   H4        1.0  0.660104731001397  0.9848237228783175  0.24562328371471415  1.0000
  H   H5        1.0  0.644829299801323  0.7785947995034733  0.5000840685291195  1.0000
  H   H6        1.0  0.6704106057028911  0.6388190219815613  0.5000354045356091  1.0000
  H   H7        1.0  0.09117089903881492  0.6242840916236007  0.4999763306474279  1.0000
  H   H8        1.0  0.7003877143409272  0.3890681932235723  0.4999921949370076  1.0000
  H   H9        1.0  0.14318933162739  0.23678875879667055  0.499970458825537  1.0000
  H   H10       1.0  0.12097642504545554  0.37673276099111064  0.49994178104981307  1.0000
  H   H11       1.0  0.2638154722999815  0.777838504952918  0.0005665719136800001  1.0000
  H   H12       1.0  0.237618228499052  0.6381229891229337  0.9997715812971679  1.0000
  H   H13       1.0  0.8166928357664888  0.624337653484048  0.9979413114459349  1.0000
  H   H14       1.0  0.20814867502536322  0.3877339056617899  0.9984833358590705  1.0000
  H   H15       1.0  0.7662825033243054  0.237130936342993  0.9992692400636898  1.0000
  H   H16       1.0  0.7876284748355717  0.37711269200176645  0.9986128791780617  1.0000
  C   C1        1.0  0.367583531641131  0.8655362635608129  0.5000367020169207  1.0000
  C   C2        1.0  0.5472479996835774  0.9990580934552472  0.57262917948065  1.0000
  C   C3        1.0  0.42384511415034615  0.1488987572881655  0.5000426126347364  1.0000
  C   C4        1.0  0.5477648214728531  0.9993527211188962  0.4275511210930319  1.0000
  C   C5        1.0  0.5412473715151693  0.8651902957473255  0.9999949564168421  1.0000
  C   C6        1.0  0.3624278636235445  0.998740604326585  0.9275351378235257  1.0000
  C   C7        1.0  0.48607842685257924  0.1484108125224211  0.9998068331763363  1.0000
  C   C8        1.0  0.3624675912874977  0.9986673039858827  0.07264291497695301  1.0000
  C   C9        1.0  0.3595683186505952  0.9933376266551123  0.8842291749711964  1.0000
  C   C10       1.0  0.4193009290283315  0.9273157035012075  0.8662143492590317  1.0000
  C   C11       1.0  0.4278627056858967  0.9232843818965506  0.8257544850510927  1.0000
  C   C12       1.0  0.37423016766443606  0.9851729737496341  0.8029749032941638  1.0000
  C   C13       1.0  0.3112828155730868  0.0506087817273411  0.8215657836577892  1.0000
  C   C14       1.0  0.30558598666194575  0.0552344485379521  0.8619615286107276  1.0000
  C   C15       1.0  0.37918502923910324  0.9834147131998134  0.7603498335048189  1.0000
  C   C16       1.0  0.5309580005189148  0.983514576132102  0.7398173990233232  1.0000
  C   C17       1.0  0.5987389118376641  0.05084637336442201  0.678521407689374  1.0000
  C   C18       1.0  0.5357969201830814  0.9852766933103755  0.6971909174002917  1.0000
  C   C19       1.0  0.4818651325644724  0.9233348077920527  0.6744845926203028  1.0000
  C   C20       1.0  0.4902017827863007  0.9274307586899795  0.6340213610360694  1.0000
  C   C21       1.0  0.5501659899321255  0.9935558486436021  0.6159293990155775  1.0000
  C   C22       1.0  0.6043504157553914  0.05551475309064809  0.638119935408568  1.0000
  C   C23       1.0  0.3592374575836389  0.9932860082545218  0.11594470974948481  1.0000
  C   C24       1.0  0.4188433319673025  0.9272816012613562  0.1341216838583392  1.0000
  C   C25       1.0  0.42722540589124247  0.9233465273433413  0.1745922484341094  1.0000
  C   C26       1.0  0.37356634050424026  0.9853237903648875  0.19721186888936876  1.0000
  C   C27       1.0  0.31070647456964207  0.05071804187410581  0.17844846541785137  1.0000
  C   C28       1.0  0.30512778589836403  0.055239811051244224  0.13804503395866877  1.0000
  C   C29       1.0  0.37861888577668174  0.9837866511950537  0.23984146780197346  1.0000
  C   C30       1.0  0.5304691841782018  0.9833660317406725  0.2604034278296155  1.0000
  C   C31       1.0  0.6001514573863672  0.0507053465168994  0.3215545807300161  1.0000
  C   C32       1.0  0.5357009094034737  0.9853189141142807  0.3030227533940248  1.0000
  C   C33       1.0  0.48081725651996277  0.9236134420082891  0.3258436755116421  1.0000
  C   C34       1.0  0.48962485830839614  0.9277523145884816  0.3662989178644764  1.0000
  C   C35       1.0  0.5508076494522173  0.9937428679619346  0.38426269860175216  1.0000
  C   C36       1.0  0.6060715055755568  0.0554688062389275  0.3619474523779829  1.0000
  C   C37       1.0  0.3590412610034905  0.7812578954382019  0.5000297785120724  1.0000
  C   C38       1.0  0.5252048888671723  0.7435041295333988  0.5000507780484541  1.0000
  C   C39       1.0  0.5391351429043213  0.6657517733749999  0.5000319085865287  1.0000
  C   C40       1.0  0.38164793459256435  0.6213100205685292  0.4999996636689091  1.0000
  C   C41       1.0  0.21391770171898372  0.6577285651614062  0.49999806155926757  1.0000
  C   C42       1.0  0.20233259877030466  0.736381188041605  0.5000088806381413  1.0000
  C   C43       1.0  0.3914713273627797  0.5416585815934809  0.4999803739476648  1.0000
  C   C44       1.0  0.4012536294854031  0.4728739845838844  0.499971783678788  1.0000
  C   C45       1.0  0.4097431274900957  0.3931795224450454  0.49997284328441083  1.0000
  C   C46       1.0  0.5767353175276639  0.3562173393831998  0.49998081647670045  1.0000
  C   C47       1.0  0.5865908704438355  0.27759828703977985  0.4999922109712217  1.0000
  C   C48       1.0  0.42898290332136924  0.23313511010465504  0.5000052657267346  1.0000
  C   C49       1.0  0.263651033690472  0.2713433537046869  0.4999843701942482  1.0000
  C   C50       1.0  0.25154999845316445  0.34921633321899753  0.4999687244948278  1.0000
  C   C51       1.0  0.5495196300950056  0.7809444597849549  0.9996456391638802  1.0000
  C   C52       1.0  0.3833055430301329  0.7429490312058462  0.999978805164865  1.0000
  C   C53       1.0  0.36903590762254623  0.6651841049714164  0.9995700244292041  1.0000
  C   C54       1.0  0.5262641508554327  0.6209297407475204  0.9988764678065679  1.0000
  C   C55       1.0  0.6940905019823449  0.6576023121019078  0.9985319757955438  1.0000
  C   C56       1.0  0.7060315013787106  0.7362682806877671  0.9988827210165709  1.0000
  C   C57       1.0  0.5162153888276535  0.541249540949657  0.9985783628529319  1.0000
  C   C58       1.0  0.5068302225846538  0.47243632247084133  0.9984393266654481  1.0000
  C   C59       1.0  0.4987558277202312  0.39271518770512165  0.9985618442542049  1.0000
  C   C60       1.0  0.33198315757437064  0.35523904012084273  0.9986571404891222  1.0000
  C   C61       1.0  0.3225861009850561  0.2765891101819592  0.9990728921819428  1.0000
  C   C62       1.0  0.4805007199138346  0.23260435516073139  0.9993468786568018  1.0000
  C   C63       1.0  0.6455962567645914  0.27129854230993533  0.999121976476424  1.0000
  C   C64       1.0  0.6572203806806345  0.34921789524897656  0.9987530631702698  1.0000
  Cl  Cl1       1.0  0.23798433710364716  0.1367450183102008  0.8845293205702378  1.0000
  Cl  Cl2       1.0  0.24515976243942111  0.12627410192387603  0.7938300841287289  1.0000
  Cl  Cl3       1.0  0.47950378581651887  0.851056380595722  0.8941432585667286  1.0000
  Cl  Cl4       1.0  0.5005735494215671  0.8414902308388079  0.8042098068480072  1.0000
  Cl  Cl5       1.0  0.40883405393593375  0.8414459730953112  0.6961542442817219  1.0000
  Cl  Cl6       1.0  0.4292974590497353  0.8511690239770219  0.6061925012846885  1.0000
  Cl  Cl7       1.0  0.6651754681662612  0.12656627137598522  0.706163092625559  1.0000
  Cl  Cl8       1.0  0.6719811886515361  0.13716584729628778  0.6154578058884255  1.0000
  Cl  Cl9       1.0  0.2377058097268546  0.13670031301973037  0.1152684032782147  1.0000
  Cl  Cl10      1.0  0.24459341639833815  0.126457673273535  0.20599390122421116  1.0000
  Cl  Cl11      1.0  0.4793564632364778  0.8509896353897163  0.1063803108996453  1.0000
  Cl  Cl12      1.0  0.4999885739698159  0.8416116067249393  0.196341900326523  1.0000
  Cl  Cl13      1.0  0.4060747503476351  0.8419047827853134  0.304350569722402  1.0000
  Cl  Cl14      1.0  0.4277868877633254  0.851690884901295  0.39426522854427054  1.0000
  Cl  Cl15      1.0  0.6680477990110206  0.12608142621061091  0.2937518391116144  1.0000
  Cl  Cl16      1.0  0.6753467460163095  0.136957630654976  0.3844407565916299  1.0000
  Cl  Cl17      1.0  0.9890265088091541  0.7740471376346889  0.49999179946135547  1.0000
  Cl  Cl18      1.0  0.8001827174673083  0.23984669603386527  0.4999826607527922  1.0000
  Cl  Cl19      1.0  0.9194544620245184  0.7742254139379128  0.9981454661495875  1.0000
  Cl  Cl20      1.0  0.10918819333630843  0.23824387993769142  0.9992291109179732  1.0000
  O   O1        1.0  0.5233996424222553  0.8948337471658621  0.5000981736690164  1.0000
  O   O2        1.0  0.22141521333997366  0.9044492611510935  0.49996652674166614  1.0000
  O   O3        1.0  0.3955686654277102  0.008193418618752401  0.5571775828548554  1.0000
  O   O4        1.0  0.6988150722815334  0.9939941757756473  0.5552182511450712  1.0000
  O   O5        1.0  0.2657648137423507  0.11834528247407414  0.4999908182476318  1.0000
  O   O6        1.0  0.5692213744613212  0.11196865736748411  0.5001297188060577  1.0000
  O   O7        1.0  0.6991803501966419  0.9942002254914539  0.44508884717633634  1.0000
  O   O8        1.0  0.39601183906110293  0.008599269315823202  0.4428770303596252  1.0000
  O   O9        1.0  0.38550623583756766  0.8942512121151651  0.00011182373376070004  1.0000
  O   O10       1.0  0.6875466718192984  0.9042927261453214  0.00014354451256080053  1.0000
  O   O11       1.0  0.5141273536811183  0.0079923705266935  0.9429925302948378  1.0000
  O   O12       1.0  0.21080385884875602  0.9934419306594013  0.9449404678089978  1.0000
  O   O13       1.0  0.6442020485701221  0.11822647911648691  0.9999749577312543  1.0000
  O   O14       1.0  0.3407816003240853  0.1111304623008706  0.9999931632010542  1.0000
  O   O15       1.0  0.21099486997484013  0.9933358649318933  0.0551317674806739  1.0000
  O   O16       1.0  0.5143176252865304  0.007980651731728  0.0573047033364205  1.0000
