data_image0
_chemical_formula_structural       Hg4H20C24I8N8
_chemical_formula_sum              "Hg4 H20 C24 I8 N8"
_cell_length_a       7.7044451502066424
_cell_length_b       7.393874034287486
_cell_length_c       18.033044753545973
_cell_angle_alpha    100.89636195196093
_cell_angle_beta     90.00166138942163
_cell_angle_gamma    90.00049724156612

_space_group_name_H-M_alt    "P 1"
_space_group_IT_number       1

loop_
  _space_group_symop_operation_xyz
  'x, y, z'

loop_
  _atom_site_type_symbol
  _atom_site_label
  _atom_site_symmetry_multiplicity
  _atom_site_fract_x
  _atom_site_fract_y
  _atom_site_fract_z
  _atom_site_occupancy
  Hg  Hg1       1.0  0.15081098011098254  0.45802076074359377  0.15906770084976782  1.0000
  Hg  Hg2       1.0  0.6508064485825145  0.5420227848081396  0.3409386532405848  1.0000
  Hg  Hg3       1.0  0.8491924556261594  0.5419986786237345  0.8409349255043567  1.0000
  Hg  Hg4       1.0  0.3492255418868949  0.4579746178811632  0.659062248981094  1.0000
  H   H1        1.0  0.19543418190532685  0.6032316321609343  0.9317387508219712  1.0000
  H   H2        1.0  0.6954301949492886  0.3967402808700058  0.568255675269036  1.0000
  H   H3        1.0  0.8045471884626777  0.3967699610565063  0.0682497243273872  1.0000
  H   H4        1.0  0.3045771345050667  0.6032639775042766  0.43175241760552313  1.0000
  H   H5        1.0  0.46877534904217544  0.7658918178796128  0.9427264799660691  1.0000
  H   H6        1.0  0.9687864108694981  0.2340770693365712  0.5572671648099077  1.0000
  H   H7        1.0  0.5312060212284566  0.23409871855186282  0.057269448011574305  1.0000
  H   H8        1.0  0.031246877312348396  0.7658941109152694  0.4427433306985051  1.0000
  H   H9        1.0  0.4917517107122721  0.7132796303277401  0.21049391162232214  1.0000
  H   H10       1.0  0.9917396103405735  0.28677526567167894  0.2895149885644416  1.0000
  H   H11       1.0  0.5082504271172965  0.2867453566182405  0.7895008307645953  1.0000
  H   H12       1.0  0.0082573353077535  0.713208294767476  0.7104998025435592  1.0000
  H   H13       1.0  0.7235389859730788  0.9027683950668431  0.020841890643225693  1.0000
  H   H14       1.0  0.223512666354857  0.09725804322459908  0.47913328892897067  1.0000
  H   H15       1.0  0.27646315165927865  0.09723736341003078  0.9791397017114605  1.0000
  H   H16       1.0  0.7764907690409971  0.9027255735386535  0.5208693068191864  1.0000
  H   H17       1.0  0.7290331866366843  0.8841213149164773  0.15903492865410135  1.0000
  H   H18       1.0  0.22899524580803637  0.1159078734339545  0.3409522452436705  1.0000
  H   H19       1.0  0.2709832286488306  0.11590230758743297  0.8409569344400298  1.0000
  H   H20       1.0  0.7710029976916956  0.8840660817324846  0.6590540306806576  1.0000
  C   C1        1.0  0.34882970862501855  0.6684492670257927  0.035949882881276124  1.0000
  C   C2        1.0  0.848830515861259  0.3315424231900224  0.46403894142695634  1.0000
  C   C3        1.0  0.6511763228194809  0.33155094132520446  0.96404014781141  1.0000
  C   C4        1.0  0.15118719723577806  0.6684660259858005  0.5359567251403307  1.0000
  C   C5        1.0  0.1974473030898523  0.5962369066311125  0.9919566207718091  1.0000
  C   C6        1.0  0.697491345306851  0.4037556381054729  0.5080494512133529  1.0000
  C   C7        1.0  0.8025120023546677  0.4037908142527371  0.008042771345167008  1.0000
  C   C8        1.0  0.3025328571737377  0.596212836123314  0.4919502961932735  1.0000
  C   C9        1.0  0.4790774107005902  0.7577221179127206  0.002390219580035991  1.0000
  C   C10       1.0  0.9790934622191755  0.2422831150603386  0.4976072765587817  1.0000
  C   C11       1.0  0.5209039600574813  0.242319388868097  0.9976074789290766  1.0000
  C   C12       1.0  0.020922952901465005  0.7577211331192046  0.5024030337826701  1.0000
  C   C13       1.0  0.4911690042122032  0.7276638794309491  0.15138612878239852  1.0000
  C   C14       1.0  0.9911762249211832  0.2723607594422219  0.34860985343004103  1.0000
  C   C15       1.0  0.5087954930093233  0.2723611073463346  0.8486086131324626  1.0000
  C   C16       1.0  0.0088557654773211  0.7276283410618661  0.6513987171812448  1.0000
  C   C17       1.0  0.6193569493933709  0.834725829210015  0.046113718502802215  1.0000
  C   C18       1.0  0.11931759418513369  0.16524175693842114  0.45386984246726314  1.0000
  C   C19       1.0  0.3806374004664761  0.1652730171414376  0.9538728782332986  1.0000
  C   C20       1.0  0.8806494982275693  0.8347059730862724  0.5461465806750923  1.0000
  C   C21       1.0  0.6237725536049369  0.8232031331392307  0.12226740378251584  1.0000
  C   C22       1.0  0.1237825782279671  0.17683193446796247  0.37773152790079934  1.0000
  C   C23       1.0  0.3762127107748725  0.1768135643402289  0.8777322350912159  1.0000
  C   C24       1.0  0.8762234528345941  0.8231254496281862  0.6222828785033201  1.0000
  I   I1        1.0  0.06256361292687271  0.09475837296994172  0.1178906822452817  1.0000
  I   I2        1.0  0.5625154701319346  0.9052816293519327  0.3821126879546101  1.0000
  I   I3        1.0  0.937426843298951  0.9052624641105069  0.8821076170208286  1.0000
  I   I4        1.0  0.437474985860753  0.0947143932919872  0.6178886603037554  1.0000
  I   I5        1.0  0.9969808732745163  0.7115725313805683  0.27068806849213445  1.0000
  I   I6        1.0  0.4970290506484929  0.2884687257574682  0.22930103830315576  1.0000
  I   I7        1.0  0.0029979012405334997  0.2884331425490814  0.7293118167314034  1.0000
  I   I8        1.0  0.5029886625659614  0.7115521267983239  0.7706939352753609  1.0000
  N   N1        1.0  0.35928590925462345  0.6496821388574857  0.10911838634641671  1.0000
  N   N2        1.0  0.8592998976799179  0.35033857356565085  0.39087185510970823  1.0000
  N   N3        1.0  0.6407032491165694  0.3503497550031085  0.8908724600751228  1.0000
  N   N4        1.0  0.14072430480596412  0.6496313137876157  0.6091202393422464  1.0000
  N   N5        1.0  0.06737528083552752  0.5308246190574407  0.02385294976369321  1.0000
  N   N6        1.0  0.5673943114264972  0.4691685600984529  0.476155192497295  1.0000
  N   N7        1.0  0.932593110082415  0.46918240653740645  0.9761525864926597  1.0000
  N   N8        1.0  0.4326324872110804  0.530824639018256  0.5238609077879488  1.0000
