data_image0
_chemical_formula_structural       Ag4H24C20N12O20
_chemical_formula_sum              "Ag4 H24 C20 N12 O20"
_cell_length_a       4.849223168013885
_cell_length_b       12.34579334598676
_cell_length_c       14.865567978870367
_cell_angle_alpha    112.64861991376718
_cell_angle_beta     89.99972589260048
_cell_angle_gamma    90.0000955299421

_space_group_name_H-M_alt    "P 1"
_space_group_IT_number       1

loop_
  _space_group_symop_operation_xyz
  'x, y, z'

loop_
  _atom_site_type_symbol
  _atom_site_label
  _atom_site_symmetry_multiplicity
  _atom_site_fract_x
  _atom_site_fract_y
  _atom_site_fract_z
  _atom_site_occupancy
  Ag  Ag1       1.0  0.8841694428433584  0.189768699989358  0.7589645156775406  1.0000
  Ag  Ag2       1.0  0.38417015515165787  0.31023008323742834  0.7410354368943572  1.0000
  Ag  Ag3       1.0  0.11583498980714067  0.8102315332277567  0.24103803897145326  1.0000
  Ag  Ag4       1.0  0.6158342775183738  0.6897710323953561  0.2589647100856993  1.0000
  H   H1        1.0  0.04899297696618989  0.9320308549644736  0.6088797217934427  1.0000
  H   H2        1.0  0.5490001229833368  0.5679712962902955  0.8911186648153234  1.0000
  H   H3        1.0  0.951001144783838  0.06797026303917161  0.3911190805632003  1.0000
  H   H4        1.0  0.45100224751100626  0.43202806636360697  0.10887957434629673  1.0000
  H   H5        1.0  0.2203799570866564  0.9093650302339996  0.4979207757991944  1.0000
  H   H6        1.0  0.720376408306741  0.5906348979867814  0.002078945882189427  1.0000
  H   H7        1.0  0.7796306621314172  0.0906360830280803  0.5020807158075513  1.0000
  H   H8        1.0  0.279617713423761  0.4093653376012015  0.9979222641433838  1.0000
  H   H9        1.0  0.1543739021040125  0.7900305702414699  0.6910758387791986  1.0000
  H   H10       1.0  0.6543807909038364  0.7099706941559136  0.808922771578864  1.0000
  H   H11       1.0  0.8456284683845467  0.20997230192606514  0.3089241990751789  1.0000
  H   H12       1.0  0.3456236417910787  0.29002954972833817  0.19107373222797722  1.0000
  H   H13       1.0  0.505034143016246  0.5947625770573238  0.641533696149665  1.0000
  H   H14       1.0  0.005041782300153799  0.9052378174431225  0.8584668861846652  1.0000
  H   H15       1.0  0.4949641030810525  0.40523853501998275  0.35846846778267866  1.0000
  H   H16       1.0  0.994968836928436  0.09476066516528191  0.1415324160077631  1.0000
  H   H17       1.0  0.6865845190112693  0.784208206946289  0.4629682460936237  1.0000
  H   H18       1.0  0.18658576328770238  0.715789969674873  0.03703029362738875  1.0000
  H   H19       1.0  0.3134178514633419  0.21579115096666607  0.5370326823311729  1.0000
  H   H20       1.0  0.8134104206491484  0.2842076376298266  0.9629673823506409  1.0000
  H   H21       1.0  0.8073413546774901  0.6065028561800574  0.5005494862475076  1.0000
  H   H22       1.0  0.3073427518707632  0.8934983918677516  0.9994515710064178  1.0000
  H   H23       1.0  0.1926589536107173  0.3934982570824133  0.4994520053674094  1.0000
  H   H24       1.0  0.692661680795183  0.10649921188093003  0.0005481219124661131  1.0000
  C   C1        1.0  0.4203493965671115  0.032626935564032095  0.627005120058641  1.0000
  C   C2        1.0  0.9203481828803318  0.46737272496228843  0.8729937121515405  1.0000
  C   C3        1.0  0.5796488495445614  0.9673759354184243  0.3729955901148046  1.0000
  C   C4        1.0  0.07965006322211819  0.5326275106255379  0.127007497870764  1.0000
  C   C5        1.0  0.2523123717481112  0.9209760590788392  0.5742198629843714  1.0000
  C   C6        1.0  0.7523190559449304  0.5790269484943948  0.9257818446453784  1.0000
  C   C7        1.0  0.7476817499864693  0.07902768839324642  0.4257818011023745  1.0000
  C   C8        1.0  0.2476853767150118  0.42097504244262757  0.07421992856050964  1.0000
  C   C9        1.0  0.3156763568576934  0.7583475866107463  0.6369599077039894  1.0000
  C   C10       1.0  0.8156887720565748  0.741651033706127  0.8630369299729852  1.0000
  C   C11       1.0  0.6843198270684354  0.24165352902235068  0.3630402392826042  1.0000
  C   C12       1.0  0.1843115362563097  0.25835008548252614  0.13696120006295587  1.0000
  C   C13       1.0  0.48809776261279575  0.6634846773715212  0.6131747859885978  1.0000
  C   C14       1.0  0.9881081669877645  0.836515682839185  0.8868236863142442  1.0000
  C   C15       1.0  0.5118963591273626  0.3365164382616541  0.3868253609996303  1.0000
  C   C16       1.0  0.0118942035063725  0.1634845574894399  0.1131748344416152  1.0000
  C   C17       1.0  0.5902531702865018  0.7589862052811825  0.5177926534834044  1.0000
  C   C18       1.0  0.09025417701155898  0.7410141839374093  0.9822071215137669  1.0000
  C   C19       1.0  0.40974920018724953  0.24101666333064034  0.4822094013183573  1.0000
  C   C20       1.0  0.9097461312923086  0.2589834221819062  0.017791226776800808  1.0000
  N   N1        1.0  0.38148540323248875  0.8156677862585654  0.5760652362928411  1.0000
  N   N2        1.0  0.881490496694603  0.6843325820432469  0.9239334049378342  1.0000
  N   N3        1.0  0.6185149050552993  0.18433508235333557  0.423936818510562  1.0000
  N   N4        1.0  0.11850774942286077  0.31566677942557664  0.0760655065428466  1.0000
  N   N5        1.0  0.6563561896452297  0.6665543227557507  0.5391989826893138  1.0000
  N   N6        1.0  0.15635996260830606  0.8334460614461179  0.960800687567705  1.0000
  N   N7        1.0  0.3436441186427643  0.33344766818142807  0.46080279051984263  1.0000
  N   N8        1.0  0.8436424078815392  0.16655154467311922  0.03919766072122141  1.0000
  N   N9        1.0  0.3359074295196578  0.08267724211584242  0.864719433217509  1.0000
  N   N10       1.0  0.8359074296078148  0.41732066709889903  0.6352803142302151  1.0000
  N   N11       1.0  0.6640928787792717  0.9173203628182306  0.13527958738885096  1.0000
  N   N12       1.0  0.164092878676108  0.5826778119541842  0.36472100491776877  1.0000
  O   O1        1.0  0.6530585662931898  0.023866756338428295  0.6611125446568522  1.0000
  O   O2        1.0  0.1530564810294237  0.47613029263394674  0.8388851939686361  1.0000
  O   O3        1.0  0.3469376176226504  0.976136112273629  0.33888951014981233  1.0000
  O   O4        1.0  0.8469397028928395  0.5238664334403323  0.1611142173625382  1.0000
  O   O5        1.0  0.2999818386316093  0.1258273506266363  0.6299333108925325  1.0000
  O   O6        1.0  0.7999761502590558  0.37417232021988406  0.870065039723663  1.0000
  O   O7        1.0  0.7000122830984736  0.874174640310784  0.3700684623215266  1.0000
  O   O8        1.0  0.20002003366749924  0.6258270400637755  0.1299345440744446  1.0000
  O   O9        1.0  0.1326318933895294  0.03860670205821041  0.8081630946289451  1.0000
  O   O10       1.0  0.6326312497853692  0.46139122376855113  0.6918363025865946  1.0000
  O   O11       1.0  0.8673704771099651  0.9613917841062191  0.19183419062263604  1.0000
  O   O12       1.0  0.3673711206795928  0.5386072540992191  0.3081656888755476  1.0000
  O   O13       1.0  0.42357520149869987  0.1839566036602989  0.8772369054547229  1.0000
  O   O14       1.0  0.9235770200365535  0.3160421765759054  0.6227629846792269  1.0000
  O   O15       1.0  0.5764251067899406  0.8160427542527345  0.12276402297170831  1.0000
  O   O16       1.0  0.076425350443202  0.6839563048475698  0.37723698983553083  1.0000
  O   O17       1.0  0.4477578853844336  0.0241312143116303  0.9091156532722522  1.0000
  O   O18       1.0  0.9477587837957556  0.4758658099251677  0.5908829630415157  1.0000
  O   O19       1.0  0.5522403607338829  0.9758646364583258  0.09088213183145656  1.0000
  O   O20       1.0  0.0522394623071278  0.5241326703132286  0.409117683792303  1.0000
