data_image0
_chemical_formula_structural       Gd2CuH28C20O22
_chemical_formula_sum              "Gd2 Cu1 H28 C20 O22"
_cell_length_a       6.979304829236632
_cell_length_b       10.022385213986789
_cell_length_c       11.401773313981675
_cell_angle_alpha    107.83832679273645
_cell_angle_beta     101.72796036514742
_cell_angle_gamma    98.34782641549153

_space_group_name_H-M_alt    "P 1"
_space_group_IT_number       1

loop_
  _space_group_symop_operation_xyz
  'x, y, z'

loop_
  _atom_site_type_symbol
  _atom_site_label
  _atom_site_symmetry_multiplicity
  _atom_site_fract_x
  _atom_site_fract_y
  _atom_site_fract_z
  _atom_site_occupancy
  Gd  Gd1       1.0  0.6342562851065096  0.715912271873641  0.09840228366120832  1.0000
  Gd  Gd2       1.0  0.3657400618195509  0.2840869055810983  0.901595338592294  1.0000
  Cu  Cu1       1.0  3.229757346699101e-06  0.9999974995245249  0.49999895515013976  1.0000
  H   H1        1.0  0.43366485272594696  0.5914151256897995  0.34435656971322  1.0000
  H   H2        1.0  0.5663396633493035  0.40858173658118346  0.6556465947290561  1.0000
  H   H3        1.0  0.6113417821382467  0.5921417749562322  0.480202167154644  1.0000
  H   H4        1.0  0.38866452425427406  0.4078561712122663  0.5198006361559848  1.0000
  H   H5        1.0  0.5141222950699245  0.6477924443336532  0.6749357180376093  1.0000
  H   H6        1.0  0.48587707417370035  0.3522066049698012  0.3250674792964858  1.0000
  H   H7        1.0  0.3230213003547532  0.75619708710159  0.7003753520792342  1.0000
  H   H8        1.0  0.676972871134275  0.24380420401679712  0.2996252560871326  1.0000
  H   H9        1.0  0.9867933053468008  0.5330326319906289  0.19699031918123203  1.0000
  H   H10       1.0  0.013195841584845828  0.4669763944501708  0.8030040272547225  1.0000
  H   H11       1.0  0.8941383117685077  0.4682517611038294  0.30631797123371024  1.0000
  H   H12       1.0  0.1058677148041695  0.5317549491765872  0.6936802882160576  1.0000
  H   H13       1.0  0.04180342823024565  0.9032635084491644  0.14583329763367195  1.0000
  H   H14       1.0  0.9581969523474286  0.09673456619616155  0.8541644736546841  1.0000
  H   H15       1.0  0.06908620303137515  0.8554804637490178  0.268045332833438  1.0000
  H   H16       1.0  0.9309181391852944  0.14452081709956133  0.7319538116387247  1.0000
  H   H17       1.0  0.16407379136249733  0.16915133143871228  0.25841733476006107  1.0000
  H   H18       1.0  0.835919076113619  0.8308554807411495  0.7415785613430117  1.0000
  H   H19       1.0  0.006798190699541364  0.2635148375703053  0.3531126484585342  1.0000
  H   H20       1.0  0.9931983083341008  0.7364940876221195  0.6468851474407626  1.0000
  H   H21       1.0  0.5246175729721685  0.008096261195788698  0.14590278304707735  1.0000
  H   H22       1.0  0.47538720528724787  0.9919017673091655  0.8540963587034082  1.0000
  H   H23       1.0  0.6656053683910415  0.017735248834469492  0.2787551854212538  1.0000
  H   H24       1.0  0.33440156421577427  0.982264920237057  0.7212448166248464  1.0000
  H   H25       1.0  0.23915102499724122  0.5647754535661915  0.10924751653154621  1.0000
  H   H26       1.0  0.7608557683610044  0.4352191854762139  0.8907579061169384  1.0000
  H   H27       1.0  0.2976203926863263  0.7116654582197837  0.2335763060297111  1.0000
  H   H28       1.0  0.7023839671660354  0.28832589228289857  0.76643140499511  1.0000
  C   C1        1.0  0.6878107372378464  0.7690143220651392  0.4227431663194493  1.0000
  C   C2        1.0  0.3121925977600881  0.23098369747218322  0.5772566839701198  1.0000
  C   C3        1.0  0.528457291861983  0.659953921529954  0.43934557192353196  1.0000
  C   C4        1.0  0.4715472072389346  0.3400429590018489  0.5606567184989117  1.0000
  C   C5        1.0  0.4064661530466934  0.7260954265582028  0.5266182777422087  1.0000
  C   C6        1.0  0.5935369027927491  0.27390144500596136  0.4733847212193111  1.0000
  C   C7        1.0  0.2676858985823713  0.8109550664924965  0.4800684972191859  1.0000
  C   C8        1.0  0.732318117668143  0.1890408851959933  0.519926453637062  1.0000
  C   C9        1.0  0.4142854027732169  0.7087544123488029  0.6393697640591611  1.0000
  C   C10       1.0  0.5857116891874128  0.29124686018322166  0.3606311750687254  1.0000
  C   C11       1.0  0.7118723369394075  0.3770031929177192  0.11528533707928543  1.0000
  C   C12       1.0  0.2881153545330973  0.6229916947617793  0.8847118161803919  1.0000
  C   C13       1.0  0.917934087705234  0.4347361300812835  0.20992716544209594  1.0000
  C   C14       1.0  0.08206131923804337  0.5652696251039868  0.7900669661753807  1.0000
  C   C15       1.0  0.046992379911252186  0.3263515170151621  0.19595578817124695  1.0000
  C   C16       1.0  0.9530092150310311  0.6736552759272596  0.8040393527767049  1.0000
  C   C17       1.0  0.14462915873805565  0.30152926965087085  0.08826895977556147  1.0000
  C   C18       1.0  0.8553692195998079  0.6984764121655755  0.911728124862968  1.0000
  C   C19       1.0  0.07419794926644836  0.24971626649050183  0.2732817516611518  1.0000
  C   C20       1.0  0.9257971785183301  0.7502883407216102  0.7267155286282756  1.0000
  O   O1        1.0  0.7345142395504353  0.7455384871211447  0.3179548254576117  1.0000
  O   O2        1.0  0.26548940855464315  0.25446064386769507  0.682043624199693  1.0000
  O   O3        1.0  0.775604308025677  0.8785062617083024  0.5225511041315938  1.0000
  O   O4        1.0  0.2243953064277874  0.12149397208995076  0.477447196490857  1.0000
  O   O5        1.0  0.2312442584524915  0.8004012766497933  0.36412454353353485  1.0000
  O   O6        1.0  0.7687642573257208  0.19959451933341646  0.6358770219039086  1.0000
  O   O7        1.0  0.1891320982491464  0.8895113736903465  0.5616631159217602  1.0000
  O   O8        1.0  0.8108709236416515  0.11048553439545827  0.43833813500007307  1.0000
  O   O9        1.0  0.6079077271121065  0.468472955793338  0.09506966763832025  1.0000
  O   O10       1.0  0.3920780511075319  0.531525211783787  0.904926448842424  1.0000
  O   O11       1.0  0.6421779445325412  0.24417722404216124  0.057583849505192554  1.0000
  O   O12       1.0  0.35781356109978185  0.7558238117502822  0.9424295379973343  1.0000
  O   O13       1.0  0.14774935478727252  0.3926097349076939  0.028826283193843876  1.0000
  O   O14       1.0  0.8522461920659268  0.6073916382216139  0.9711701203540598  1.0000
  O   O15       1.0  0.22627074953243206  0.1952476015245566  0.05628781042094028  1.0000
  O   O16       1.0  0.7737230070034897  0.8047526877072426  0.9437089542586178  1.0000
  O   O17       1.0  0.9696669433899953  0.8730263925024384  0.20120864364324814  1.0000
  O   O18       1.0  0.03033488044915337  0.12697169111051917  0.7987884191060245  1.0000
  O   O19       1.0  0.576711404494375  0.9512696691706635  0.1952485066596665  1.0000
  O   O20       1.0  0.4232864875391229  0.04872940768679259  0.8047536511738187  1.0000
  O   O21       1.0  0.3271045126555164  0.6633985032936635  0.15149262708919756  1.0000
  O   O22       1.0  0.6729096328047318  0.33659603450038117  0.8485162450226297  1.0000
