data_image0
_chemical_formula_structural       Zn2H24C42N2O12
_chemical_formula_sum              "Zn2 H24 C42 N2 O12"
_cell_length_a       11.946502015047884
_cell_length_b       18.273880644060345
_cell_length_c       19.668754793038552
_cell_angle_alpha    89.9854828747561
_cell_angle_beta     90.4656101964494
_cell_angle_gamma    89.95840364974678

_space_group_name_H-M_alt    "P 1"
_space_group_IT_number       1

loop_
  _space_group_symop_operation_xyz
  'x, y, z'

loop_
  _atom_site_type_symbol
  _atom_site_label
  _atom_site_symmetry_multiplicity
  _atom_site_fract_x
  _atom_site_fract_y
  _atom_site_fract_z
  _atom_site_occupancy
  Zn  Zn1       1.0  0.49995100077806853  0.4232721490731777  0.4999915106450104  1.0000
  Zn  Zn2       1.0  0.5000589777284219  0.5767283162758405  0.5000053162207293  1.0000
  H   H1        1.0  0.5006390889632257  0.6173902402723215  0.7159250214971778  1.0000
  H   H2        1.0  0.4993516353784385  0.3826074938207143  0.28407123800388945  1.0000
  H   H3        1.0  0.49899476919172514  0.6174559154929612  0.2840263295145249  1.0000
  H   H4        1.0  0.5010060180929372  0.3825418157303703  0.7159735199727635  1.0000
  H   H5        1.0  0.3382472122606757  0.4487031310998332  0.9358308485570106  1.0000
  H   H6        1.0  0.6617418452444427  0.5513000755102838  0.0641674386537545  1.0000
  H   H7        1.0  0.33769032645332697  0.4487953417997872  0.06210374925657901  1.0000
  H   H8        1.0  0.6622970543202129  0.5512078652804321  0.9378940243616257  1.0000
  H   H9        1.0  0.6136652053479353  0.30723270434466343  0.5797065015208602  1.0000
  H   H10       1.0  0.38633640737534597  0.6927677630109772  0.42029131639795037  1.0000
  H   H11       1.0  0.38614505659146664  0.3073269371163008  0.4203002838842025  1.0000
  H   H12       1.0  0.6138540562278791  0.6926713417572614  0.5796995603561683  1.0000
  H   H13       1.0  0.6179076027238679  0.17027070076775894  0.5840988839138319  1.0000
  H   H14       1.0  0.3820898472487643  0.8297303144274649  0.4159034968930655  1.0000
  H   H15       1.0  0.3821759902513406  0.17035141672643314  0.41590773239465756  1.0000
  H   H16       1.0  0.617818119887545  0.8296479574755937  0.5840961636369002  1.0000
  H   H17       1.0  0.323562933852557  0.0674490538356736  0.4758049143269716  1.0000
  H   H18       1.0  0.6764328595612525  0.9325475836517043  0.5242005125848053  1.0000
  H   H19       1.0  0.6762652589450937  0.06745052477894121  0.5242137975236362  1.0000
  H   H20       1.0  0.3237313655889195  0.9325477542839733  0.4757906148517392  1.0000
  H   H21       1.0  0.49792447499377357  0.6703905606958925  0.8197970924711768  1.0000
  H   H22       1.0  0.502062899555483  0.3296099103853934  0.180199156280473  1.0000
  H   H23       1.0  0.4981308618867929  0.6705275771723863  0.1800531623090365  1.0000
  H   H24       1.0  0.5018565254300995  0.3294728936632794  0.8199456285968199  1.0000
  C   C1        1.0  0.49812523844529016  0.4999887482383018  0.3671409372089087  1.0000
  C   C2        1.0  0.5018788821933882  0.5000035101943396  0.63285536443788  1.0000
  C   C3        1.0  0.4997120888539683  0.5000329333896334  0.07175513259011271  1.0000
  C   C4        1.0  0.5002761281468153  0.49997191516788325  0.9282426433533715  1.0000
  C   C5        1.0  0.5639481137559201  0.27407659859140676  0.5446179757869558  1.0000
  C   C6        1.0  0.4360518324498912  0.7259238690378356  0.4553813622626635  1.0000
  C   C7        1.0  0.4358802992875824  0.27413861194609973  0.4554123059227635  1.0000
  C   C8        1.0  0.5641179809752684  0.7258607614982254  0.5445885524280457  1.0000
  C   C9        1.0  0.5662324940989762  0.19809967012712096  0.5461889394358082  1.0000
  C   C10       1.0  0.43376579069641247  0.801900797677476  0.4538129356062938  1.0000
  C   C11       1.0  0.43367898385036335  0.1981680333756799  0.4538558565305594  1.0000
  C   C12       1.0  0.5663167984875627  0.8018302459959727  0.5461475364022732  1.0000
  C   C13       1.0  0.49993786130605145  0.15814398781287053  0.5000394349913436  1.0000
  C   C14       1.0  0.500055408903016  0.8418559338780157  0.49996394994332155  1.0000
  C   C15       1.0  0.401624442128842  0.038057648394094194  0.48540255426557627  1.0000
  C   C16       1.0  0.598369679085927  0.9619400839236507  0.5146033757449332  1.0000
  C   C17       1.0  0.5982990822717582  0.03803337420523429  0.5146265286801608  1.0000
  C   C18       1.0  0.4016958675096732  0.9619659997371742  0.4853778783631029  1.0000
  C   C19       1.0  0.500069260295291  0.9225443246498628  0.4999759657044294  1.0000
  C   C20       1.0  0.49992569261419123  0.0774539547849002  0.5000289499400665  1.0000
  C   C21       1.0  0.2800050482929848  0.4999642126043825  0.4988165443944013  1.0000
  C   C22       1.0  0.7200099975939054  0.5000335145003164  0.5011889417067864  1.0000
  C   C23       1.0  0.158939616027773  0.5000504350510937  0.4988306926687542  1.0000
  C   C24       1.0  0.841075462416825  0.4999582359019643  0.5011824181911847  1.0000
  C   C25       1.0  0.056498705579493005  0.5000082357775497  0.4995815350537569  1.0000
  C   C26       1.0  0.9435079418710615  0.4999933245280772  0.5004188403340422  1.0000
  C   C27       1.0  0.5016052684317316  0.566150756636624  0.7444502879144039  1.0000
  C   C28       1.0  0.4983888087985661  0.4338480709747331  0.2555469986014032  1.0000
  C   C29       1.0  0.498980593771492  0.5662259466734199  0.25552334412362404  1.0000
  C   C30       1.0  0.5010176765645227  0.43377287973814305  0.744475480589017  1.0000
  C   C31       1.0  0.5014037010915899  0.5657500325834731  0.8154438768842383  1.0000
  C   C32       1.0  0.49858199927961516  0.434250438918788  0.1845523667056881  1.0000
  C   C33       1.0  0.4998396864274568  0.5658543649096188  0.1845329182006878  1.0000
  C   C34       1.0  0.500152723998113  0.43414501020460966  0.815465888360727  1.0000
  C   C35       1.0  0.5006507691690416  0.49994508382643943  0.8528309498977222  1.0000
  C   C36       1.0  0.4993382869315893  0.5000559339157604  0.14716682922298216  1.0000
  C   C37       1.0  0.5016925782401813  0.49997113059426823  0.7089265638361298  1.0000
  C   C38       1.0  0.49830652350328114  0.5000287901635687  0.2910712464252967  1.0000
  C   C39       1.0  0.40939965156741925  0.47102648696579763  0.9640237696568336  1.0000
  C   C40       1.0  0.5905877235245497  0.5289778146711868  0.0359729869292948  1.0000
  C   C41       1.0  0.40913592896290407  0.4710593404475248  0.0348260961127025  1.0000
  C   C42       1.0  0.5908506118808249  0.5289444141215682  0.9651711664086022  1.0000
  N   N1        1.0  0.4998808854626873  0.31138185510125993  0.5000207349869896  1.0000
  N   N2        1.0  0.5001198930123536  0.6886180651864822  0.49997758886699734  1.0000
  O   O1        1.0  0.4980539977543046  0.43792631700962664  0.3968137084863699  1.0000
  O   O2        1.0  0.5019543051378363  0.5620768849066736  0.603183112791676  1.0000
  O   O3        1.0  0.5017346852419493  0.4379784966390191  0.6031710495058462  1.0000
  O   O4        1.0  0.4982711149054707  0.5620230640735855  0.3968272895777218  1.0000
  O   O5        1.0  0.3270377326001395  0.4374538908841431  0.4989391508241355  1.0000
  O   O6        1.0  0.6729672355334986  0.5625525949549228  0.5010607102043494  1.0000
  O   O7        1.0  0.6728596740438562  0.43760706239370256  0.5011050494466716  1.0000
  O   O8        1.0  0.32715953111476637  0.5624016086367547  0.4988963804081976  1.0000
  O   O9        1.0  0.5001966769037054  0.6299237008184662  0.8519833374349304  1.0000
  O   O10       1.0  0.49978148995352717  0.3700762253489104  0.1480128830124414  1.0000
  O   O11       1.0  0.4996691594143741  0.6300188766008076  0.1479419832782938  1.0000
  O   O12       1.0  0.5003182227954638  0.3699815943331047  0.8520557907658811  1.0000
