data_image0
_chemical_formula_structural       H24Pb2C32N20O8
_chemical_formula_sum              "H24 Pb2 C32 N20 O8"
_cell_length_a       4.9579971260344715
_cell_length_b       13.012604139836354
_cell_length_c       15.410302955730229
_cell_angle_alpha    109.86392310157554
_cell_angle_beta     89.97618333948793
_cell_angle_gamma    90.06327626220228

_space_group_name_H-M_alt    "P 1"
_space_group_IT_number       1

loop_
  _space_group_symop_operation_xyz
  'x, y, z'

loop_
  _atom_site_type_symbol
  _atom_site_label
  _atom_site_symmetry_multiplicity
  _atom_site_fract_x
  _atom_site_fract_y
  _atom_site_fract_z
  _atom_site_occupancy
  H   H1        1.0  0.5766934068182438  0.09641280963456467  0.5154090635625366  1.0000
  H   H2        1.0  0.0767192050370298  0.40350806892666913  0.9845811899758276  1.0000
  H   H3        1.0  0.4233438470455084  0.9036513805919028  0.48457877141880357  1.0000
  H   H4        1.0  0.9231340651058276  0.5964526218173773  0.015397166344193632  1.0000
  H   H5        1.0  0.24592335848463157  0.22116685497520186  0.7026412816315428  1.0000
  H   H6        1.0  0.7458443644656327  0.2789165945811405  0.7973716094059855  1.0000
  H   H7        1.0  0.7539443013612086  0.7789007759168309  0.2974286162852309  1.0000
  H   H8        1.0  0.2540411090254082  0.721049449304452  0.20264718304863297  1.0000
  H   H9        1.0  0.5900047862920202  0.26837364281677617  0.47974432120420835  1.0000
  H   H10       1.0  0.089667381088617  0.23152363948683788  0.02028851496797302  1.0000
  H   H11       1.0  0.41002228349158554  0.7316869065934738  0.5202801339419028  1.0000
  H   H12       1.0  0.9101556574146558  0.7684444418050729  0.9796944998259463  1.0000
  H   H13       1.0  0.34531764662428094  0.8929719797318326  0.7617115796054039  1.0000
  H   H14       1.0  0.8453259892655042  0.6071199489841986  0.7382378534695349  1.0000
  H   H15       1.0  0.6547414810713833  0.1070104915327761  0.23825276768031506  1.0000
  H   H16       1.0  0.15470290194859607  0.39289661571376655  0.26178598888323995  1.0000
  H   H17       1.0  0.1165329346761439  0.7813502782517502  0.71336230172102  1.0000
  H   H18       1.0  0.6166957908604472  0.7186738632686697  0.786576547826563  1.0000
  H   H19       1.0  0.8835402576441139  0.2186116336940671  0.2865852684500325  1.0000
  H   H20       1.0  0.3832868167689226  0.28134465150125715  0.21340435566717283  1.0000
  H   H21       1.0  0.2265711614359986  0.3900819036230771  0.6597103995734132  1.0000
  H   H22       1.0  0.72623117630949  0.11000280592855917  0.8403255744979108  1.0000
  H   H23       1.0  0.7736049075539951  0.6099024285434779  0.3402758946607776  1.0000
  H   H24       1.0  0.2738280222327703  0.8900459839974528  0.15973842736636362  1.0000
  Pb  Pb1       1.0  0.5007818738781536  0.9997798354915943  0.9999845905834379  1.0000
  Pb  Pb2       1.0  0.0003865126434376991  0.5000769965872961  0.5000044667832244  1.0000
  C   C1        1.0  0.9173118766170917  0.043924062348033  0.6345585249091528  1.0000
  C   C2        1.0  0.41737416123260124  0.4560668849472123  0.8654762491210805  1.0000
  C   C3        1.0  0.08261017260570472  0.9561005661245827  0.3654565286239448  1.0000
  C   C4        1.0  0.5824933986569008  0.5439479198256122  0.1345334574307699  1.0000
  C   C5        1.0  0.7252490452061976  0.15871361995590408  0.549598230425872  1.0000
  C   C6        1.0  0.22513430059959214  0.341216796958342  0.9504313671985616  1.0000
  C   C7        1.0  0.2747921615855944  0.8413409934281117  0.4504063965138699  1.0000
  C   C8        1.0  0.7747451594907631  0.658744048366877  0.04956066277687655  1.0000
  C   C9        1.0  0.0967918945087263  0.22897207558765587  0.6534200484006973  1.0000
  C   C10       1.0  0.5966575577811286  0.27108327575197677  0.8466130714162575  1.0000
  C   C11       1.0  0.9031644800593669  0.7710706888282884  0.3466143544375911  1.0000
  C   C12       1.0  0.40322398178795293  0.7289072504675074  0.1534099678223626  1.0000
  C   C13       1.0  0.7319806164519279  0.2548512187328598  0.5290287989676588  1.0000
  C   C14       1.0  0.23174077579881924  0.24507796799458964  0.9709998347124513  1.0000
  C   C15       1.0  0.26810697227823244  0.7452017582634766  0.47097602415073686  1.0000
  C   C16       1.0  0.7681648708448989  0.7548813825256385  0.02900411001511566  1.0000
  C   C17       1.0  0.13233205374395143  0.8699472537141943  0.7493267365994997  1.0000
  C   C18       1.0  0.6324074240543567  0.6300856382399258  0.7506125015589263  1.0000
  C   C19       1.0  0.8677431408372768  0.1300139017518447  0.2506258138898119  1.0000
  C   C20       1.0  0.36761542974310407  0.36992752219678227  0.24939870767332203  1.0000
  C   C21       1.0  0.9743972790136511  0.8980882383950757  0.8407751640098982  1.0000
  C   C22       1.0  0.4744186807175551  0.6018900148975418  0.6591811554103019  1.0000
  C   C23       1.0  0.025613116146409702  0.1018017621742402  0.15915035343071793  1.0000
  C   C24       1.0  0.5255901846579718  0.39815664062935235  0.3408387655586296  1.0000
  C   C25       1.0  0.9127936736958163  0.14446639076374615  0.6125753203314801  1.0000
  C   C26       1.0  0.4128060173557131  0.3555182834196415  0.8874535517841127  1.0000
  C   C27       1.0  0.0871768186173369  0.8555688721367712  0.387444657239719  1.0000
  C   C28       1.0  0.5870655064101129  0.6444802173071337  0.11255484281081612  1.0000
  C   C29       1.0  0.08725136078192722  0.32250618261246433  0.6292270127470375  1.0000
  C   C30       1.0  0.5869624121573835  0.17752381401958667  0.8707938621843143  1.0000
  C   C31       1.0  0.9128501993995287  0.6775050523628678  0.3707603041182211  1.0000
  C   C32       1.0  0.4129715773138686  0.8224833245489407  0.12925783648312725  1.0000
  N   N1        1.0  0.08766056155747749  0.0246895297592147  0.6951280373889974  1.0000
  N   N2        1.0  0.5877414034083371  0.47538577119331654  0.8048887459848474  1.0000
  N   N3        1.0  0.9122977053007376  0.9753047069941942  0.3048655461848712  1.0000
  N   N4        1.0  0.41212815670670017  0.5246216185391005  0.19511369665931266  1.0000
  N   N5        1.0  0.9099309806884436  0.3356487255972099  0.567806124887639  1.0000
  N   N6        1.0  0.4095371769566114  0.16434158419122719  0.9322444787474924  1.0000
  N   N7        1.0  0.09024935257400563  0.6643802392647588  0.4321666870713728  1.0000
  N   N8        1.0  0.5904591644301718  0.8356281085574505  0.06780973869604881  1.0000
  N   N9        1.0  0.0189615879535907  0.9238673565693387  0.6894910571678994  1.0000
  N   N10       1.0  0.5190066370609898  0.5761303049666466  0.8104683414972984  1.0000
  N   N11       1.0  0.9810329853854254  0.07611769404806519  0.3104837388150159  1.0000
  N   N12       1.0  0.48095372870956526  0.4238910089428315  0.1895425446826593  1.0000
  N   N13       1.0  0.7510729515458082  0.9570028426150187  0.595241497771248  1.0000
  N   N14       1.0  0.2510881829780871  0.5428627283493768  0.9047524629108639  1.0000
  N   N15       1.0  0.24886321109414677  0.04301430722316009  0.40476108372454433  1.0000
  N   N16       1.0  0.7488520955159643  0.4571814982151921  0.0952674212715507  1.0000
  N   N17       1.0  0.8161211918059906  0.8816536075478891  0.6306936500856822  1.0000
  N   N18       1.0  0.3161551503886741  0.618214454221352  0.8692425654005193  1.0000
  N   N19       1.0  0.18386132477206732  0.11834121230558739  0.36928063053165533  1.0000
  N   N20       1.0  0.683855717247816  0.38183144482576376  0.13078233588667132  1.0000
  O   O1        1.0  0.09702847659963251  0.8899036434377194  0.9100924435798705  1.0000
  O   O2        1.0  0.5972163872744288  0.6100309379507391  0.589833070344227  1.0000
  O   O3        1.0  0.9027560687693709  0.11001949975636897  0.08987735797974492  1.0000
  O   O4        1.0  0.4026634803841845  0.39002945977782844  0.4101757530849569  1.0000
  O   O5        1.0  0.7281687851353594  0.9234890509486462  0.8384374004194941  1.0000
  O   O6        1.0  0.22803891872827362  0.576512512598583  0.6615523611897488  1.0000
  O   O7        1.0  0.2717769188012014  0.07632922269915808  0.16141225322760994  1.0000
  O   O8        1.0  0.7719477461133906  0.4235492285671114  0.3385035723975207  1.0000
