data_image0
_chemical_formula_structural       Cd2P4H36C24N4O16
_chemical_formula_sum              "Cd2 P4 H36 C24 N4 O16"
_cell_length_a       8.666398615760874
_cell_length_b       9.710557103103248
_cell_length_c       11.638415769745178
_cell_angle_alpha    73.13754394609005
_cell_angle_beta     68.1592726009061
_cell_angle_gamma    63.46564669168122

_space_group_name_H-M_alt    "P 1"
_space_group_IT_number       1

loop_
  _space_group_symop_operation_xyz
  'x, y, z'

loop_
  _atom_site_type_symbol
  _atom_site_label
  _atom_site_symmetry_multiplicity
  _atom_site_fract_x
  _atom_site_fract_y
  _atom_site_fract_z
  _atom_site_occupancy
  Cd  Cd1       1.0  1.534879842717726e-06  0.5000000670169413  0.9999999316026874  1.0000
  Cd  Cd2       1.0  0.4999999452530943  0.9999993870882589  0.50000050784994  1.0000
  P   P1        1.0  0.8535555087339969  0.8230285363250616  0.7914654103691278  1.0000
  P   P2        1.0  0.4680609010012161  0.6770268738655363  0.7085050089469291  1.0000
  P   P3        1.0  0.1464438602790707  0.17697167830932872  0.2085338254786677  1.0000
  P   P4        1.0  0.5319402580842552  0.32297333973315995  0.29149492414454425  1.0000
  H   H1        1.0  0.685480822145095  0.5388922478529568  0.9134668673502874  1.0000
  H   H2        1.0  0.13802280474167336  0.9612924658370904  0.5865450661365514  1.0000
  H   H3        1.0  0.314521581993077  0.4611091296306995  0.08653241754304729  1.0000
  H   H4        1.0  0.8619750259753758  0.0387112410222912  0.41345375197042966  1.0000
  H   H5        1.0  0.6424582432398013  0.4656590178425262  0.05725489242536965  1.0000
  H   H6        1.0  0.16528804424824264  0.034505635758939904  0.4427174700687928  1.0000
  H   H7        1.0  0.35754425913848586  0.5343400328546649  0.9427431161451237  1.0000
  H   H8        1.0  0.8347120570521797  0.9654969068354192  0.5572809783339211  1.0000
  H   H9        1.0  0.7207272628670439  0.7395638251335725  0.7047700603334804  1.0000
  H   H10       1.0  0.16500346938102695  0.7605004388415822  0.7952234197073693  1.0000
  H   H11       1.0  0.27927248841688623  0.2604375530579688  0.2952293848892182  1.0000
  H   H12       1.0  0.8349957691375565  0.2395021034249539  0.20477588626838653  1.0000
  H   H13       1.0  0.7898373937260883  0.16444223890269427  0.9831072908036094  1.0000
  H   H14       1.0  0.9376332273960559  0.3352542465387387  0.5168354180849165  1.0000
  H   H15       1.0  0.21015900467058662  0.8355568111910898  0.0168943083884088  1.0000
  H   H16       1.0  0.062366979880024986  0.6647401470650321  0.48316622914365587  1.0000
  H   H17       1.0  0.841554673201756  0.13329188363063343  0.8267036112619125  1.0000
  H   H18       1.0  0.801924810094292  0.3664037621639197  0.6732401095170035  1.0000
  H   H19       1.0  0.1584447603200304  0.8667083293124235  0.1732980369756447  1.0000
  H   H20       1.0  0.19807683723769298  0.6335894660013324  0.3267632317752245  1.0000
  H   H21       1.0  0.9369426911863955  0.9786748759825414  0.934982277254882  1.0000
  H   H22       1.0  0.850950256975139  0.5209386201737728  0.5650339567379066  1.0000
  H   H23       1.0  0.06305763737159961  0.0213253364426578  0.0650197196045141  1.0000
  H   H24       1.0  0.14905177262771468  0.4790557715486301  0.43496959392922463  1.0000
  H   H25       1.0  0.49876074027107414  0.8060554180500857  0.9024648248719417  1.0000
  H   H26       1.0  0.20737332904507608  0.6941714444955451  0.5974077174690322  1.0000
  H   H27       1.0  0.5012405170545123  0.1939424687621312  0.09753383189669067  1.0000
  H   H28       1.0  0.7926271300073894  0.3058264402975155  0.4025942092624037  1.0000
  H   H29       1.0  0.9455001038731723  0.3377302528767174  0.8350344707409151  1.0000
  H   H30       1.0  0.11766649175112338  0.1631115772657381  0.6650517830967431  1.0000
  H   H31       1.0  0.05449759634939968  0.6622757816148024  0.16496441749402627  1.0000
  H   H32       1.0  0.8823292311313793  0.83689096538086  0.3349485407814187  1.0000
  H   H33       1.0  0.42483453934320187  0.33972932250024007  0.8323981842309112  1.0000
  H   H34       1.0  0.5967581550732959  0.1602198309238219  0.6677730393939855  1.0000
  H   H35       1.0  0.5751674502697454  0.6602708922719458  0.16759968509263962  1.0000
  H   H36       1.0  0.4032425572325876  0.8397792208090634  0.332224271932823  1.0000
  C   C1        1.0  0.8143852090362955  0.08087598668767271  0.925812920183269  1.0000
  C   C2        1.0  0.8213305600062031  0.4188837389529354  0.5741298817910804  1.0000
  C   C3        1.0  0.18561508726732967  0.9191242265832003  0.07418787048124635  1.0000
  C   C4        1.0  0.17866881674240193  0.5811106534773456  0.42587382920541483  1.0000
  C   C5        1.0  0.6555585131939169  0.0359347778907804  0.9634053231364278  1.0000
  C   C6        1.0  0.6550434252459424  0.46401142844922566  0.5365489481716639  1.0000
  C   C7        1.0  0.34444315865688685  0.9640642716329137  0.03659474920198138  1.0000
  C   C8        1.0  0.34495582100819194  0.5359852916132014  0.4634548329527917  1.0000
  C   C9        1.0  0.6544085370819984  0.9251289211077491  0.9076513282954084  1.0000
  C   C10       1.0  0.4873519199872832  0.5749424841694903  0.5922590338930506  1.0000
  C   C11       1.0  0.3455922397326106  0.07487012893379588  0.09234839542116197  1.0000
  C   C12       1.0  0.5126476440289807  0.42505540114142093  0.40774254421654643  1.0000
  C   C13       1.0  0.4995314772916186  0.8919085844468954  0.9451078563768008  1.0000
  C   C14       1.0  0.33662709102951294  0.6081966318891645  0.554820841515081  1.0000
  C   C15       1.0  0.5004701623048292  0.10809046592247283  0.05489100976673466  1.0000
  C   C16       1.0  0.6633728552576131  0.3918024169788978  0.4451809459694119  1.0000
  C   C17       1.0  0.09088443057807885  0.29846995409413074  0.7958641911167277  1.0000
  C   C18       1.0  0.18476415369337923  0.20217389149054546  0.7042386908719678  1.0000
  C   C19       1.0  0.9091148079405116  0.7015325881724052  0.2041351148590351  1.0000
  C   C20       1.0  0.8152336770236702  0.7978298153688356  0.2957601272350133  1.0000
  C   C21       1.0  0.3563080669651911  0.2992331265514139  0.7956073475927069  1.0000
  C   C22       1.0  0.45090496905170613  0.20095099260419858  0.7045196873891727  1.0000
  C   C23       1.0  0.6436939226477563  0.7007670882207719  0.2043905217308435  1.0000
  C   C24       1.0  0.5490943677069995  0.7990492228758653  0.2954783422637419  1.0000
  N   N1        1.0  0.17710367731064716  0.3466570614346622  0.8410102371671827  1.0000
  N   N2        1.0  0.36437483342726296  0.15372898457290057  0.6590902182647653  1.0000
  N   N3        1.0  0.8228977995369602  0.6533443174125184  0.15898749290943212  1.0000
  N   N4        1.0  0.6356227777677576  0.8462712302515172  0.34090952653423295  1.0000
  O   O1        1.0  0.7390021133103203  0.48912033959277323  0.9836465147468089  1.0000
  O   O2        1.0  0.21164483984306068  0.011233726768622901  0.5163595774325103  1.0000
  O   O3        1.0  0.26099939579165005  0.5108810384087334  0.01635242152468663  1.0000
  O   O4        1.0  0.7883535036393211  0.9887688160157563  0.4836393799214136  1.0000
  O   O5        1.0  0.0020289228622659325  0.7246731550970295  0.8581100211684785  1.0000
  O   O6        1.0  0.5846129891542803  0.7754472912827525  0.6419858363170691  1.0000
  O   O7        1.0  0.9979707961672943  0.2753282239401784  0.1418882178593393  1.0000
  O   O8        1.0  0.41538730714935207  0.2245529219881206  0.3580149543474462  1.0000
  O   O9        1.0  0.9035916329365818  0.9382065205071726  0.679399392844694  1.0000
  O   O10       1.0  0.5212883459721667  0.5618297838123496  0.8206134287735622  1.0000
  O   O11       1.0  0.09640811834734114  0.061794857684361694  0.3206000523780049  1.0000
  O   O12       1.0  0.478711918077096  0.43817043030419706  0.17938615569607222  1.0000
  O   O13       1.0  0.8133931330744562  0.7007021482489293  0.754990472603744  1.0000
  O   O14       1.0  0.2689751790787654  0.7993072961169005  0.7449087411388788  1.0000
  O   O15       1.0  0.18660850652198488  0.2992969021204387  0.2450083935397842  1.0000
  O   O16       1.0  0.7310268750429073  0.20069291696393782  0.25509154057444045  1.0000
