data_image0
_chemical_formula_structural       Cd2H24C24Br4N8O12
_chemical_formula_sum              "Cd2 H24 C24 Br4 N8 O12"
_cell_length_a       3.9293607213636053
_cell_length_b       8.067251330775877
_cell_length_c       28.540282064323495
_cell_angle_alpha    89.08148473601989
_cell_angle_beta     86.02919868130971
_cell_angle_gamma    76.66293929786997

_space_group_name_H-M_alt    "P 1"
_space_group_IT_number       1

loop_
  _space_group_symop_operation_xyz
  'x, y, z'

loop_
  _atom_site_type_symbol
  _atom_site_label
  _atom_site_symmetry_multiplicity
  _atom_site_fract_x
  _atom_site_fract_y
  _atom_site_fract_z
  _atom_site_occupancy
  Cd  Cd1       1.0  0.2472572521609635  0.0077407234927733  0.0017743906877000998  1.0000
  Cd  Cd2       1.0  0.9968599003386771  0.5076378265041087  0.4983156341833704  1.0000
  H   H1        1.0  0.8685325249332296  0.4610917633415141  0.03165908316531579  1.0000
  H   H2        1.0  0.08311315880728633  0.06307084119865182  0.5341394222759419  1.0000
  H   H3        1.0  0.647479415811077  0.9611121630465645  0.468438173338761  1.0000
  H   H4        1.0  0.3690107695327711  0.5627861359140455  0.9658166716684421  1.0000
  H   H5        1.0  0.11612638982028058  0.3356603364816308  0.10704185230162719  1.0000
  H   H6        1.0  0.1936545609925133  0.17512552847355078  0.6125573483505633  1.0000
  H   H7        1.0  0.9707185809837143  0.8353282128345186  0.3931132407843094  1.0000
  H   H8        1.0  0.5595949871379773  0.6747684859213123  0.887424547008493  1.0000
  H   H9        1.0  0.19010245339377718  0.8599120122447987  0.10427869280040619  1.0000
  H   H10       1.0  0.8024007771829171  0.6442050061008474  0.5985048616703494  1.0000
  H   H11       1.0  0.04296093545021055  0.3598439271929195  0.39568881822335555  1.0000
  H   H12       1.0  0.15276841433687577  0.14414850284934033  0.9014003170413787  1.0000
  H   H13       1.0  0.5776701255334232  0.8362108328283853  0.21106802973106648  1.0000
  H   H14       1.0  0.1518389065649618  0.6460398815773942  0.7065677829261076  1.0000
  H   H15       1.0  0.5386400119030056  0.3357903877489364  0.288959226164323  1.0000
  H   H16       1.0  0.6105518031368362  0.14636187890298666  0.7932881062083155  1.0000
  H   H17       1.0  0.18169401045844327  0.9092768507885224  0.18271439475080342  1.0000
  H   H18       1.0  0.8301753626228103  0.5787849621112502  0.6755666854022664  1.0000
  H   H19       1.0  0.11393676362133932  0.4089835101873902  0.31725188570563734  1.0000
  H   H20       1.0  0.25801697354481246  0.0788953348543231  0.8242977097801399  1.0000
  H   H21       1.0  0.2473138323511393  0.7249931760849223  0.21962020036761487  1.0000
  H   H22       1.0  0.7142259536127825  0.7529663999471765  0.7160819360897009  1.0000
  H   H23       1.0  0.2166795370358656  0.2247690041060224  0.2803534865512205  1.0000
  H   H24       1.0  0.18228496542211314  0.25318321860169857  0.7838224906853952  1.0000
  C   C1        1.0  0.7811476155961615  0.5182929936635433  0.06598427980791399  1.0000
  C   C2        1.0  0.051084989793665304  0.9982270036998672  0.5673820754071599  1.0000
  C   C3        1.0  0.5945830653718291  0.0181742328286489  0.434087404538694  1.0000
  C   C4        1.0  0.37044428259633133  0.4979843538553865  0.9325737189710495  1.0000
  C   C5        1.0  0.9119054177081982  0.4525738557153646  0.1075730352728854  1.0000
  C   C6        1.0  0.10979854225862326  0.056182370466118015  0.6105105483811571  1.0000
  C   C7        1.0  0.7672404710460012  0.9522724739187326  0.3925278929426455  1.0000
  C   C8        1.0  0.4730064630342312  0.5559284755795416  0.8894553362144606  1.0000
  C   C9        1.0  0.7822886725459458  0.5344245189999484  0.1500333552411348  1.0000
  C   C10       1.0  0.0616842701278843  0.9635906359309844  0.6512430362577319  1.0000
  C   C11       1.0  0.6808968162841754  0.0340898750495242  0.3500551606140121  1.0000
  C   C12       1.0  0.4654709106945559  0.4635524632813742  0.8486881350120257  1.0000
  C   C13       1.0  0.5240024099050868  0.6886113743875557  0.1509778407387117  1.0000
  C   C14       1.0  0.9572536548792742  0.8079658069074114  0.648962867438172  1.0000
  C   C15       1.0  0.42367947644983417  0.18828488678624208  0.3490437089463967  1.0000
  C   C16       1.0  0.3582610970283471  0.3080498968737188  0.8509547576531347  1.0000
  C   C17       1.0  0.3993334267687914  0.7465878538469966  0.10774657047617349  1.0000
  C   C18       1.0  0.8966541369611746  0.7583345166238189  0.6043811363827629  1.0000
  C   C19       1.0  0.2552880537659944  0.24632657039522604  0.3922683045762057  1.0000
  C   C20       1.0  0.25288545058759837  0.25832123789603406  0.8955349513325217  1.0000
  C   C21       1.0  0.3725721328030999  0.7953448915913411  0.19311737949188057  1.0000
  C   C22       1.0  0.9084519720807266  0.6904829230545244  0.6887001533158853  1.0000
  C   C23       1.0  0.31526396591463884  0.2950218828169895  0.3068831368235649  1.0000
  C   C24       1.0  0.3492426912262729  0.19068585821868567  0.811191071457401  1.0000
  Br  Br1       1.0  0.823350339099676  0.9170832866752364  0.9381282201384592  1.0000
  Br  Br2       1.0  0.48782632005041654  0.5922995990522467  0.4347873452407569  1.0000
  Br  Br3       1.0  0.5069068218969406  0.41743867445340754  0.5620228196409656  1.0000
  Br  Br4       1.0  0.6727756596916948  0.09298526010398689  0.0653154720374474  1.0000
  N   N1        1.0  0.5189237634969076  0.6625397750156878  0.06665662925220768  1.0000
  N   N2        1.0  0.9386539753856344  0.8507207420708126  0.5649232376290456  1.0000
  N   N3        1.0  0.33317119824518937  0.16240879879322986  0.433376480602476  1.0000
  N   N4        1.0  0.25531643834784035  0.3505884390163986  0.9350119317406467  1.0000
  N   N5        1.0  0.9252361973308473  0.45149307522247284  0.1927438047928973  1.0000
  N   N6        1.0  0.12261178591797521  0.0368195149834136  0.6957023472144641  1.0000
  N   N7        1.0  0.8673409231723355  0.9511537485407261  0.3073785978877908  1.0000
  N   N8        1.0  0.5719324332649337  0.5365278411083594  0.8042369159986366  1.0000
  O   O1        1.0  0.378151559564067  0.7167914372599854  0.027371448634347883  1.0000
  O   O2        1.0  0.8658662081558075  0.8004389685763516  0.5241588033501827  1.0000
  O   O3        1.0  0.15289081656811013  0.21676180460205066  0.47265845752785657  1.0000
  O   O4        1.0  0.1414486272289467  0.30030531252561604  0.9757661292707738  1.0000
  O   O5        1.0  0.16788712651590035  0.3218659238717052  0.18808513403963187  1.0000
  O   O6        1.0  0.24545454126196384  0.16591743591813207  0.6936939010393174  1.0000
  O   O7        1.0  0.10465922284343776  0.8212912122739126  0.3120718200249897  1.0000
  O   O8        1.0  0.6967277041350499  0.6644164483267048  0.8062430551215912  1.0000
  O   O9        1.0  0.7961404363190925  0.5142102693278546  0.23125904013733134  1.0000
  O   O10       1.0  0.04824799367347779  0.9665483507694431  0.7328146924522088  1.0000
  O   O11       1.0  0.7781128481757663  0.014190938551962502  0.268850944025651  1.0000
  O   O12       1.0  0.5317218011571401  0.46720737356515935  0.7671202920851882  1.0000
