data_image0
_chemical_formula_structural       Zn4H34C51N4O15
_chemical_formula_sum              "Zn4 H34 C51 N4 O15"
_cell_length_a       15.3217291123812
_cell_length_b       15.537921744430196
_cell_length_c       19.45630841824044
_cell_angle_alpha    81.2087745435622
_cell_angle_beta     76.6374949822477
_cell_angle_gamma    72.65262507267319

_space_group_name_H-M_alt    "P 1"
_space_group_IT_number       1

loop_
  _space_group_symop_operation_xyz
  'x, y, z'

loop_
  _atom_site_type_symbol
  _atom_site_label
  _atom_site_symmetry_multiplicity
  _atom_site_fract_x
  _atom_site_fract_y
  _atom_site_fract_z
  _atom_site_occupancy
  Zn  Zn1       1.0  0.403150303082924  0.580224967101451  0.4534216246275378  1.0000
  Zn  Zn2       1.0  0.42178061482456997  0.4461227887459386  0.5919288655735784  1.0000
  Zn  Zn3       1.0  0.5717875814116693  0.540539310679833  0.5361816314095548  1.0000
  Zn  Zn4       1.0  0.5755936038100841  0.39284913273723987  0.4416785865064837  1.0000
  H   H1        1.0  0.3945006008628198  0.6346658440677045  0.23793978513383957  1.0000
  H   H2        1.0  0.6226083063753833  0.5007883330010969  0.7496315174003669  1.0000
  H   H3        1.0  0.4013831913564586  0.6168476643273382  0.00522297339690431  1.0000
  H   H4        1.0  0.6441020624534203  0.41066775431981023  0.09389261473978643  1.0000
  H   H5        1.0  0.6251122262948171  0.5142734099624917  0.8738295701791259  1.0000
  H   H6        1.0  0.6269821016625626  0.3966684533319765  0.22532939689099146  1.0000
  H   H7        1.0  0.5997964097243552  0.48788409360917484  0.9871215133591772  1.0000
  H   H8        1.0  0.4092865027056689  0.6489518265347484  0.10747016611748715  1.0000
  H   H9        1.0  0.3282932267860658  0.6392956159625102  0.9089735523824558  1.0000
  H   H10       1.0  0.4887602273552289  0.17982003519153983  0.6835719305206851  1.0000
  H   H11       1.0  0.501175647065395  0.8657313536991535  0.6901173680748582  1.0000
  H   H12       1.0  0.5095153488571141  0.13509640421230532  0.4678457908186501  1.0000
  H   H13       1.0  0.45219761904939293  0.8133841624648497  0.36433293371022296  1.0000
  H   H14       1.0  0.4620349467583367  0.07085297616515622  0.41048912535598686  1.0000
  H   H15       1.0  0.4439663548610822  0.9758075485985104  0.32761539948094043  1.0000
  H   H16       1.0  0.13278402237400394  0.5390471386385087  0.6670887177929785  1.0000
  H   H17       1.0  0.9683266821938754  0.5346124860805475  0.7000991350461447  1.0000
  H   H18       1.0  0.1420873282708399  0.4997718330851982  0.4523249925799319  1.0000
  H   H19       1.0  0.8620747228815232  0.37491784189596433  0.3467054326603999  1.0000
  H   H20       1.0  0.0900953751831963  0.4516669632740076  0.3887726184392051  1.0000
  H   H21       1.0  0.02322251175617397  0.3938026291826092  0.30857459560109385  1.0000
  H   H22       1.0  0.7594848377131668  0.46594435742014884  0.5846958967196156  1.0000
  H   H23       1.0  0.5162171169256877  0.7284907418177511  0.6591642481566209  1.0000
  H   H24       1.0  0.6577979051161904  0.6313474746776889  0.6040080903414021  1.0000
  H   H25       1.0  0.6750061337871641  0.7377180678510982  0.6128257039956679  1.0000
  H   H26       1.0  0.6623082149724837  0.7129615049075896  0.5294177032600088  1.0000
  H   H27       1.0  0.7491543374782877  0.5108912106553873  0.686852784949764  1.0000
  H   H28       1.0  0.7265930502130046  0.637596987443061  0.7343612204026682  1.0000
  H   H29       1.0  0.8270606130857702  0.6576752907370321  0.6748416871183661  1.0000
  H   H30       1.0  0.8373810033546506  0.5937356469634452  0.7582647542282999  1.0000
  H   H31       1.0  0.2553475754919177  0.6710603694694514  0.8193674792114223  1.0000
  H   H32       1.0  0.23375069026322845  0.7329078976078593  0.7106834502133594  1.0000
  H   H33       1.0  0.2831455333346113  0.6218118195356226  0.6814125207681343  1.0000
  H   H34       1.0  0.35552434499353325  0.6938742739716799  0.6769127473106806  1.0000
  C   C1        1.0  0.5057920994204039  0.2607365763746401  0.5502319759922969  1.0000
  C   C2        1.0  0.48770336987983837  0.7156038037948774  0.47812463734250343  1.0000
  C   C3        1.0  0.24394757252095184  0.5254500843986493  0.540009512850375  1.0000
  C   C4        1.0  0.7415767233468529  0.4143955075125874  0.46426885992248396  1.0000
  C   C5        1.0  0.48341838119341657  0.5332425502548261  0.6864631712501464  1.0000
  C   C6        1.0  0.49807563462163523  0.5048330762067934  0.318365175288342  1.0000
  C   C7        1.0  0.5089340024146338  0.5139941946457682  0.23970799885324814  1.0000
  C   C8        1.0  0.44830970681726257  0.5854392675609077  0.20578399348742235  1.0000
  C   C9        1.0  0.4566822437750914  0.5926838679520473  0.1327610083358266  1.0000
  C   C10       1.0  0.5263793455912448  0.529172462965974  0.0909131423955145  1.0000
  C   C11       1.0  0.5887585973430091  0.4596438250238037  0.12543168025708704  1.0000
  C   C12       1.0  0.5797084450935017  0.45140529205905017  0.19870774917396963  1.0000
  C   C13       1.0  0.5596570950014765  0.5386222074587792  0.8549435759925429  1.0000
  C   C14       1.0  0.5585515577762976  0.5326842369309546  0.7851537476685947  1.0000
  C   C15       1.0  0.39087044905254936  0.6028142203679463  0.8024127466690203  1.0000
  C   C16       1.0  0.3934371829616053  0.6079585961086594  0.8738749648185757  1.0000
  C   C17       1.0  0.47476627760649154  0.5748287828751798  0.9015477199255882  1.0000
  C   C18       1.0  0.5349498267935999  0.5315110398936369  0.014594949171410576  1.0000
  C   C19       1.0  0.46843499923826926  0.577518733835852  0.9770810856988417  1.0000
  C   C20       1.0  0.4758246481217937  0.560473863645811  0.7577422523155518  1.0000
  C   C21       1.0  0.48420358806389163  0.04837305333343522  0.6663714350399345  1.0000
  C   C22       1.0  0.4998064807375187  0.16607944391657264  0.5725310673373655  1.0000
  C   C23       1.0  0.46485442733439436  0.8544344142257644  0.39974244553684446  1.0000
  C   C24       1.0  0.4594916204420583  0.9459145767360156  0.3793502562212012  1.0000
  C   C25       1.0  0.4705846301623993  0.9989248094452917  0.42591068567306667  1.0000
  C   C26       1.0  0.487661582493274  0.9625080312736716  0.49407461683314574  1.0000
  C   C27       1.0  0.49678671898123367  0.8679941664022268  0.5143737668505324  1.0000
  C   C28       1.0  0.49136537900402993  0.021168475654576496  0.544554197824226  1.0000
  C   C29       1.0  0.4864956211723381  0.9874441352428677  0.617687304390472  1.0000
  C   C30       1.0  0.4964687125793432  0.893517932343805  0.6358300449663972  1.0000
  C   C31       1.0  0.5092714382039532  0.8346351878229612  0.5861380735303781  1.0000
  C   C32       1.0  0.5005756107124029  0.10922395920892569  0.5234931182175017  1.0000
  C   C33       1.0  0.4904508179264154  0.13550856615145787  0.6448227077253675  1.0000
  C   C34       1.0  0.4847870465546292  0.8146373932880736  0.4654932702555143  1.0000
  C   C35       1.0  0.005213469933636393  0.5281128663182244  0.6454527666408862  1.0000
  C   C36       1.0  0.14462025892988342  0.5233584701009165  0.5565715134441973  1.0000
  C   C37       1.0  0.8929400453687676  0.3991254648965992  0.3824480235105198  1.0000
  C   C38       1.0  0.9827949989948834  0.4101922658709327  0.36113694602126134  1.0000
  C   C39       1.0  0.020124595665897946  0.44312263055408624  0.4067594382512922  1.0000
  C   C40       1.0  0.9703199383462078  0.4645805407743921  0.4752436853579025  1.0000
  C   C41       1.0  0.8782947872443287  0.45219294818928557  0.49831504297250007  1.0000
  C   C42       1.0  0.0107649961493834  0.49586784719723204  0.5243403270034435  1.0000
  C   C43       1.0  0.9599894721035158  0.5122150946601707  0.5948714536638491  1.0000
  C   C44       1.0  0.8654946594995748  0.5056059373688697  0.6143160123203727  1.0000
  C   C45       1.0  0.8294014469161012  0.4739381538138758  0.5676692089813428  1.0000
  C   C46       1.0  0.1018967057989855  0.507045343145144  0.5061364374234144  1.0000
  C   C47       1.0  0.09656907341169335  0.5310465584316404  0.6275046718726783  1.0000
  C   C48       1.0  0.8395090057090754  0.4203821233760652  0.4492489800578808  1.0000
  C   C49       1.0  0.6389858740808306  0.7037883054834354  0.5869155791199104  1.0000
  C   C50       1.0  0.8008790661842153  0.6073841941333952  0.7135881677951941  1.0000
  C   C51       1.0  0.2943919005393738  0.6732928508882523  0.708769607067488  1.0000
  N   N1        1.0  0.475861953441985  0.021154208271980203  0.7429789396854716  1.0000
  N   N2        1.0  0.5365843663216907  0.7405508634725351  0.6056139230665635  1.0000
  N   N3        1.0  0.8110434785686209  0.5252310244177778  0.6809011793088401  1.0000
  N   N4        1.0  0.30741745395155107  0.6411101244705293  0.7807922398184743  1.0000
  O   O1        1.0  0.4910746754915038  0.48730692753803595  0.5020638417686953  1.0000
  O   O2        1.0  0.5418378154089821  0.2794659685102019  0.4856882745788695  1.0000
  O   O3        1.0  0.4109954161263474  0.6976514418541415  0.4799580528631679  1.0000
  O   O4        1.0  0.28835981838303587  0.49057600454560196  0.590141200750061  1.0000
  O   O5        1.0  0.687274447881947  0.44255094496065783  0.5220323263551093  1.0000
  O   O6        1.0  0.42036567374361766  0.5002338848923885  0.6772933248098096  1.0000
  O   O7        1.0  0.5425004335400984  0.42987895343595994  0.3468233989966905  1.0000
  O   O8        1.0  0.55595800571475  0.5399286559073886  0.6395381181604094  1.0000
  O   O9        1.0  0.44418343741238414  0.5730317748092305  0.35081400573236  1.0000
  O   O10       1.0  0.27675899295837064  0.5610861070168413  0.47961881752349445  1.0000
  O   O11       1.0  0.7125028377576256  0.3827607749143527  0.419193311763884  1.0000
  O   O12       1.0  0.4730937516947049  0.3146231330824847  0.5992740665138001  1.0000
  O   O13       1.0  0.5666121580331732  0.6572355777416021  0.47874588589043293  1.0000
  O   O14       1.0  0.43290699344544936  0.9636235034153272  0.7693561789764302  1.0000
  O   O15       1.0  0.5110507984982745  0.05837045104114941  0.7772922808175267  1.0000
