data_image0
_chemical_formula_structural       Zn2H24C38N2Cl4O16
_chemical_formula_sum              "Zn2 H24 C38 N2 Cl4 O16"
_cell_length_a       10.753342785284
_cell_length_b       12.80473794787826
_cell_length_c       12.988026300548881
_cell_angle_alpha    82.12281044735894
_cell_angle_beta     87.37756264092506
_cell_angle_gamma    77.95260165162412

_space_group_name_H-M_alt    "P 1"
_space_group_IT_number       1

loop_
  _space_group_symop_operation_xyz
  'x, y, z'

loop_
  _atom_site_type_symbol
  _atom_site_label
  _atom_site_symmetry_multiplicity
  _atom_site_fract_x
  _atom_site_fract_y
  _atom_site_fract_z
  _atom_site_occupancy
  Zn  Zn1       1.0  0.4835354820585849  0.611815357024767  0.5243441777224829  1.0000
  Zn  Zn2       1.0  0.5483278914615682  0.3899010120410153  0.4678724453756331  1.0000
  H   H1        1.0  0.9588438263603083  0.3379711170570587  0.5707389491987555  1.0000
  H   H2        1.0  0.6012091094300659  0.9450138066405529  0.3473093141948098  1.0000
  H   H3        1.0  0.08198132348849195  0.6360010631224141  0.3828252664889859  1.0000
  H   H4        1.0  0.09629361834354466  0.6576664419221032  0.5124851820641609  1.0000
  H   H5        1.0  0.08976354314291517  0.4955129054037357  0.6537002182431024  1.0000
  H   H6        1.0  0.9349645808283642  0.3750909970525527  0.38114275399307457  1.0000
  H   H7        1.0  0.9378949114199174  0.5066266374014106  0.3202894773099416  1.0000
  H   H8        1.0  0.1580183282884349  0.45613675485228095  0.33081481578776106  1.0000
  H   H9        1.0  0.3690757020136815  0.23842143066261912  0.25130465274788344  1.0000
  H   H10       1.0  0.626329694854384  0.139297870280906  0.9739207927209604  1.0000
  H   H11       1.0  0.40505192478179464  0.8631784978376231  0.1478782254085047  1.0000
  H   H12       1.0  0.15512459711290924  0.36379954189195735  0.6246015844830168  1.0000
  H   H13       1.0  0.3455421735853009  0.853150550823578  0.9269895993541155  1.0000
  H   H14       1.0  0.262898260611671  0.9694223818140554  0.7829525331754467  1.0000
  H   H15       1.0  0.6333760785104517  0.14602163704337562  0.1661361619740802  1.0000
  H   H16       1.0  0.4555383849216242  0.2994425865249895  0.6335458988774434  1.0000
  H   H17       1.0  0.8634026513812076  0.507875571949512  0.6878940872802914  1.0000
  H   H18       1.0  0.3418129082569764  0.6802171087088594  0.9046741062744772  1.0000
  H   H19       1.0  0.8631514238063006  0.6625334629556009  0.4191082041473066  1.0000
  H   H20       1.0  0.3755222223011146  0.4072853031931132  0.27783662038124385  1.0000
  H   H21       1.0  0.364417147021264  0.7113900708183181  0.703860982296902  1.0000
  H   H22       1.0  0.3305640274731516  0.09119969465439938  0.729877730390683  1.0000
  H   H23       1.0  0.5495367475109563  0.821258764232212  0.43757806435567653  1.0000
  H   H24       1.0  0.6398553932532067  0.27389381579877886  0.3128891210377844  1.0000
  C   C1        1.0  0.46277809859380187  0.5809222331241273  0.3082166163209479  1.0000
  C   C2        1.0  0.3688457602046  0.5514555513598296  0.035175305825518394  1.0000
  C   C3        1.0  0.3880738118322853  0.5294007015437997  0.14448621885683366  1.0000
  C   C4        1.0  0.7541890961400386  0.4903532903744718  0.48347272877152386  1.0000
  C   C5        1.0  0.3943117113353551  0.46091144980843507  0.9758483420018534  1.0000
  C   C6        1.0  0.44004762576297224  0.35482562190761496  0.027700241200008708  1.0000
  C   C7        1.0  0.41123925663772815  0.33748567399238993  0.13749101959196247  1.0000
  C   C8        1.0  0.3893089213440605  0.42219809354801896  0.19381935935454206  1.0000
  C   C9        1.0  0.3964973293280566  0.47211211080318083  0.8656106362360133  1.0000
  C   C10       1.0  0.5444530602998584  0.30360154504467113  0.8662546686202076  1.0000
  C   C11       1.0  0.40853398098325755  0.6118415494999426  0.20150087586871016  1.0000
  C   C12       1.0  0.13943872285481262  0.489436138480933  0.4910942795066403  1.0000
  C   C13       1.0  0.3676591695064106  0.8802998363223081  0.6905967587476239  1.0000
  C   C14       1.0  0.6064625817394074  0.20607933376745546  0.35787456583610566  1.0000
  C   C15       1.0  0.6229314589330528  0.10747569649242192  0.31667689843582264  1.0000
  C   C16       1.0  0.5163699960423997  0.4403431198421046  0.6995010576027025  1.0000
  C   C17       1.0  0.5861063398593629  0.021722206322742504  0.3780444042720814  1.0000
  C   C18       1.0  0.52486221740552  0.035613306887356096  0.47468731981989976  1.0000
  C   C19       1.0  0.5034616658278921  0.14029247993359917  0.5080863281378782  1.0000
  C   C20       1.0  0.47925984718909126  0.9472771566886209  0.536498823308129  1.0000
  C   C21       1.0  0.40921220980688133  0.9678418855423626  0.6298535847685469  1.0000
  C   C22       1.0  0.38400579527660034  0.07182700023188458  0.6591146144282615  1.0000
  C   C23       1.0  0.09060273886027662  0.43966024827043537  0.5964620286972462  1.0000
  C   C24       1.0  0.4273431022345022  0.1571608985631769  0.6027273569578355  1.0000
  C   C25       1.0  0.4994707814004187  0.8425594536630214  0.5089281159400443  1.0000
  C   C26       1.0  0.39420254501492746  0.7800342837221734  0.6583339695443299  1.0000
  C   C27       1.0  0.2799976813854954  0.49208232922168094  0.49944998746074276  1.0000
  C   C28       1.0  0.9194760483939961  0.609795088207278  0.48126530589446753  1.0000
  C   C29       1.0  0.06268027904545902  0.6058236727618791  0.46428526810404236  1.0000
  C   C30       1.0  0.9549992656405805  0.4211615859523405  0.5850217844139678  1.0000
  C   C31       1.0  0.965572103058335  0.4495001079142469  0.39074532824776037  1.0000
  C   C32       1.0  0.894769726289084  0.4952130479169341  0.4867991552681942  1.0000
  C   C33       1.0  0.11086550858259164  0.4288373871195575  0.4030904150326576  1.0000
  C   C34       1.0  0.5156068135717291  0.2766536552716587  0.9713942504337607  1.0000
  C   C35       1.0  0.4832132549227809  0.4020960730367947  0.8102252074888909  1.0000
  C   C36       1.0  0.3939326351335595  0.7176430415767072  0.1521271452100095  1.0000
  C   C37       1.0  0.36440820899729  0.7402258477039039  0.0448943706589375  1.0000
  C   C38       1.0  0.3548641322068065  0.6594232993855728  0.9878916816873725  1.0000
  N   N1        1.0  0.4582758172331865  0.76225020257327  0.5677759548355751  1.0000
  N   N2        1.0  0.5493089950635195  0.2225255386255824  0.4495588108951622  1.0000
  Cl  Cl1       1.0  0.8640512439952347  0.675174792112095  0.5965257056358337  1.0000
  Cl  Cl2       1.0  0.1745219246057417  0.28402605840965833  0.42334751561363493  1.0000
  Cl  Cl3       1.0  0.6589602220559669  0.21082238166433595  0.8098590365849957  1.0000
  Cl  Cl4       1.0  0.278170848520503  0.5658794390664285  0.7983570365767958  1.0000
  O   O1        1.0  0.4293848824743805  0.64752264794177  0.3737751436443232  1.0000
  O   O2        1.0  0.570925280000971  0.1790341531660644  0.0241383383980462  1.0000
  O   O3        1.0  0.41527554334826533  0.7996789375610261  0.20076561274024127  1.0000
  O   O4        1.0  0.3561709936325102  0.8458758606052612  0.0026802923656959097  1.0000
  O   O5        1.0  0.3007117404487686  0.8931720626248637  0.7830939173461073  1.0000
  O   O6        1.0  0.6778379208065389  0.09317280455191217  0.22191007463108287  1.0000
  O   O7        1.0  0.3895367657360183  0.2507530778463334  0.6387232152208924  1.0000
  O   O8        1.0  0.8789478077399124  0.43205154049503847  0.6771899878013201  1.0000
  O   O9        1.0  0.5398584657180407  0.4901307136600364  0.3251514748666935  1.0000
  O   O10       1.0  0.67324679526741  0.5768777587330475  0.4884975336068038  1.0000
  O   O11       1.0  0.7309197755022441  0.39782998401904024  0.4761184298836482  1.0000
  O   O12       1.0  0.523356858294683  0.5376379931610913  0.6782100458382203  1.0000
  O   O13       1.0  0.5379277370356023  0.37258886496638866  0.6329250349432556  1.0000
  O   O14       1.0  0.3090606778629096  0.5608415417502073  0.5505542381879562  1.0000
  O   O15       1.0  0.35843626863731265  0.42259831035465817  0.4549949205261185  1.0000
  O   O16       1.0  0.4076232106182546  0.23409913642721136  0.18187915150939918  1.0000
