data_image0
_chemical_formula_structural       Cu12H40W2C40S8I8N8
_chemical_formula_sum              "Cu12 H40 W2 C40 S8 I8 N8"
_cell_length_a       12.868568192867233
_cell_length_b       12.86863137840273
_cell_length_c       12.868649381431453
_cell_angle_alpha    69.64118263833335
_cell_angle_beta     72.2891610526263
_cell_angle_gamma    110.3591229354986

_space_group_name_H-M_alt    "P 1"
_space_group_IT_number       1

loop_
  _space_group_symop_operation_xyz
  'x, y, z'

loop_
  _atom_site_type_symbol
  _atom_site_label
  _atom_site_symmetry_multiplicity
  _atom_site_fract_x
  _atom_site_fract_y
  _atom_site_fract_z
  _atom_site_occupancy
  Cu  Cu1       1.0  0.5751302389526104  0.49999574425977045  0.9248701645019891  1.0000
  Cu  Cu2       1.0  0.924868631221159  0.499999276341761  0.5751306395625657  1.0000
  Cu  Cu3       1.0  0.3251628897806711  0.9999968785675931  0.6748368447900573  1.0000
  Cu  Cu4       1.0  0.6748371501658426  3.077661908440813e-06  0.32516679834917284  1.0000
  Cu  Cu5       1.0  0.6238333315506708  0.45645071203306725  0.6252651956888685  1.0000
  Cu  Cu6       1.0  0.8326100932468565  0.750900075641674  0.6238390487608283  1.0000
  Cu  Cu7       1.0  0.9182895217680526  0.5435503384709933  0.8326132363702639  1.0000
  Cu  Cu8       1.0  0.6252570493547297  0.24909532925437358  0.9182912167672298  1.0000
  Cu  Cu9       1.0  0.41714688533073746  0.04348425865599389  0.3317745723137333  1.0000
  Cu  Cu10      1.0  0.3317750536590367  0.7489227057791934  0.6247429384410951  1.0000
  Cu  Cu11      1.0  0.6247412930538658  0.9565191100672833  0.626335609404279  1.0000
  Cu  Cu12      1.0  0.6263330551066205  0.25107885301786603  0.4171493768053762  1.0000
  H   H1        1.0  0.3947266543348532  0.2995638227202305  0.625385303227084  1.0000
  H   H2        1.0  0.9048356746532421  0.9798878556876292  0.394724997106955  1.0000
  H   H3        1.0  0.075052586516577  0.7004351263817483  0.9048359267955206  1.0000
  H   H4        1.0  0.6253804868053693  0.02010844198642309  0.07506078730568065  1.0000
  H   H5        1.0  0.3449402754838217  0.2004422381222639  0.17487454758209964  1.0000
  H   H6        1.0  0.17487392736962454  0.519810568384912  0.6246919278428892  1.0000
  H   H7        1.0  0.6246849281569595  0.7995588528236652  0.8554993961964997  1.0000
  H   H8        1.0  0.8554952680184658  0.48019014538706284  0.34493917515307954  1.0000
  H   H9        1.0  0.28024122003363766  0.33919913416581693  0.5040988992042301  1.0000
  H   H10       1.0  0.05896270573446571  0.2156617829076737  0.2802286802244751  1.0000
  H   H11       1.0  0.15670161172826622  0.6608008348179197  0.05895751186475448  1.0000
  H   H12       1.0  0.5041029665052861  0.7843356509234738  0.1567074215057077  1.0000
  H   H13       1.0  0.19086064120895685  0.16081980317407135  0.09320114613142748  1.0000
  H   H14       1.0  0.09321275785826091  0.2840617340470716  0.7459903653732525  1.0000
  H   H15       1.0  0.7459802279978405  0.8391806022218233  0.969954114490271  1.0000
  H   H16       1.0  0.9699493911361261  0.7159412723053364  0.1908503003111334  1.0000
  H   H17       1.0  0.3680638852013232  0.5624627556636526  0.33060110237764206  1.0000
  H   H18       1.0  0.19440199110646722  0.30133662887320173  0.3680507272966976  1.0000
  H   H19       1.0  0.1069341344905439  0.4375376915724233  0.19439780548354685  1.0000
  H   H20       1.0  0.3306095143348031  0.698660584541841  0.10693657290838832  1.0000
  H   H21       1.0  0.05554485072838131  0.9376039000478613  0.1428326755586653  1.0000
  H   H22       1.0  0.14284321271082942  0.1983748241684111  0.9195695728347388  1.0000
  H   H23       1.0  0.9195612291786618  0.062395194929834585  0.882060195265474  1.0000
  H   H24       1.0  0.8820575610465654  0.8016276188639753  0.055531625592735064  1.0000
  H   H25       1.0  0.5731918284288967  0.7409791179262303  0.28574985041804973  1.0000
  H   H26       1.0  0.16778775983144817  0.14106744394519677  0.5731808808061698  1.0000
  H   H27       1.0  0.9732702648688087  0.2590193718776347  0.16778624766627825  1.0000
  H   H28       1.0  0.2857494724250955  0.8589302251906333  0.9732781852262846  1.0000
  H   H29       1.0  0.0821712439077444  0.7590824027592333  0.2764848574486152  1.0000
  H   H30       1.0  0.2764885492683433  0.3586616824780861  0.964436592827603  1.0000
  H   H31       1.0  0.9644323715144765  0.2409174713516222  0.6769112157885644  1.0000
  H   H32       1.0  0.6769050878205292  0.6413398947220158  0.08217183649848887  1.0000
  H   H33       1.0  0.6729017678124336  0.6867050979139434  0.41549271782818664  1.0000
  H   H34       1.0  0.013795911732685797  0.9116126118640153  0.672901528438743  1.0000
  H   H35       1.0  0.8978039801105027  0.31329616524637066  0.01380012463575029  1.0000
  H   H36       1.0  0.4154851312372756  0.08838492098255556  0.8978159780678182  1.0000
  H   H37       1.0  0.2359849078492289  0.8132951845439462  0.3521281625905246  1.0000
  H   H38       1.0  0.352124124239154  0.5881169319098729  0.8345806040440777  1.0000
  H   H39       1.0  0.8345803678356702  0.18670848296516604  0.5773048652909694  1.0000
  H   H40       1.0  0.5773011636415575  0.41188307903713917  0.23599327190346733  1.0000
  W   W1        1.0  0.749993695804605  0.4999979502834222  0.7500044118750818  1.0000
  W   W2        1.0  0.5000015853385661  1.052140667943947e-06  0.49999836603804926  1.0000
  C   C1        1.0  0.4300522441414928  0.3959491378879037  0.5496008650532715  1.0000
  C   C2        1.0  0.9658991096390537  0.020347567398182862  0.43004339185733886  1.0000
  C   C3        1.0  0.0544516002745894  0.6040515817646224  0.9658958761780028  1.0000
  C   C4        1.0  0.5496020144429252  0.9796490613625649  0.05445730847018373  1.0000
  C   C5        1.0  0.2839103403002525  0.1040576149799719  0.1954695744397554  1.0000
  C   C6        1.0  0.19547489197665865  0.4793813016247768  0.7004829427231201  1.0000
  C   C7        1.0  0.7004749919360692  0.8959447612749404  0.8201420194386767  1.0000
  C   C8        1.0  0.8201360759874206  0.5206218423631485  0.28390629639968495  1.0000
  C   C9        1.0  0.3675117713975524  0.4186418725463526  0.48096299174013507  1.0000
  C   C10       1.0  0.05113400142425921  0.15152567885250792  0.3674925669409461  1.0000
  C   C11       1.0  0.10039676761362411  0.5813613637203616  0.05112737754298988  1.0000
  C   C12       1.0  0.4809717132511508  0.8484709222048747  0.10040184178406966  1.0000
  C   C13       1.0  0.1987049938412113  0.0813792220262002  0.149500484050094  1.0000
  C   C14       1.0  0.1494992780069353  0.34819516809066187  0.7691308575810324  1.0000
  C   C15       1.0  0.769119868686069  0.9186183214003522  0.8826715915896698  1.0000
  C   C16       1.0  0.8826788930570686  0.6518077962092265  0.19869462859492865  1.0000
  C   C17       1.0  0.41672929641744366  0.5433133757767834  0.38453405390220047  1.0000
  C   C18       1.0  0.1265907627714  0.19874549200552144  0.4167073101185252  1.0000
  C   C19       1.0  0.07215397163132312  0.4566905044831985  0.12658278305771378  1.0000
  C   C20       1.0  0.3845439919690889  0.801253984352222  0.07215884026694405  1.0000
  C   C21       1.0  0.12332132244869598  0.9567390108735554  0.1776427592337271  1.0000
  C   C22       1.0  0.17765602601380692  0.3009632244836596  0.8656274143523033  1.0000
  C   C23       1.0  0.8656192556473743  0.04326118533065688  0.8334140386985635  1.0000
  C   C24       1.0  0.8334140731977727  0.6990405107614777  0.12330470992419137  1.0000
  C   C25       1.0  0.5283066678102345  0.6413587843395735  0.3598635147739484  1.0000
  C   C26       1.0  0.1130547775534438  0.11182958168655689  0.5283048720342336  1.0000
  C   C27       1.0  0.9987786282240521  0.35864284283324116  0.11305169013623838  1.0000
  C   C28       1.0  0.3598630080190405  0.8881678766514439  0.998774960472858  1.0000
  C   C29       1.0  0.136878772724053  0.8586857016304634  0.251008338464878  1.0000
  C   C30       1.0  0.2510128802326506  0.38788417661531577  0.8903158510072516  1.0000
  C   C31       1.0  0.8903068738899764  0.14131524246170113  0.7218040797436982  1.0000
  C   C32       1.0  0.7218025587876938  0.6121179536096194  0.13687107682008548  1.0000
  C   C33       1.0  0.5858526480075454  0.6120031815238535  0.43228366391628  1.0000
  C   C34       1.0  0.0261479113703089  0.9818706349059807  0.5858434807970453  1.0000
  C   C35       1.0  0.9557146046728563  0.38799828453903734  0.026149208267220513  1.0000
  C   C36       1.0  0.4322831214118992  0.018125341000832434  0.9557251348381967  1.0000
  C   C37       1.0  0.22372029112677438  0.8880262006044434  0.2941552425510706  1.0000
  C   C38       1.0  0.2941503532395089  0.5178735387456116  0.817829337807751  1.0000
  C   C39       1.0  0.8178216379050697  0.11197574658422128  0.6643009351263202  1.0000
  C   C40       1.0  0.6642963552525245  0.48212815145190296  0.22372397609210287  1.0000
  S   S1        1.0  0.536196448183162  0.36676893355286916  0.845802745029914  1.0000
  S   S2        1.0  0.8305841160645215  0.617988475517663  0.5362068078046036  1.0000
  S   S3        1.0  0.7874254121918441  0.6332244537493069  0.8305719833836491  1.0000
  S   S4        1.0  0.8458070892610507  0.38201194409656125  0.7874027547589294  1.0000
  S   S5        1.0  0.4194951952846679  0.13326978667311096  0.4625341447748426  1.0000
  S   S6        1.0  0.462527011190204  0.8820258033255897  0.40420062770463966  1.0000
  S   S7        1.0  0.40419596323690143  0.8667260223627481  0.7137757420261365  1.0000
  S   S8        1.0  0.7137799563143048  0.11798300027695766  0.41949691099883785  1.0000
  I   I1        1.0  0.4125423232876884  0.49999866128977277  0.08745702088994282  1.0000
  I   I2        1.0  0.0874504308808852  0.5000012459742181  0.4125485126522149  1.0000
  I   I3        1.0  0.1625723374388457  0.999997927937237  0.8374277232407152  1.0000
  I   I4        1.0  0.837428694583828  2.167477866630347e-06  0.16257212059501563  1.0000
  I   I5        1.0  0.6250483434150169  0.24740670813100954  0.6275506640609406  1.0000
  I   I6        1.0  0.6223555689247319  0.7474011483349728  0.6250493427724918  1.0000
  I   I7        1.0  0.12504076385522467  0.7525911300334014  0.6223608505379871  1.0000
  I   I8        1.0  0.6275535363819671  0.25260355214091845  0.12504152882065256  1.0000
  N   N1        1.0  0.5375495242796404  0.4915566515326404  0.5263582931378251  1.0000
  N   N2        1.0  0.9540024819197941  0.9360975085285972  0.5375468536231477  1.0000
  N   N3        1.0  0.9820906710383641  0.5084470580422576  0.9540041393776943  1.0000
  N   N4        1.0  0.5263501176241762  0.06389600974402052  0.9821022236172965  1.0000
  N   N5        1.0  0.2958251017761384  0.008468710203267412  0.26782763390915676  1.0000
  N   N6        1.0  0.2678271459665639  0.5636550877899184  0.723707929545064  1.0000
  N   N7        1.0  0.7237061307563978  0.9915330716519364  0.71264041813162  1.0000
  N   N8        1.0  0.7126359725142919  0.436346357288393  0.2958315895871879  1.0000
