data_image0
_chemical_formula_structural       Li4H48C48S4N12O16
_chemical_formula_sum              "Li4 H48 C48 S4 N12 O16"
_cell_length_a       5.192130925175347
_cell_length_b       7.922948497
_cell_length_c       31.298
_cell_angle_alpha    90.0
_cell_angle_beta     91.26684653173963
_cell_angle_gamma    90.0

_space_group_name_H-M_alt    "P 1"
_space_group_IT_number       1

loop_
  _space_group_symop_operation_xyz
  'x, y, z'

loop_
  _atom_site_type_symbol
  _atom_site_label
  _atom_site_symmetry_multiplicity
  _atom_site_fract_x
  _atom_site_fract_y
  _atom_site_fract_z
  _atom_site_occupancy
  Li  Li1       1.0  0.8071684727035374  0.7188952448897865  0.0012715343893745998  1.0000
  Li  Li2       1.0  0.3071898382308902  0.7810880005522238  0.5012755746664368  1.0000
  Li  Li3       1.0  0.1928099873279407  0.2810872746229834  0.998726213945474  1.0000
  Li  Li4       1.0  0.6928348568977185  0.21889073249140276  0.49873033097619407  1.0000
  H   H1        1.0  0.5652009448185993  0.6426496400838602  0.4354815178879647  1.0000
  H   H2        1.0  0.0651760752488286  0.857347489078343  0.935485388588084  1.0000
  H   H3        1.0  0.43481604446048283  0.35734423883634053  0.564517969307168  1.0000
  H   H4        1.0  0.9348197229440771  0.1426388169035704  0.064518494013555  1.0000
  H   H5        1.0  0.7911692026355155  0.7925723614608557  0.4416959516617354  1.0000
  H   H6        1.0  0.2911520389152571  0.707426029857736  0.9416979335692729  1.0000
  H   H7        1.0  0.2088516395683371  0.2074240417721072  0.5583035496648137  1.0000
  H   H8        1.0  0.708851465127168  0.2925628004369473  0.058301823675151396  1.0000
  H   H9        1.0  0.550885402870918  0.9053056450784567  0.9521796037180152  1.0000
  H   H10       1.0  0.0509048419358891  0.5946914840837465  0.4521801223278031  1.0000
  H   H11       1.0  0.44911039532198055  0.09468192305983793  0.047819805754358  1.0000
  H   H12       1.0  0.9491237061174755  0.4053049191492164  0.5478206852985038  1.0000
  H   H13       1.0  0.7534336575310546  0.0365154462520536  0.9714249522785889  1.0000
  H   H14       1.0  0.2534492436712625  0.46348023105166203  0.4714257762662014  1.0000
  H   H15       1.0  0.2465640671242255  0.9634733840426222  0.028574783768718193  1.0000
  H   H16       1.0  0.7465715985325828  0.5365123857121574  0.5285743640788141  1.0000
  H   H17       1.0  0.1255340680846331  0.8360801540623727  0.38758196391921723  1.0000
  H   H18       1.0  0.6255030702453794  0.6639119264743059  0.8875868345721613  1.0000
  H   H19       1.0  0.874488700581594  0.1639124627014468  0.6124156274176329  1.0000
  H   H20       1.0  0.3744811691732366  0.33608447675865  0.11241668612600357  1.0000
  H   H21       1.0  0.8132734319865733  0.5448249476359024  0.1804635211133174  1.0000
  H   H22       1.0  0.31330442982582696  0.9551759679954446  0.6804672772096794  1.0000
  H   H23       1.0  0.186695395733004  0.455181552848103  0.8195322748375913  1.0000
  H   H24       1.0  0.6867067800661175  0.044830532488568116  0.319533786334503  1.0000
  H   H25       1.0  0.4946346278298178  0.8502579566875639  0.19489328705341788  1.0000
  H   H26       1.0  0.994647938625313  0.6497656777586374  0.6948919300329307  1.0000
  H   H27       1.0  0.5053496115888052  0.1497712626113028  0.8051079970801139  1.0000
  H   H28       1.0  0.0053478595675926  0.3502610172274601  0.305107159930202  1.0000
  H   H29       1.0  0.8967759438587775  0.5124380149053496  0.1027267782014007  1.0000
  H   H30       1.0  0.3967568536761448  0.9875464926930493  0.6027290725524707  1.0000
  H   H31       1.0  0.1032448983450678  0.4875445046074276  0.8972708060697412  1.0000
  H   H32       1.0  0.6032119740434396  0.0124461240707703  0.3972702380000115  1.0000
  H   H33       1.0  0.203505706463126  0.8361950102930251  0.309460055820061  1.0000
  H   H34       1.0  0.7034978261724305  0.6638021188691852  0.8094656502799535  1.0000
  H   H35       1.0  0.7964881652673981  0.1638039172527002  0.6905371100219639  1.0000
  H   H36       1.0  0.2965037514076129  0.33618671142549783  0.19053921204650948  1.0000
  H   H37       1.0  0.5196670799988681  0.5391313602022549  0.2881146917837327  1.0000
  H   H38       1.0  0.019665327977655498  0.9608733418982354  0.7881157716892204  1.0000
  H   H39       1.0  0.4803306446564193  0.4608700916562328  0.7118856832820412  1.0000
  H   H40       1.0  0.9803420289895256  0.039119274865584  0.21188304115891293  1.0000
  H   H41       1.0  0.5817685212888078  0.8166505187368005  0.11709158323521507  1.0000
  H   H42       1.0  0.0817667692675954  0.6833693292402572  0.6170913851037696  1.0000
  H   H43       1.0  0.41823305629123547  0.1833698654673981  0.882908805961975  1.0000
  H   H44       1.0  0.91821169076389  0.3166535792766965  0.38290764126801236  1.0000
  H   H45       1.0  0.441820661675095  0.535228772672909  0.3665386758705011  1.0000
  H   H46       1.0  0.9417973696853608  0.9647734051148122  0.8665387821477708  1.0000
  H   H47       1.0  0.5581866952920861  0.4647777278110966  0.6334623735422722  1.0000
  H   H48       1.0  0.058181090346117494  0.0352166873362449  0.1334608832424777  1.0000
  C   C1        1.0  0.9923766394789907  0.7722718382325482  0.3655935490829805  1.0000
  C   C2        1.0  0.4923633286834955  0.7277278152424174  0.8655971426681005  1.0000
  C   C3        1.0  0.007640349800098499  0.22771825421850886  0.6344062576213928  1.0000
  C   C4        1.0  0.5076363224341662  0.2722723744596892  0.134406115046481  1.0000
  C   C5        1.0  0.1463379353290222  0.7027926537839235  0.1920834693677662  1.0000
  C   C6        1.0  0.6463608784364183  0.797219621254847  0.6920856622773781  1.0000
  C   C7        1.0  0.8536366717777  0.2972277304202677  0.8079142648356665  1.0000
  C   C8        1.0  0.3536445520683884  0.2027894035419209  0.30791506056045387  1.0000
  C   C9        1.0  0.24206577746632968  0.664245135758833  0.1054494604999334  1.0000
  C   C10       1.0  0.7420578971756413  0.8357658771235634  0.6054509013397863  1.0000
  C   C11       1.0  0.757943505963233  0.335763889037935  0.8945487203954414  1.0000
  C   C12       1.0  0.257910930543936  0.1642368368913054  0.39454904823116266  1.0000
  C   C13       1.0  0.9782190674464886  0.6056116610901654  0.1661192959035844  1.0000
  C   C14       1.0  0.4782269477371769  0.8943917788539439  0.6661210501560717  1.0000
  C   C15       1.0  0.0217690248968978  0.3943998880193647  0.8338788072690233  1.0000
  C   C16       1.0  0.5217630710685839  0.10560967300454392  0.33387865762841057  1.0000
  C   C17       1.0  0.36320943778635945  0.7787997110338909  0.1742058130801425  1.0000
  C   C18       1.0  0.8632169691947096  0.7212239234123103  0.674205073881005  1.0000
  C   C19       1.0  0.6367805810194013  0.2212307704213501  0.8257945337228064  1.0000
  C   C20       1.0  0.1367691966862878  0.2788002472610317  0.3257939807535948  1.0000
  C   C21       1.0  0.867713332390231  0.6852562530295077  0.2939953527015077  1.0000
  C   C22       1.0  0.3677173597561634  0.8147484490709831  0.7939990098779858  1.0000
  C   C23       1.0  0.132280539340293  0.3147464609853543  0.7060027716682171  1.0000
  C   C24       1.0  0.632289997211025  0.18524290553646244  0.20600363708096128  1.0000
  C   C25       1.0  0.025390774171775397  0.5872586451573909  0.12299650641410408  1.0000
  C   C26       1.0  0.5253944526553695  0.9127473190994806  0.6229979896481977  1.0000
  C   C27       1.0  0.9746088769458864  0.41275164179575813  0.8770013196435044  1.0000
  C   C28       1.0  0.4745917132256352  0.08725918138453183  0.3770017040048756  1.0000
  C   C29       1.0  0.0367106671181645  0.772053485178674  0.32226033902804824  1.0000
  C   C30       1.0  0.5366970074403312  0.7279423818271482  0.8222646342538835  1.0000
  C   C31       1.0  0.9632947633866422  0.22794418021067037  0.6777371887174508  1.0000
  C   C32       1.0  0.4633026436773306  0.2720439241547652  0.177737664932998  1.0000
  C   C33       1.0  0.6516875469178202  0.6022518008045594  0.3104613239467611  1.0000
  C   C34       1.0  0.1516915742837526  0.8977529012959309  0.8104624250493728  1.0000
  C   C35       1.0  0.3483063248126966  0.397747126741166  0.6895383979691303  1.0000
  C   C36       1.0  0.8483177091458102  0.10223466684236372  0.18953735339217556  1.0000
  C   C37       1.0  0.4112226596894857  0.7604744625414952  0.13082960801173013  1.0000
  C   C38       1.0  0.9112378969473622  0.7395403368100446  0.6308295360938843  1.0000
  C   C39       1.0  0.588763506191512  0.23954339734994085  0.8691707246598098  1.0000
  C   C40       1.0  0.08875404832078  0.2604737366122478  0.3691704982655395  1.0000
  C   C41       1.0  0.7782445665263751  0.6864527772784756  0.3822128011464229  1.0000
  C   C42       1.0  0.2782235498813606  0.8135544491347704  0.8822150884317848  1.0000
  C   C43       1.0  0.2217762756774704  0.3135411016417181  0.6177863806708928  1.0000
  C   C44       1.0  0.7217722483115452  0.18644826488009167  0.11778623809598797  1.0000
  C   C45       1.0  0.6089547583989797  0.6005150736246139  0.3540748014130628  1.0000
  C   C46       1.0  0.10894337406586627  0.8994972014141569  0.8540764850084912  1.0000
  C   C47       1.0  0.3910564514929646  0.39948385392110464  0.6459253036034197  1.0000
  C   C48       1.0  0.8910427918151314  0.10050172613156863  0.14592448668151548  1.0000
  S   S1        1.0  0.3071917646932718  0.627540366049665  0.05099153802328259  1.0000
  S   S2        1.0  0.8072127813382863  0.872446665861496  0.5509937238671937  1.0000
  S   S3        1.0  0.6927944011877329  0.3724484642450179  0.9490065580836171  1.0000
  S   S4        1.0  0.19280806086555904  0.12753837796403644  0.44900737500552157  1.0000
  N   N1        1.0  0.11360926595084919  0.7281733564448274  0.2363119507590596  1.0000
  N   N2        1.0  0.6136360619830014  0.7718427050630865  0.736315435837021  1.0000
  N   N3        1.0  0.8863576353063536  0.2718495520721262  0.7636857551815479  1.0000
  N   N4        1.0  0.386384780220844  0.22817136835920596  0.2636859825449277  1.0000
  N   N5        1.0  0.7433987149923026  0.6830512658323045  0.42632712075184986  1.0000
  N   N6        1.0  0.2433757718849066  0.8169471254862799  0.9263303594992109  1.0000
  N   N7        1.0  0.2566202007491682  0.31694261308789623  0.5736726930182241  1.0000
  N   N8        1.0  0.7566219527703808  0.18304675343392066  0.0736719326219699  1.0000
  N   N9        1.0  0.9035224151144305  0.6679571376746765  0.2500868152941322  1.0000
  N   N10       1.0  0.4035476335665464  0.8320513508949576  0.7500899111749106  1.0000
  N   N11       1.0  0.09645604491704768  0.33204683849656663  0.7499125305868759  1.0000
  N   N12       1.0  0.5964616498630164  0.16794883880714914  0.24991242334050404  1.0000
  O   O1        1.0  0.7240146505221645  0.914793274592711  0.9661866921133253  1.0000
  O   O2        1.0  0.2240360160495101  0.5852025924131186  0.466185939751881  1.0000
  O   O3        1.0  0.2759753682836035  0.0851955557019721  0.03381525223579729  1.0000
  O   O4        1.0  0.7759906055414729  0.4147900243507011  0.5338142217902515  1.0000
  O   O5        1.0  0.5845349212668509  0.6546678931415499  0.04645919651996879  1.0000
  O   O6        1.0  0.0845485809446842  0.8453178766132297  0.5464673621542528  1.0000
  O   O7        1.0  0.4154531710765283  0.3453171506839823  0.9535328359771924  1.0000
  O   O8        1.0  0.9154645554096419  0.15466969152507207  0.4535426547141838  1.0000
  O   O9        1.0  0.15462365002650097  0.7504201248122797  0.0247453370194179  1.0000
  O   O10       1.0  0.6546388872843777  0.7495770043499235  0.5247459041200457  1.0000
  O   O11       1.0  0.8453605893921221  0.24957249195153966  0.9752537105494739  1.0000
  O   O12       1.0  0.3453915872313685  0.2504231853521759  0.4752488398965227  1.0000
  O   O13       1.0  0.22390309014527787  0.45387522099400723  0.04223312299584589  1.0000
  O   O14       1.0  0.7239221803279108  0.04612298062247791  0.5422327457001757  1.0000
  O   O15       1.0  0.7760888551228646  0.5461186579261936  0.9577669113635777  1.0000
  O   O16       1.0  0.2760909560264153  0.9538772090796288  0.45776640785430794  1.0000
