data_image0
_chemical_formula_structural       Fe2H24C8Cl4O8
_chemical_formula_sum              "Fe2 H24 C8 Cl4 O8"
_cell_length_a       6.928361466013118
_cell_length_b       7.853520539236948
_cell_length_c       9.152936452227513
_cell_angle_alpha    90.00000637707878
_cell_angle_beta     89.99927131917279
_cell_angle_gamma    115.1471353400082

_space_group_name_H-M_alt    "P 1"
_space_group_IT_number       1

loop_
  _space_group_symop_operation_xyz
  'x, y, z'

loop_
  _atom_site_type_symbol
  _atom_site_label
  _atom_site_symmetry_multiplicity
  _atom_site_fract_x
  _atom_site_fract_y
  _atom_site_fract_z
  _atom_site_occupancy
  Fe  Fe1       1.0  1.008361707136176e-06  0.9999998445669006  0.5000003419618793  1.0000
  Fe  Fe2       1.0  0.5000007001639376  0.5000015448568574  0.9999998514106635  1.0000
  H   H1        1.0  0.7495709744666286  0.6433112185127212  0.4234671413448723  1.0000
  H   H2        1.0  0.7504459526044156  0.8566756309624775  0.9234837507420224  1.0000
  H   H3        1.0  0.2504294867010302  0.35668939052621335  0.5765340416613184  1.0000
  H   H4        1.0  0.2495545085744837  0.14332497808074854  0.07651633971861571  1.0000
  H   H5        1.0  0.7151489517089188  0.6598319087928315  0.5929298648895341  1.0000
  H   H6        1.0  0.7848908323655551  0.8401730524648909  0.0929391948570171  1.0000
  H   H7        1.0  0.28485073321080995  0.3401700999213516  0.4070724106661531  1.0000
  H   H8        1.0  0.21511029923312464  0.15982896319286508  0.9070619881461538  1.0000
  H   H9        1.0  0.7939644085423366  0.24992501687557925  0.6186960189028383  1.0000
  H   H10       1.0  0.7060451221375955  0.25008904701775236  0.1187137292140292  1.0000
  H   H11       1.0  0.2060382755522028  0.7500741994316794  0.3813029790013402  1.0000
  H   H12       1.0  0.29395378656793264  0.7499143613845545  0.8812863612545031  1.0000
  H   H13       1.0  0.6328915138107406  0.27324096643382484  0.4730735865911342  1.0000
  H   H14       1.0  0.867116122124244  0.2267422706451682  0.9730923114304063  1.0000
  H   H15       1.0  0.367111170283799  0.7267582498734413  0.5269254113130444  1.0000
  H   H16       1.0  0.13287922281484302  0.773259717259776  0.0269077790550725  1.0000
  H   H17       1.0  0.5108772375279428  0.0317412518927114  0.2874145952407616  1.0000
  H   H18       1.0  0.9891213753775431  0.46821952470585854  0.7874081805535909  1.0000
  H   H19       1.0  0.4891262227920451  0.9682565647307156  0.7125854952050189  1.0000
  H   H20       1.0  0.01087908582384502  0.5317810843459582  0.21258972481594904  1.0000
  H   H21       1.0  0.5893152966111613  0.8421840653709863  0.3034703870071809  1.0000
  H   H22       1.0  0.9106644399172978  0.6577810824388023  0.8034602656831921  1.0000
  H   H23       1.0  0.4106888341510879  0.15781515787554665  0.6965286108900344  1.0000
  H   H24       1.0  0.08933457460513237  0.34221951966944164  0.1965387322388636  1.0000
  C   C1        1.0  0.658016113415904  0.17376309274232682  0.5469568437581174  1.0000
  C   C2        1.0  0.8419789447239053  0.3262332141520046  0.04696780465621231  1.0000
  C   C3        1.0  0.3419873469153245  0.8262347238853918  0.4530421541421177  1.0000
  C   C4        1.0  0.15801862313081488  0.6737673810169653  0.9530311932728068  1.0000
  C   C5        1.0  0.5398920978400883  0.9370469565686859  0.3641975984246173  1.0000
  C   C6        1.0  0.9600806022512317  0.562917686279391  0.8641924357592785  1.0000
  C   C7        1.0  0.46011058625445134  0.06295225973857298  0.6358013994795612  1.0000
  C   C8        1.0  0.03991551894701939  0.4370829019545965  0.1358054696311584  1.0000
  Cl  Cl1       1.0  0.961533758431244  0.0303364401659678  0.763373338951517  1.0000
  Cl  Cl2       1.0  0.5384595279225906  0.4696637926972612  0.2633686922621692  1.0000
  Cl  Cl3       1.0  0.03846881983514573  0.9696655824310554  0.23662784404469053  1.0000
  Cl  Cl4       1.0  0.4615422741183579  0.5303396295835937  0.7366313981924364  1.0000
  O   O1        1.0  0.8234811025173344  0.7090962506349286  0.5136881142394571  1.0000
  O   O2        1.0  0.676537941896349  0.7909078226060866  0.013691917784186098  1.0000
  O   O3        1.0  0.17652013488700646  0.2909029587244729  0.4863130687627902  1.0000
  O   O4        1.0  0.3234631897023377  0.20909419305166205  0.9863092652189849  1.0000
  O   O5        1.0  0.7149393034334041  0.048690141773050796  0.4591967371783383  1.0000
  O   O6        1.0  0.7850328044441995  0.45130285639815054  0.9592108561993059  1.0000
  O   O7        1.0  0.2850619339821848  0.9513090675906425  0.5408033532783563  1.0000
  O   O8        1.0  0.21496119962159108  0.5486963182648665  0.0407903268377652  1.0000
