data_image0
_chemical_formula_structural       Ba2Cu2H32C22S2N4O22
_chemical_formula_sum              "Ba2 Cu2 H32 C22 S2 N4 O22"
_cell_length_a       8.384664290899291
_cell_length_b       9.712353255619444
_cell_length_c       12.462606043736557
_cell_angle_alpha    111.07854183478837
_cell_angle_beta     91.38197966321026
_cell_angle_gamma    112.97270946414615

_space_group_name_H-M_alt    "P 1"
_space_group_IT_number       1

loop_
  _space_group_symop_operation_xyz
  'x, y, z'

loop_
  _atom_site_type_symbol
  _atom_site_label
  _atom_site_symmetry_multiplicity
  _atom_site_fract_x
  _atom_site_fract_y
  _atom_site_fract_z
  _atom_site_occupancy
  Ba  Ba1       1.0  0.37406994950335104  0.11370753097447313  0.39870924580865363  1.0000
  Ba  Ba2       1.0  0.6259333694101555  0.8862903621578296  0.6012890490191508  1.0000
  Cu  Cu1       1.0  0.9540568653537207  0.5745548929957565  0.17036264351413163  1.0000
  Cu  Cu2       1.0  0.04593865384353529  0.4254442893917131  0.8296422729595746  1.0000
  H   H1        1.0  0.8062913957848535  0.8932471249175293  0.04840294638564295  1.0000
  H   H2        1.0  0.19371060925031006  0.10675568321238421  0.9515998892215052  1.0000
  H   H3        1.0  0.6013531993765182  0.8095155961486853  0.8671373216848365  1.0000
  H   H4        1.0  0.3986517563379905  0.19048842408307112  0.1328659066991023  1.0000
  H   H5        1.0  0.491559358507736  0.3065525028944691  0.782199328212471  1.0000
  H   H6        1.0  0.5084486132752628  0.6934502692995466  0.21780120775935788  1.0000
  H   H7        1.0  0.605601466064293  0.2239430827038547  0.8982583868472389  1.0000
  H   H8        1.0  0.3944035133029189  0.7760609087539337  0.10174001955467565  1.0000
  H   H9        1.0  0.8347487985363102  0.1507194367118885  0.002866593651411593  1.0000
  H   H10       1.0  0.16523253203285299  0.8492749106834483  0.9971375108364954  1.0000
  H   H11       1.0  0.6612007104490519  0.15242416436025516  0.0817033319928484  1.0000
  H   H12       1.0  0.3387881622219309  0.8475787295425548  0.9183056879411212  1.0000
  H   H13       1.0  0.24080071323614757  0.5047012570475503  0.3552171692159902  1.0000
  H   H14       1.0  0.7592002355351183  0.4952966303173342  0.6447786700785301  1.0000
  H   H15       1.0  0.06587970539929695  0.5333599754906473  0.4222106323450987  1.0000
  H   H16       1.0  0.9341253078201247  0.4666415941928506  0.5777911181772737  1.0000
  H   H17       1.0  0.0251786924982866  0.2239639466865597  0.3691670171975616  1.0000
  H   H18       1.0  0.9748229163408407  0.776030289077184  0.630831036590358  1.0000
  H   H19       1.0  0.104133642715631  0.28290446312569634  0.5073996701881853  1.0000
  H   H20       1.0  0.8958697258185494  0.717090989049666  0.4925987541054013  1.0000
  H   H21       1.0  0.198871136489899  0.1762052359741304  0.6330511227765072  1.0000
  H   H22       1.0  0.8011250900806245  0.8237902372642765  0.3669463642265569  1.0000
  H   H23       1.0  0.10419787351927565  0.9798645768429993  0.5825400076079391  1.0000
  H   H24       1.0  0.8957965854719702  0.020129689575100005  0.41745871621681363  1.0000
  H   H25       1.0  0.6513762931099193  0.9591507723081634  0.3184442512612193  1.0000
  H   H26       1.0  0.348618777955359  0.0408446620790883  0.6815459804976811  1.0000
  H   H27       1.0  0.6995076655425265  0.06584593651070492  0.2473270464601924  1.0000
  H   H28       1.0  0.30049857019812265  0.9341555904977245  0.7526682970239591  1.0000
  H   H29       1.0  0.045584736334028195  0.9028878631531255  0.16578315328901988  1.0000
  H   H30       1.0  0.9544149363532243  0.09711251263941993  0.8342197672416134  1.0000
  H   H31       1.0  0.0740994413022804  0.08278428158025972  0.19607879880320672  1.0000
  H   H32       1.0  0.9259055876856053  0.9172172689205951  0.8039197370644828  1.0000
  C   C1        1.0  0.7753732735012875  0.6501078088930613  0.016777032222655874  1.0000
  C   C2        1.0  0.22463344190827433  0.34989742775031374  0.9832265666669429  1.0000
  C   C3        1.0  0.7387980283692668  0.7650597291882023  0.9885639304047943  1.0000
  C   C4        1.0  0.26120335045024484  0.23494430876856143  0.011440034829398408  1.0000
  C   C5        1.0  0.6226126664066384  0.7179982529426353  0.8882978936663974  1.0000
  C   C6        1.0  0.3773917324234688  0.2820045321807285  0.11170257549201779  1.0000
  C   C7        1.0  0.5347982543526015  0.5525535992258311  0.8117494980620563  1.0000
  C   C8        1.0  0.4652030827304685  0.44745287009654794  0.1882527303790198  1.0000
  C   C9        1.0  0.561444511824888  0.43577681952790215  0.8392877543488311  1.0000
  C   C10       1.0  0.43856039426895416  0.5642296416607876  0.1607153445693399  1.0000
  C   C11       1.0  0.6795513044111487  0.47980536489360764  0.9410788756306019  1.0000
  C   C12       1.0  0.32045308259261407  0.5201974346167404  0.058924004518821974  1.0000
  C   C13       1.0  0.6925646584345272  0.3475661556892931  0.9627130076107235  1.0000
  C   C14       1.0  0.30743502213694995  0.6524342105119346  0.03728830559257549  1.0000
  C   C15       1.0  0.7947241822070126  0.22921287921426634  0.0746814073899529  1.0000
  C   C16       1.0  0.20526124828936074  0.770785107338746  0.9253213753527731  1.0000
  C   C17       1.0  0.91967580066062  0.2909985859687012  0.19017447813430974  1.0000
  C   C18       1.0  0.08031916559435362  0.7089993565147239  0.8098268754501987  1.0000
  C   C19       1.0  0.13404740401679055  0.541807478162646  0.34835378247717597  1.0000
  C   C20       1.0  0.8659551894397168  0.45819652671037403  0.6516453830461374  1.0000
  C   C21       1.0  0.2180898848773865  0.7215163118447592  0.3666317232447582  1.0000
  C   C22       1.0  0.7819045859402037  0.278477940186356  0.6333645895889788  1.0000
  S   S1        1.0  0.4035219925293704  0.4982882331562595  0.6765557179169052  1.0000
  S   S2        1.0  0.5964830246321641  0.5017133317315727  0.3234452289418002  1.0000
  N   N1        1.0  0.7944205227470106  0.3665034298484642  0.0517466036824672  1.0000
  N   N2        1.0  0.2055737519031594  0.6334982026013875  0.9482589647180006  1.0000
  N   N3        1.0  0.01367877117275642  0.448982823846393  0.23743911887857652  1.0000
  N   N4        1.0  0.9863143400879365  0.5510187793436216  0.762560801605055  1.0000
  O   O1        1.0  0.8953445623772256  0.7063132376354705  0.11024591429647765  1.0000
  O   O2        1.0  0.10465452583080291  0.29368593661831  0.8897598726543237  1.0000
  O   O3        1.0  0.9221190531324978  0.1875941766164502  0.23127433725539248  1.0000
  O   O4        1.0  0.07788005478611384  0.8124049736590282  0.7687274313770516  1.0000
  O   O5        1.0  0.15414318331037438  0.7636013032912956  0.29434240045444676  1.0000
  O   O6        1.0  0.8458535465817647  0.2363978508080891  0.7056585199720473  1.0000
  O   O7        1.0  0.3443458903713505  0.8246359205128756  0.4498732398738809  1.0000
  O   O8        1.0  0.6556587006840643  0.175359488987425  0.5501187773814777  1.0000
  O   O9        1.0  0.4830383237457808  0.41956922003085145  0.5841965219371943  1.0000
  O   O10       1.0  0.5169626470513365  0.5804262599467195  0.4158050724687854  1.0000
  O   O11       1.0  0.22123668567405724  0.3800519323335437  0.670657783514848  1.0000
  O   O12       1.0  0.7787678123973903  0.6199459708759535  0.32934294457511026  1.0000
  O   O13       1.0  0.40720971922284843  0.6510173909690027  0.6773837256789862  1.0000
  O   O14       1.0  0.5927953097650445  0.3489841595318524  0.3226148101887034  1.0000
  O   O15       1.0  0.07132737489028071  0.19519038563959878  0.4286796151218937  1.0000
  O   O16       1.0  0.9286747987174878  0.8048050756412053  0.5713195905642222  1.0000
  O   O17       1.0  0.21684723615305757  0.076355516017081  0.5937707593972448  1.0000
  O   O18       1.0  0.7831460436802403  0.9236387403238242  0.40622553116536153  1.0000
  O   O19       1.0  0.595337086723113  0.9946794687602962  0.2684286390847035  1.0000
  O   O20       1.0  0.40466214177428134  0.005317154236365699  0.7315587930674496  1.0000
  O   O21       1.0  0.13959820419234598  0.016581541532708906  0.1919449174785441  1.0000
  O   O22       1.0  0.8604044885055089  0.9834175814264444  0.8080545069763119  1.0000
