data_image0
_chemical_formula_structural       Ni6H52C60N24O28
_chemical_formula_sum              "Ni6 H52 C60 N24 O28"
_cell_length_a       13.610953276000542
_cell_length_b       13.770747965324231
_cell_length_c       17.710098398416484
_cell_angle_alpha    110.41266166911747
_cell_angle_beta     90.00000833269841
_cell_angle_gamma    90.00002643388119

_space_group_name_H-M_alt    "P 1"
_space_group_IT_number       1

loop_
  _space_group_symop_operation_xyz
  'x, y, z'

loop_
  _atom_site_type_symbol
  _atom_site_label
  _atom_site_symmetry_multiplicity
  _atom_site_fract_x
  _atom_site_fract_y
  _atom_site_fract_z
  _atom_site_occupancy
  Ni  Ni1       1.0  0.0135004175824278  0.7392558480754232  0.925676477565304  1.0000
  Ni  Ni2       1.0  0.5135005193132898  0.2607429180956018  0.5743233732961813  1.0000
  Ni  Ni3       1.0  0.9864989360261233  0.26074305590306307  0.07432329821650539  1.0000
  Ni  Ni4       1.0  0.4864988342956096  0.7392575424876285  0.425676270214133  1.0000
  Ni  Ni5       1.0  0.9999993536087005  0.9999996857822422  0.999999428282365  1.0000
  Ni  Ni6       1.0  0.5000005282141587  0.9999995365622779  0.4999997861678905  1.0000
  H   H1        1.0  0.13784139273083437  0.8624747455955697  0.012202834244973792  1.0000
  H   H2        1.0  0.13538390003138548  0.8656018107525937  0.912861563707807  1.0000
  H   H3        1.0  0.8837949877373247  0.6904481757496865  0.06925588980313786  1.0000
  H   H4        1.0  0.85739771797185  0.020028425147018  0.1649758132115124  1.0000
  H   H5        1.0  0.8263244317600069  0.9085261519653614  0.26526911765624567  1.0000
  H   H6        1.0  0.8159386423121051  0.7720613518258116  0.2181045882380558  1.0000
  H   H7        1.0  0.6608664753353749  0.7942205977328952  0.1492896219015378  1.0000
  H   H8        1.0  0.6747237330047113  0.9311643915897747  0.18895170493344438  1.0000
  H   H9        1.0  0.6384240960308248  0.028357391554457892  0.346853674902718  1.0000
  H   H10       1.0  0.603469307677642  0.7001035348438621  0.2506314747232352  1.0000
  H   H11       1.0  0.1007880744737122  0.537252311047176  0.050414355507165  1.0000
  H   H12       1.0  0.28047646109552454  0.5300376522007254  0.24831622338459167  1.0000
  H   H13       1.0  0.2640397582290391  0.8077530209658049  0.189108698738174  1.0000
  H   H14       1.0  0.6378429853880476  0.13752486330463395  0.48779755141645614  1.0000
  H   H15       1.0  0.6353854146350669  0.13439779337219449  0.5871390976188096  1.0000
  H   H16       1.0  0.38379468637644004  0.30955234951985494  0.4307447766883925  1.0000
  H   H17       1.0  0.3574006500929769  0.9799697885375098  0.33502194964613363  1.0000
  H   H18       1.0  0.32632472582391614  0.09147280462833149  0.23472997759571967  1.0000
  H   H19       1.0  0.31594121320542706  0.22793760579332198  0.28189394151664254  1.0000
  H   H20       1.0  0.1608690490406062  0.20578291943387939  0.350710157858984  1.0000
  H   H21       1.0  0.1747240310911167  0.0688383307404052  0.3110501142045266  1.0000
  H   H22       1.0  0.1384225812808282  0.9716437672822238  0.15314714136962246  1.0000
  H   H23       1.0  0.10346823243335727  0.2998968360750354  0.2493685542704256  1.0000
  H   H24       1.0  0.6007868728400537  0.4627480723339231  0.44958454731652614  1.0000
  H   H25       1.0  0.7804774291047991  0.46996437020461457  0.2516842832777897  1.0000
  H   H26       1.0  0.7640384038038518  0.19224900598357655  0.3108906780849949  1.0000
  H   H27       1.0  0.8621586955801135  0.1375241583831297  0.987796941536942  1.0000
  H   H28       1.0  0.8646147188749753  0.1343978680266673  0.08713842730185921  1.0000
  H   H29       1.0  0.11620510057397841  0.30955148202168903  0.9307457893889294  1.0000
  H   H30       1.0  0.14260016623190808  0.9799712816431024  0.8350219268884587  1.0000
  H   H31       1.0  0.1736756565514952  0.09147508341906271  0.7347307410821173  1.0000
  H   H32       1.0  0.18406144599949667  0.22793986955307594  0.7818963959551084  1.0000
  H   H33       1.0  0.33913361297632605  0.20578141245251658  0.8507104520647815  1.0000
  H   H34       1.0  0.32527709000929417  0.0688368297893263  0.8110492792598265  1.0000
  H   H35       1.0  0.36157746168512267  0.9716422872256485  0.6531463161073391  1.0000
  H   H36       1.0  0.39653078063345504  0.29989615093859356  0.7493679535592221  1.0000
  H   H37       1.0  0.899212013837392  0.4627473747352795  0.9495850727752995  1.0000
  H   H38       1.0  0.7195228925131758  0.46996203358151684  0.7516832048977733  1.0000
  H   H39       1.0  0.73596033008252  0.192248207415858  0.8108917227275967  1.0000
  H   H40       1.0  0.3621593070301473  0.8624740336719298  0.5122027870931517  1.0000
  H   H41       1.0  0.36461614308103657  0.8656018643996076  0.4128625815734566  1.0000
  H   H42       1.0  0.6162046672325162  0.6904481040606071  0.5692554295493224  1.0000
  H   H43       1.0  0.6426016423249122  0.020028347643602704  0.6649770481807167  1.0000
  H   H44       1.0  0.6736760971894357  0.9085260993505809  0.7652697981862886  1.0000
  H   H45       1.0  0.6840603445102147  0.7720613121913331  0.7181047088106638  1.0000
  H   H46       1.0  0.8391325086758954  0.7942190907519587  0.6492899161075272  1.0000
  H   H47       1.0  0.8252760572204921  0.9311628906384823  0.6889508699886449  1.0000
  H   H48       1.0  0.861576772328128  0.028356686298231206  0.8468530648680995  1.0000
  H   H49       1.0  0.8965303864732519  0.7001036105024455  0.7506322146945906  1.0000
  H   H50       1.0  0.399213950173646  0.5372523882497263  0.550415096193987  1.0000
  H   H51       1.0  0.21952265920710093  0.530038414781785  0.7483160059164788  1.0000
  H   H52       1.0  0.2359602151024447  0.807751482610513  0.6891067145156243  1.0000
  C   C1        1.0  0.8882465693402396  0.7720401017815918  0.07692995862722544  1.0000
  C   C2        1.0  0.8759476953976062  0.9409521126898851  0.12672702832737304  1.0000
  C   C3        1.0  0.7998464724409188  0.8466095957610943  0.21113609194712518  1.0000
  C   C4        1.0  0.6890144136345384  0.8591511240644178  0.20057426437371362  1.0000
  C   C5        1.0  0.6168350801897944  0.9489188417781661  0.3387746713153206  1.0000
  C   C6        1.0  0.5980810227562613  0.7804886776029746  0.2893045677151278  1.0000
  C   C7        1.0  0.1829829435137214  0.6764861779201821  0.11166307486833917  1.0000
  C   C8        1.0  0.1522613378295929  0.5748418660470874  0.0988987280209912  1.0000
  C   C9        1.0  0.18649038028423354  0.5222757486368224  0.14850276560328274  1.0000
  C   C10       1.0  0.2521632409717185  0.5717641261637495  0.21083488977151174  1.0000
  C   C11       1.0  0.27839581579207356  0.6753552142644278  0.22703792137108536  1.0000
  C   C12       1.0  0.24374799281144996  0.7273317525261901  0.1772040409273785  1.0000
  C   C13       1.0  0.14841593803029704  0.7314182403086277  0.05705485274329902  1.0000
  C   C14       1.0  0.1510358205099891  0.4141427958742483  0.1385335373897902  1.0000
  C   C15       1.0  0.3388589044266368  0.7319262889956023  0.2997522630569804  1.0000
  C   C16       1.0  0.3882469631248924  0.22795965825222445  0.4230699310963928  1.0000
  C   C17       1.0  0.3759509396184838  0.059046104669185695  0.3732713022054881  1.0000
  C   C18       1.0  0.2998468057580014  0.1533901343986273  0.2888620860156196  1.0000
  C   C19       1.0  0.1890147431166582  0.1408508526986978  0.29942565516581254  1.0000
  C   C20       1.0  0.11683460664343669  0.051082304632352304  0.1612261391987886  1.0000
  C   C21       1.0  0.0980806372952685  0.21951246501565438  0.21069567506938816  1.0000
  C   C22       1.0  0.6829809304708192  0.32351578136505316  0.3883379685169217  1.0000
  C   C23       1.0  0.652260844082079  0.42516009656377923  0.4011006189879964  1.0000
  C   C24       1.0  0.6864899015926724  0.47772392327858876  0.35149481939684785  1.0000
  C   C25       1.0  0.7521656660714555  0.42823633734594313  0.2891646161558725  1.0000
  C   C26       1.0  0.778394515922642  0.32464369373317226  0.2729628492790254  1.0000
  C   C27       1.0  0.7437466782052838  0.2726702417351134  0.32279701866563937  1.0000
  C   C28       1.0  0.6484153791872842  0.26858214947856845  0.44294575096630234  1.0000
  C   C29       1.0  0.6510346595016401  0.5858568416280718  0.36146516360837216  1.0000
  C   C30       1.0  0.8388582989500151  0.26807422441454065  0.2002472659940508  1.0000
  C   C31       1.0  0.11175425367341768  0.22795956299276549  0.9230711578375334  1.0000
  C   C32       1.0  0.12405092350844171  0.059046805293924386  0.8732716219995424  1.0000
  C   C33       1.0  0.2001543505730368  0.15339163262077443  0.788864329518745  1.0000
  C   C34       1.0  0.3109856746770134  0.14085010431724504  0.7994261570920571  1.0000
  C   C35       1.0  0.3831657428237563  0.05108083700172731  0.6612253196946442  1.0000
  C   C36       1.0  0.4019190655550916  0.2195117759776934  0.7106956385226937  1.0000
  C   C37       1.0  0.8170164100955902  0.3235150294529632  0.888339034779527  1.0000
  C   C38       1.0  0.8477387504813548  0.42515703793161197  0.9011010477609175  1.0000
  C   C39       1.0  0.8135082386218713  0.4777231623442261  0.8514964474510264  1.0000
  C   C40       1.0  0.7478353779344362  0.4282347778145236  0.7891648860102052  1.0000
  C   C41       1.0  0.7216050072214699  0.32464446451546525  0.772962069638872  1.0000
  C   C42       1.0  0.7562528302024489  0.272669482858447  0.8227958178110839  1.0000
  C   C43       1.0  0.8515841502809068  0.2685814314682915  0.9429457009939596  1.0000
  C   C44       1.0  0.8489650025032559  0.5858561221101936  0.8614651129374168  1.0000
  C   C45       1.0  0.6611397144796242  0.2680726009771349  0.7002486381795379  1.0000
  C   C46       1.0  0.6117531251862616  0.772040020527463  0.5769300599134652  1.0000
  C   C47       1.0  0.624052087501859  0.9409520245093717  0.6267282583488623  1.0000
  C   C48       1.0  0.70015328255284  0.8466087835856012  0.7111365643114879  1.0000
  C   C49       1.0  0.8109846104924472  0.8591503826855202  0.700574203572458  1.0000
  C   C50       1.0  0.8831654816681151  0.9489189237493036  0.8387742822669749  1.0000
  C   C51       1.0  0.9019187163137445  0.7804879815620395  0.7893050938957344  1.0000
  C   C52       1.0  0.31701768843578293  0.6764854680244808  0.6116607647664482  1.0000
  C   C53       1.0  0.34773777482452317  0.5748411528257549  0.5988981142953733  1.0000
  C   C54       1.0  0.3135094520163335  0.5222773261111585  0.6485039138866212  1.0000
  C   C55       1.0  0.2478351569417896  0.5717625806385058  0.7108340341713344  1.0000
  C   C56       1.0  0.22160630709106502  0.6753559640384169  0.7270388299131341  1.0000
  C   C57       1.0  0.25625341010592706  0.7273294300417986  0.6772035350716266  1.0000
  C   C58       1.0  0.35158470912382  0.7314175363038868  0.557053677316162  1.0000
  C   C59       1.0  0.3489646941078277  0.4141451475488294  0.6385365985400567  1.0000
  C   C60       1.0  0.1611388505517439  0.731927031977342  0.7997509045617192  1.0000
  N   N1        1.0  0.9301003647177382  0.8096821357898776  0.025982711721951494  1.0000
  N   N2        1.0  0.9227364702766181  0.9155073248907684  0.057209446496699505  1.0000
  N   N3        1.0  0.8535972945442583  0.8524610083190254  0.14165512325613613  1.0000
  N   N4        1.0  0.6351240005351997  0.8628883133764447  0.2723709627374403  1.0000
  N   N5        1.0  0.5695797550311212  0.9197927363699916  0.39239243686041186  1.0000
  N   N6        1.0  0.5582932292107828  0.8142519563725941  0.361427094891198  1.0000
  N   N7        1.0  0.4301000159671844  0.19031764133166715  0.4740177518925037  1.0000
  N   N8        1.0  0.4227368008562494  0.08449168019415508  0.442790237198345  1.0000
  N   N9        1.0  0.35359837311474257  0.14753795697016156  0.358344541997738  1.0000
  N   N10       1.0  0.13512357984478737  0.1371128505638097  0.22762928992742104  1.0000
  N   N11       1.0  0.0695785501290089  0.08020760803954369  0.1076081458213807  1.0000
  N   N12       1.0  0.05829281420029281  0.18574838154074064  0.138573484780288  1.0000
  N   N13       1.0  0.0698989888908201  0.19031676818860893  0.9740170640598579  1.0000
  N   N14       1.0  0.0772636180342801  0.08449158609069941  0.9427897665578086  1.0000
  N   N15       1.0  0.14640279376709486  0.14753944526164986  0.8583450829816783  1.0000
  N   N16       1.0  0.36487682247835096  0.13711136540344876  0.7276290282725242  1.0000
  N   N17       1.0  0.43042180268482605  0.08020694241011482  0.6076075541496451  1.0000
  N   N18       1.0  0.4417068591003712  0.1857477224070934  0.6385728961186601  1.0000
  N   N19       1.0  0.5699000723442182  0.8096828052462399  0.5259830170727114  1.0000
  N   N20       1.0  0.5772640221573511  0.9155079915829772  0.5572103165390203  1.0000
  N   N21       1.0  0.6464024498986092  0.8524609470087511  0.6416552337842703  1.0000
  N   N22       1.0  0.8648757737641689  0.8628876030166523  0.7723709163103009  1.0000
  N   N23       1.0  0.930420803479997  0.919792838538143  0.892392623143735  1.0000
  N   N24       1.0  0.9417065394087203  0.8142520650369462  0.8614272841848347  1.0000
  O   O1        1.0  0.098859648551759  0.8808927860735876  0.967504503772531  1.0000
  O   O2        1.0  0.09770465212177021  0.6795104716839757  0.9962125034645624  1.0000
  O   O3        1.0  0.17166341556315956  0.8277786132558586  0.07576950594965126  1.0000
  O   O4        1.0  0.0695257228665298  0.3892086390061351  0.09907810464461872  1.0000
  O   O5        1.0  0.2006921419316399  0.3607995080547823  0.1694326126350987  1.0000
  O   O6        1.0  0.39216743124954695  0.6782238037970527  0.32927709271682915  1.0000
  O   O7        1.0  0.3307588364425341  0.8313684083278828  0.3283520928409658  1.0000
  O   O8        1.0  0.5988611455708223  0.11910602922991127  0.5324953698567256  1.0000
  O   O9        1.0  0.5977047682597316  0.32049068136281983  0.5037868900855074  1.0000
  O   O10       1.0  0.6716642775629609  0.17222104312288872  0.42422863782331177  1.0000
  O   O11       1.0  0.5695245810412572  0.6107925011816133  0.40092100506852557  1.0000
  O   O12       1.0  0.7006887958108123  0.6391994322470749  0.33056194728768407  1.0000
  O   O13       1.0  0.8921683146032038  0.32177596549649207  0.17072223532525743  1.0000
  O   O14       1.0  0.830758913778645  0.1686328612155776  0.1716487747324038  1.0000
  O   O15       1.0  0.9011404397593451  0.11910689970886068  0.032494924509926186  1.0000
  O   O16       1.0  0.9022939667851944  0.32049153149824855  0.00378813322896579  1.0000
  O   O17       1.0  0.8283359380454912  0.1722210795291517  0.9242293596053132  1.0000
  O   O18       1.0  0.9304743654449297  0.6107918005689967  0.9009232270479969  1.0000
  O   O19       1.0  0.7993086810815554  0.6391994169324277  0.8305654749647076  1.0000
  O   O20       1.0  0.6078311876566077  0.3217751001812204  0.6707226830648878  1.0000
  O   O21       1.0  0.6692383130592319  0.16863124243988636  0.6716501490781112  1.0000
  O   O22       1.0  0.4011418815496198  0.8808920859431097  0.46750531615242613  1.0000
  O   O23       1.0  0.4022960547535633  0.6795082296188609  0.4962123229691001  1.0000
  O   O24       1.0  0.32833654545034113  0.8277778678587923  0.5757705752312959  1.0000
  O   O25       1.0  0.4304733031628557  0.3892079594011904  0.5990786384415897  1.0000
  O   O26       1.0  0.2993120272034986  0.36080254992747735  0.6694403775883371  1.0000
  O   O27       1.0  0.1078310390056458  0.6782245020895062  0.829276845457656  1.0000
  O   O28       1.0  0.1692375010208167  0.8313683811705629  0.8283505212780682  1.0000
