data_image0
_chemical_formula_structural       Cu4H28C32S4I4N8
_chemical_formula_sum              "Cu4 H28 C32 S4 I4 N8"
_cell_length_a       4.325021455401372
_cell_length_b       12.790012097320995
_cell_length_c       16.661217224002115
_cell_angle_alpha    89.99997190519875
_cell_angle_beta     89.999947007253
_cell_angle_gamma    93.98672375290494

_space_group_name_H-M_alt    "P 1"
_space_group_IT_number       1

loop_
  _space_group_symop_operation_xyz
  'x, y, z'

loop_
  _atom_site_type_symbol
  _atom_site_label
  _atom_site_symmetry_multiplicity
  _atom_site_fract_x
  _atom_site_fract_y
  _atom_site_fract_z
  _atom_site_occupancy
  Cu  Cu1       1.0  0.18786242173124632  0.4835087040173677  0.07776550239622543  1.0000
  Cu  Cu2       1.0  0.8121657136387768  0.0164853406210455  0.5777638032434993  1.0000
  Cu  Cu3       1.0  0.8121367611553724  0.5164881145758714  0.9222349298058534  1.0000
  Cu  Cu4       1.0  0.1878729381291606  0.9835123244079398  0.4222348283646796  1.0000
  H   H1        1.0  0.859241541079676  0.811043480207793  0.2970752562815804  1.0000
  H   H2        1.0  0.14075120457753343  0.6889507448160545  0.7970778567200085  1.0000
  H   H3        1.0  0.14075592999530068  0.188956469690396  0.7029233753313309  1.0000
  H   H4        1.0  0.8592405889437488  0.31104371147047527  0.20292377587598762  1.0000
  H   H5        1.0  0.6400190746285545  0.8009463833692791  0.1554163684025198  1.0000
  H   H6        1.0  0.36000102006777007  0.6990432760415641  0.6554195093347559  1.0000
  H   H7        1.0  0.3599865960579507  0.19904809504331675  0.8445816630142461  1.0000
  H   H8        1.0  0.640016064648158  0.30095043705890845  0.3445833236506816  1.0000
  H   H9        1.0  0.22034538205595314  0.34906489430273524  0.43268617343564847  1.0000
  H   H10       1.0  0.7796298167114627  0.15093667093362484  0.9326874275565944  1.0000
  H   H11       1.0  0.7796414262864247  0.6509397396456009  0.5673130583738841  1.0000
  H   H12       1.0  0.22035609006652385  0.8490632605275439  0.06731000366529831  1.0000
  H   H13       1.0  0.15574132747311614  0.6818346425017766  0.4567059660768181  1.0000
  H   H14       1.0  0.8442451224488892  0.8181657370683413  0.9567047334791142  1.0000
  H   H15       1.0  0.8442310026684794  0.3181668343304197  0.5432914651464672  1.0000
  H   H16       1.0  0.1557383212090713  0.18183340695758693  0.04329209754700971  1.0000
  H   H17       1.0  0.8099920265464676  0.6555248045274525  0.06703687999871732  1.0000
  H   H18       1.0  0.19004345703092437  0.8444712047802055  0.5670388030624949  1.0000
  H   H19       1.0  0.19002580948099987  0.34447282731380097  0.9329629520045871  1.0000
  H   H20       1.0  0.8099882561491468  0.1555264491847623  0.4329646301165156  1.0000
  H   H21       1.0  0.6614373996482996  0.49535342084445944  0.38580175756152363  1.0000
  H   H22       1.0  0.33855138975895466  0.0046458459304901  0.8857977824473409  1.0000
  H   H23       1.0  0.3385512707606608  0.5046488655457183  0.6142028760144598  1.0000
  H   H24       1.0  0.6614392930009743  0.9953548766537993  0.11419904857753951  1.0000
  H   H25       1.0  0.5302033347380898  0.6216525938164494  0.3686799496440756  1.0000
  H   H26       1.0  0.46979237449215816  0.8783462905643874  0.8686787868062424  1.0000
  H   H27       1.0  0.4697945871164464  0.37834970732482986  0.6313210827532745  1.0000
  H   H28       1.0  0.5301956948833394  0.12165286083611453  0.131319244611781  1.0000
  C   C1        1.0  0.9077661448305251  0.7477013384060884  0.25604344728446893  1.0000
  C   C2        1.0  0.09222920770027095  0.7522937008824758  0.7560454334568973  1.0000
  C   C3        1.0  0.0922313262434074  0.2522986114919021  0.7439557845246869  1.0000
  C   C4        1.0  0.9077676623212697  0.24770311402230052  0.2439579997266961  1.0000
  C   C5        1.0  0.7904072980484996  0.743149328636342  0.17821421552552152  1.0000
  C   C6        1.0  0.20960511821520814  0.7568489223461018  0.6782155698940928  1.0000
  C   C7        1.0  0.20960389992308143  0.256849859638578  0.8217850162820569  1.0000
  C   C8        1.0  0.7904060797490119  0.24315026592745437  0.3217878632871917  1.0000
  C   C9        1.0  0.2150540111047405  0.5179706804928442  0.4364649745211651  1.0000
  C   C10       1.0  0.7849374359731344  0.982031287183155  0.9364630885654253  1.0000
  C   C11       1.0  0.7849437604874865  0.48203083690027887  0.5635366580726073  1.0000
  C   C12       1.0  0.2150441456098307  0.017970204399361502  0.0635331422642054  1.0000
  C   C13       1.0  0.1491963450197176  0.5967172472645643  0.2354466402053887  1.0000
  C   C14       1.0  0.8508203461959666  0.9032801899233219  0.7354465709264063  1.0000
  C   C15       1.0  0.8508105277526354  0.4032835011309218  0.7645537919948993  1.0000
  C   C16       1.0  0.1491877876105647  0.0967150759245143  0.2645520606861353  1.0000
  C   C17       1.0  0.12225929426552538  0.4159258928360643  0.4614181663439325  1.0000
  C   C18       1.0  0.8777208803483704  0.08407801223300743  0.9614176228612055  1.0000
  C   C19       1.0  0.8777278145962057  0.5840803086075964  0.5385828660539715  1.0000
  C   C20       1.0  0.1222604007120864  0.9159219118535873  0.0385786079687875  1.0000
  C   C21       1.0  0.0897096542688303  0.6019674215664851  0.4761337432751347  1.0000
  C   C22       1.0  0.9102915063151045  0.8980376699130376  0.9761330609248304  1.0000
  C   C23       1.0  0.9102894696799736  0.3980411495592477  0.5238648883357797  1.0000
  C   C24       1.0  0.08968761214678268  0.1019630342340392  0.023863169905268905  1.0000
  C   C25       1.0  0.8820794761935885  0.662949849340663  0.1296331362152259  1.0000
  C   C26       1.0  0.11794482482488182  0.8370492355914153  0.6296374814038472  1.0000
  C   C27       1.0  0.11793187204030184  0.3370501226824134  0.8703654953959301  1.0000
  C   C28       1.0  0.8820779374363283  0.1629499711191542  0.3703671521684626  1.0000
  C   C29       1.0  0.45617942214372675  0.5381959198091694  0.3724582117320666  1.0000
  C   C30       1.0  0.5438117983914239  0.9618037384742235  0.8724569954318968  1.0000
  C   C31       1.0  0.5438166376316147  0.4618087288879167  0.6275446212537545  1.0000
  C   C32       1.0  0.4561693324067164  0.0381954018642219  0.1275398355945256  1.0000
  S   S1        1.0  0.3588375872742021  0.49421129754095733  0.270597128028605  1.0000
  S   S2        1.0  0.6411739830356851  0.005784162696990302  0.7705924756338902  1.0000
  S   S3        1.0  0.6411666721116092  0.5057878796703436  0.7294057049573156  1.0000
  S   S4        1.0  0.3588272121934892  0.9942110920887971  0.22940495558704305  1.0000
  I   I1        1.0  0.6516959619580264  0.373084832599993  0.053238447139591506  1.0000
  I   I2        1.0  0.34832159659929834  0.1269139121242446  0.5532422212362891  1.0000
  I   I3        1.0  0.34830367171235826  0.6269143372371248  0.94676198506194  1.0000
  I   I4        1.0  0.6517013159221179  0.873086078334083  0.446763012532081  1.0000
  N   N1        1.0  0.06796834752773862  0.590169267141242  0.1565952700844591  1.0000
  N   N2        1.0  0.9320469081232616  0.909831352909002  0.6565945773205188  1.0000
  N   N3        1.0  0.9320408381044273  0.40983148494172644  0.8434051621155378  1.0000
  N   N4        1.0  0.0679669032285517  0.0901694065489309  0.3434058548788954  1.0000
  N   N5        1.0  0.08300745270008748  0.6740278173471881  0.2850276438336224  1.0000
  N   N6        1.0  0.9169931753144455  0.8259711291047935  0.7850287903578136  1.0000
  N   N7        1.0  0.916999720596877  0.32597449854461047  0.714971587973814  1.0000
  N   N8        1.0  0.0829990689927129  0.17402567842600547  0.21497164184514622  1.0000
