data_image0
_chemical_formula_structural       Zn4H32C48S8N8O16
_chemical_formula_sum              "Zn4 H32 C48 S8 N8 O16"
_cell_length_a       7.4040892957566555
_cell_length_b       12.86080049
_cell_length_c       13.376
_cell_angle_alpha    90.0
_cell_angle_beta     96.25841480316724
_cell_angle_gamma    90.0

_space_group_name_H-M_alt    "P 1"
_space_group_IT_number       1

loop_
  _space_group_symop_operation_xyz
  'x, y, z'

loop_
  _atom_site_type_symbol
  _atom_site_label
  _atom_site_symmetry_multiplicity
  _atom_site_fract_x
  _atom_site_fract_y
  _atom_site_fract_z
  _atom_site_occupancy
  Zn  Zn1       1.0  0.4257942351724678  0.9192460460911818  0.2655626483830247  1.0000
  Zn  Zn2       1.0  0.0742055317421304  0.4192468426978948  0.734437374932405  1.0000
  Zn  Zn3       1.0  0.5742052986567359  0.0807546933651224  0.7344373982478415  1.0000
  Zn  Zn4       1.0  0.9257953607894791  0.5807523416452582  0.2655627536859271  1.0000
  H   H1        1.0  0.40821398477951476  0.3449233197769601  0.26249224311370506  1.0000
  H   H2        1.0  0.0917871408374964  0.8449209680570958  0.7375093574045124  1.0000
  H   H3        1.0  0.5917869077520945  0.6550781972359161  0.7375086331122844  1.0000
  H   H4        1.0  0.9082123929917143  0.155077438729478  0.2624914368340114  1.0000
  H   H5        1.0  0.5637704642013759  0.4324621942720128  0.4190641638939852  1.0000
  H   H6        1.0  0.9362315539472376  0.9324613976652998  0.5809368176349068  1.0000
  H   H7        1.0  0.4362317870326392  0.5675385451842914  0.5809360467118196  1.0000
  H   H8        1.0  0.0637679798819661  0.0675385642344253  0.41906397660360983  1.0000
  H   H9        1.0  0.7156896972902942  0.3111415967545241  0.5552282070843759  1.0000
  H   H10       1.0  0.7843123208583263  0.8111415777043902  0.44477202683686556  1.0000
  H   H11       1.0  0.2843111952413152  0.6888575875886217  0.44477192153396317  1.0000
  H   H12       1.0  0.215688571673283  0.1888583841953348  0.5552281017814734  1.0000
  H   H13       1.0  0.5119536306565635  0.4950150657379524  0.2570491002842203  1.0000
  H   H14       1.0  0.9880470287896441  0.9950166018009625  0.7429495564342331  1.0000
  H   H15       1.0  0.48805133798225586  0.5049864512749309  0.742951274296523  1.0000
  H   H16       1.0  0.011951146337153797  0.004984915211913698  0.2570481653861947  1.0000
  H   H17       1.0  0.3380315708527846  0.4090227512735467  0.1054896187297913  1.0000
  H   H18       1.0  0.1619641199546038  0.9090242873365637  0.8945094110155695  1.0000
  H   H19       1.0  0.6619706803812235  0.5909772106261784  0.894511339483671  1.0000
  H   H20       1.0  0.8380313377673898  0.09097567456316107  0.1054881468299129  1.0000
  H   H21       1.0  0.23562209462831155  0.5291132542870187  0.9575777701166572  1.0000
  H   H22       1.0  0.2643749548814824  0.0291132733371526  0.0424228368314914  1.0000
  H   H23       1.0  0.7643787979032977  0.4708859300561343  0.04242310610933228  1.0000
  H   H24       1.0  0.7356205028405112  0.9708843558928422  0.9575754686216484  1.0000
  H   H25       1.0  0.7102046156892072  0.1399422999679842  0.5314485095478503  1.0000
  H   H26       1.0  0.7897960437570004  0.6399407258046992  0.46855089477826783  1.0000
  H   H27       1.0  0.2897949181399966  0.8600576619317408  0.468550041867708  1.0000
  H   H28       1.0  0.21020484877460885  0.3600584585384539  0.5314499814477287  1.0000
  H   H29       1.0  0.2736983707711573  0.6992900641754716  0.9692563678739957  1.0000
  H   H30       1.0  0.22630003744104235  0.1992900832256055  0.0307450686692761  1.0000
  H   H31       1.0  0.7263011630580465  0.3007098977242606  0.0307444263645209  1.0000
  H   H32       1.0  0.7736994963881612  0.8007091011175476  0.9692564731768982  1.0000
  C   C1        1.0  0.5777270552854217  0.1296186813018494  0.38466859996486846  1.0000
  C   C2        1.0  0.9222695280535829  0.6296171071385643  0.6153320536141393  1.0000
  C   C3        1.0  0.4222697611389776  0.8703820581544548  0.6153312826910522  1.0000
  C   C4        1.0  0.07773136447802637  0.3703820772045886  0.38466807500419964  1.0000
  C   C5        1.0  0.48363827257717407  0.1926551929583695  0.30819185698013024  1.0000
  C   C6        1.0  0.016358776932627  0.6926551739082285  0.6918094975756688  1.0000
  C   C7        1.0  0.5163585438472253  0.8073447689413626  0.6918087732834478  1.0000
  C   C8        1.0  0.9836421155989823  0.3073447879914966  0.30819137865032076  1.0000
  C   C9        1.0  0.48047928949009827  0.2999735516463176  0.3229660985495144  1.0000
  C   C10       1.0  0.0195191187221013  0.7999711999264534  0.6770353379937575  1.0000
  C   C11       1.0  0.5195188856366997  0.7000279653665656  0.6770338660938789  1.0000
  C   C12       1.0  0.9804804151071094  0.2000279844166997  0.3229654562447664  1.0000
  C   C13       1.0  0.563982421776245  0.34847442066182305  0.4093049742744411  1.0000
  C   C14       1.0  0.9360182376699625  0.8484736240551101  0.590695925266985  1.0000
  C   C15       1.0  0.4360171120529585  0.651526318794481  0.5906958199640826  1.0000
  C   C16       1.0  0.0639812961592412  0.1515263378446221  0.4093041213638813  1.0000
  C   C17       1.0  0.6464475054264722  0.285115223026061  0.4836314508057313  1.0000
  C   C18       1.0  0.8535531540197423  0.7851144264193478  0.5163687011280373  1.0000
  C   C19       1.0  0.35355202840273137  0.7148847388736712  0.5163678482174774  1.0000
  C   C20       1.0  0.14644773851186693  0.2148847579238051  0.48363142749029464  1.0000
  C   C21       1.0  0.38351549249701816  0.1545914658691672  0.20992008658264888  1.0000
  C   C22       1.0  0.11648427441758707  0.6545906692624541  0.7900806843404383  1.0000
  C   C23       1.0  0.6164826826297869  0.8454084960305579  0.7900798780607445  1.0000
  C   C24       1.0  0.8835179768164281  0.3454085150806989  0.2099195262653666  1.0000
  C   C25       1.0  0.40501831672755617  0.7118499355556054  0.11809860116490968  1.0000
  C   C26       1.0  0.09498280888944778  0.2118499546057393  0.8819015041379926  1.0000
  C   C27       1.0  0.5949798583992418  0.2881500263441197  0.8819013634784838  1.0000
  C   C28       1.0  0.9050194423445601  0.7881492297374064  0.11809795886015448  1.0000
  C   C29       1.0  0.4769086195749067  0.6482388095890599  0.2000637335610307  1.0000
  C   C30       1.0  0.0230925060420972  0.1482411613089241  0.7999356241342213  1.0000
  C   C31       1.0  0.523090914254297  0.3517619298672443  0.7999363130698355  1.0000
  C   C32       1.0  0.9769097451919107  0.8517595781473801  0.2000630912562755  1.0000
  C   C33       1.0  0.4519492564310283  0.5407252842004056  0.1938252672536649  1.0000
  C   C34       1.0  0.04804915178117138  0.0407260808071186  0.8061731788589839  1.0000
  C   C35       1.0  0.5480502773981755  0.4592770103690498  0.8061747793772014  1.0000
  C   C36       1.0  0.9519503820480322  0.9592738810926064  0.19382462494890967  1.0000
  C   C37       1.0  0.3594121118670515  0.4927679272318741  0.1099660774061348  1.0000
  C   C38       1.0  0.1405862963451483  0.9927679081817401  0.8900338639218217  1.0000
  C   C39       1.0  0.6405887806645507  0.5072320346678509  0.8900362940351627  1.0000
  C   C40       1.0  0.859410520079251  0.0072304986048337  0.1099637759111332  1.0000
  C   C41       1.0  0.3018493258597843  0.556023709842961  0.029664695478750492  1.0000
  C   C42       1.0  0.1981463649476112  0.056024506449674  0.9703343342666102  1.0000
  C   C43       1.0  0.6981488492670209  0.4439754745001848  0.9703360167722934  1.0000
  C   C44       1.0  0.8018504514767884  0.9439739003368999  0.02966405317400238  1.0000
  C   C45       1.0  0.5840300757331318  0.6872324943437462  0.29394098529883905  1.0000
  C   C46       1.0  0.9159746598202929  0.1872340685070384  0.7060586649896835  1.0000
  C   C47       1.0  0.4159721755008832  0.312768245112558  0.7060584776993082  1.0000
  C   C48       1.0  0.0840275914137223  0.8127666709492657  0.293942293223779  1.0000
  S   S1        1.0  0.6285805688264715  0.999688161712555  0.3854286146010111  1.0000
  S   S2        1.0  0.8714200906197431  0.4996874032061099  0.6145715373327504  1.0000
  S   S3        1.0  0.3714189650027321  0.0003118001871769  0.6145706844221976  1.0000
  S   S4        1.0  0.1285821606142719  0.5003117811370359  0.3854294208807119  1.0000
  S   S5        1.0  0.4071935992748265  0.8445695124845187  0.10626739301078907  1.0000
  S   S6        1.0  0.09280616763977179  0.3445703090912318  0.8937326303046474  1.0000
  S   S7        1.0  0.5928045758519714  0.1554312269717855  0.8937325716326043  1.0000
  S   S8        1.0  0.9071947248918304  0.6554296528084933  0.10626749831369148  1.0000
  N   N1        1.0  0.64851001567429  0.18151669500006307  0.4699221757297636  1.0000
  N   N2        1.0  0.8514879263671133  0.68151589839335  0.5300785598367099  1.0000
  N   N3        1.0  0.351488159452515  0.8184832668996618  0.5300785365212803  1.0000
  N   N4        1.0  0.14851296616448906  0.31848328594980296  0.4699215687816221  1.0000
  N   N5        1.0  0.3282122285860041  0.6593811953302477  0.0349120474277171  1.0000
  N   N6        1.0  0.1717861796261957  0.1593812143803817  0.9650893891155548  1.0000
  N   N7        1.0  0.6717873052431997  0.3406179890129052  0.9650894944184572  1.0000
  N   N8        1.0  0.8282147129054138  0.8406171924061921  0.03491073950277719  1.0000
  O   O1        1.0  0.3384310293592846  0.05874828713714209  0.1994267015152573  1.0000
  O   O2        1.0  0.16156873755532075  0.5587482680870011  0.8005740694078298  1.0000
  O   O3        1.0  0.6615698631723248  0.941252452319162  0.8005726794954242  1.0000
  O   O4        1.0  0.8384307962738828  0.44125169381272394  0.19942672483068694  1.0000
  O   O5        1.0  0.3433142057958136  0.2230148894876436  0.1435977101809414  1.0000
  O   O6        1.0  0.15668556111879176  0.7230148704375097  0.8564030607421458  1.0000
  O   O7        1.0  0.65668532803339  0.7769866275252326  0.8564023364499249  1.0000
  O   O8        1.0  0.8433153314128177  0.2769850914622154  0.14359632026852856  1.0000
  O   O9        1.0  0.5590747886964635  0.7763257044352159  0.32895949342279346  1.0000
  O   O10       1.0  0.94093945777378  0.2763257234853498  0.6710384879550659  1.0000
  O   O11       1.0  0.4409247451327474  0.2236750350210883  0.6710405532080728  1.0000
  O   O12       1.0  0.059065510865039486  0.7236750159709544  0.3289626342333349  1.0000
  O   O13       1.0  0.699912444986168  0.6221276821937564  0.33877826186891014  1.0000
  O   O14       1.0  0.8000882144600396  0.12213081147019977  0.6612211424572008  1.0000
  O   O15       1.0  0.3000925236526512  0.3778738348191268  0.6612198698888676  1.0000
  O   O16       1.0  0.1999113193691642  0.8778699279861044  0.33877965178132285  1.0000
