data_image0
_chemical_formula_structural       Ni4H36C20N12O24
_chemical_formula_sum              "Ni4 H36 C20 N12 O24"
_cell_length_a       7.561629558062959
_cell_length_b       8.30365444307116
_cell_length_c       14.618363826013901
_cell_angle_alpha    90.00015728256875
_cell_angle_beta     89.99999583431863
_cell_angle_gamma    89.99954229153181

_space_group_name_H-M_alt    "P 1"
_space_group_IT_number       1

loop_
  _space_group_symop_operation_xyz
  'x, y, z'

loop_
  _atom_site_type_symbol
  _atom_site_label
  _atom_site_symmetry_multiplicity
  _atom_site_fract_x
  _atom_site_fract_y
  _atom_site_fract_z
  _atom_site_occupancy
  Ni  Ni1       1.0  0.6904461611523659  0.3606876115315527  0.32715179233530733  1.0000
  Ni  Ni2       1.0  0.19044507094579893  0.13931187649174595  0.6728483195581632  1.0000
  Ni  Ni3       1.0  0.3095539062811739  0.8606865784854562  0.1728483243777745  1.0000
  Ni  Ni4       1.0  0.8095528501444277  0.639315102141552  0.8271518758029259  1.0000
  H   H1        1.0  0.7688376484733368  0.43481215195538425  0.6739471575769541  1.0000
  H   H2        1.0  0.2688412166193004  0.0651879577412799  0.32605295173218  1.0000
  H   H3        1.0  0.23115905890521293  0.9348052193681935  0.8260528124893796  1.0000
  H   H4        1.0  0.7311587420699938  0.5651934310123039  0.1739473902738098  1.0000
  H   H5        1.0  0.8243093302248282  0.8596221146509107  0.5174190248897972  1.0000
  H   H6        1.0  0.3243095833796161  0.6403782520162619  0.4825791225900886  1.0000
  H   H7        1.0  0.17569727974649396  0.3596180933583923  0.9825821965831736  1.0000
  H   H8        1.0  0.6756936973693256  0.14038270857720647  0.0174185998687406  1.0000
  H   H9        1.0  0.3585281486079878  0.3942052782764448  0.2716073039565785  1.0000
  H   H10       1.0  0.8585273957700322  0.10579175628494397  0.7283921183218567  1.0000
  H   H11       1.0  0.6414729536254525  0.8942020480339179  0.228394917006483  1.0000
  H   H12       1.0  0.1414747804060354  0.6057972688792147  0.771605972785423  1.0000
  H   H13       1.0  0.3530083776727224  0.3449320648183729  0.3754150529112721  1.0000
  H   H14       1.0  0.8530058958469481  0.15506741935326562  0.6245857376932592  1.0000
  H   H15       1.0  0.6469944699112489  0.8449331068643243  0.1245850393418166  1.0000
  H   H16       1.0  0.14699321249675995  0.6550673733122281  0.8754151661979037  1.0000
  H   H17       1.0  0.022627461226093694  0.2865987201340018  0.3689142855561798  1.0000
  H   H18       1.0  0.5226244776995584  0.21340321939860016  0.631085831872582  1.0000
  H   H19       1.0  0.977371919622996  0.7865997469599363  0.1310850320594099  1.0000
  H   H20       1.0  0.4773701625661033  0.7134018907472638  0.868913794445767  1.0000
  H   H21       1.0  0.016082354780493795  0.34006771030165334  0.260523263789544  1.0000
  H   H22       1.0  0.5160798130525704  0.15993427787028477  0.7394761697839627  1.0000
  H   H23       1.0  0.9839165671422306  0.8400716231435368  0.2394761368425193  1.0000
  H   H24       1.0  0.48391925353819687  0.6599299659112529  0.7605240575889239  1.0000
  H   H25       1.0  0.9375974329437966  0.16528709755770876  0.2914253401013269  1.0000
  H   H26       1.0  0.4375893701488707  0.3347117579748796  0.7085747636426376  1.0000
  H   H27       1.0  0.0624029890891435  0.6652904832958411  0.20857584138481394  1.0000
  H   H28       1.0  0.5624002615495274  0.8347106255623301  0.7914243669445894  1.0000
  H   H29       1.0  0.6598319105648967  0.16185388608658965  0.4515951139454444  1.0000
  H   H30       1.0  0.15982648852336467  0.33814582947677957  0.5484056830287756  1.0000
  H   H31       1.0  0.34016986342354727  0.661852021522243  0.048404694064139206  1.0000
  H   H32       1.0  0.8401697260170804  0.8381482272773296  0.9515955051059635  1.0000
  H   H33       1.0  0.684466049451352  0.03289592071651269  0.3711031051709028  1.0000
  H   H34       1.0  0.18445818541319878  0.46710361177892407  0.6288983750620575  1.0000
  H   H35       1.0  0.3155368313609089  0.5328934256105524  0.1288978707643622  1.0000
  H   H36       1.0  0.8155342773708439  0.9671070062684418  0.8711023292181251  1.0000
  C   C1        1.0  0.7348966987108909  0.40312589256580367  0.5352024679839502  1.0000
  C   C2        1.0  0.23489600559177148  0.09687446939437899  0.4647983265156412  1.0000
  C   C3        1.0  0.2651068929594231  0.9031181768171023  0.9647967688155106  1.0000
  C   C4        1.0  0.765106326074779  0.5968790169764303  0.0352027487561344  1.0000
  C   C5        1.0  0.8010704906294066  0.6574572265254445  0.6122749012339881  1.0000
  C   C6        1.0  0.30107299101282337  0.8425445171379805  0.3877259832975071  1.0000
  C   C7        1.0  0.19892727475161112  0.15745377645306746  0.8877232700805564  1.0000
  C   C8        1.0  0.6989245871870154  0.34254805712338043  0.1122768415351203  1.0000
  C   C9        1.0  0.7963198796910476  0.7318170599823615  0.5236877535590594  1.0000
  C   C10       1.0  0.2963230043076449  0.7681835146875143  0.4763097107727389  1.0000
  C   C11       1.0  0.2036838597983461  0.2318152088326428  0.9763112172763895  1.0000
  C   C12       1.0  0.7036791795194333  0.26818658939904333  0.0236882101113665  1.0000
  C   C13       1.0  0.7601918355209064  0.6372538286698342  0.4487237509223405  1.0000
  C   C14       1.0  0.26018884682665083  0.8627446059483288  0.5512750827412773  1.0000
  C   C15       1.0  0.2398141170086845  0.13725085037776807  0.05127533482196609  1.0000
  C   C16       1.0  0.7398124464470541  0.36274827074789334  0.9487240913723693  1.0000
  C   C17       1.0  0.7585146682040644  0.7042939632127556  0.3524161712518747  1.0000
  C   C18       1.0  0.2585082723064005  0.7957020753095349  0.6475847146784943  1.0000
  C   C19       1.0  0.24148938645443252  0.2042938484744781  0.14758370265011683  1.0000
  C   C20       1.0  0.7414883065069019  0.29570766877660765  0.8524157234908286  1.0000
  N   N1        1.0  0.9453598021441536  0.2832508401273444  0.3110083344903884  1.0000
  N   N2        1.0  0.4453593672225935  0.21675036626575658  0.6889917689993297  1.0000
  N   N3        1.0  0.0546409299005575  0.7832529842150676  0.1889916619993173  1.0000
  N   N4        1.0  0.5546378892461374  0.716749386620222  0.8110085465870043  1.0000
  N   N5        1.0  0.7298948287958636  0.4751325610786239  0.452754172401157  1.0000
  N   N6        1.0  0.2298894508172751  0.024866633780057195  0.5472452541203552  1.0000
  N   N7        1.0  0.2701121911880334  0.9751288029968916  0.04724749013539759  1.0000
  N   N8        1.0  0.7701120974631054  0.5248707621756951  0.9527527113441252  1.0000
  N   N9        1.0  0.7609052423241138  0.4950240739285762  0.611848599516108  1.0000
  N   N10       1.0  0.2609079949750067  0.0049785033004426  0.388150825985413  1.0000
  N   N11       1.0  0.23909756058712617  0.9950197923410682  0.8881514640352677  1.0000
  N   N12       1.0  0.7390938029586707  0.5049812076287523  0.1118473703258829  1.0000
  O   O1        1.0  0.6225014574601389  0.13399143818404716  0.387519522563565  1.0000
  O   O2        1.0  0.12249578616685848  0.36600735052938654  0.612481959711893  1.0000
  O   O3        1.0  0.3775005556608661  0.6339908114670793  0.1124816103308035  1.0000
  O   O4        1.0  0.877498866774701  0.8660103641890017  0.8875185876091649  1.0000
  O   O5        1.0  0.41738706755137406  0.413417226188784  0.33079998886520906  1.0000
  O   O6        1.0  0.9173864889439469  0.08658177951924269  0.6692007996162134  1.0000
  O   O7        1.0  0.5826151922345345  0.9134189632407154  0.1692029460006239  1.0000
  O   O8        1.0  0.0826132071926082  0.5865831996901533  0.8307979457342327  1.0000
  O   O9        1.0  0.7439746044749073  0.599941013249925  0.2886353547534668  1.0000
  O   O10       1.0  0.24397259269860433  0.9000623590490519  0.7113648475908647  1.0000
  O   O11       1.0  0.2560250559846011  0.09993507858547448  0.2113650412001462  1.0000
  O   O12       1.0  0.7560257353656609  0.4000627177658628  0.7886350685296932  1.0000
  O   O13       1.0  0.715569505959337  0.2510712515032408  0.5455147218679102  1.0000
  O   O14       1.0  0.2155661869408974  0.24893045839698394  0.4544874414121978  1.0000
  O   O15       1.0  0.2844353907569256  0.7510657506401299  0.9544849629292002  1.0000
  O   O16       1.0  0.7844321947418963  0.7489312995155399  0.0455145540050665  1.0000
  O   O17       1.0  0.8388503998973105  0.7276335963111008  0.6862415092707437  1.0000
  O   O18       1.0  0.3388561592094134  0.7723666622710325  0.3137580058716836  1.0000
  O   O19       1.0  0.16114411826189468  0.2276252508762227  0.8137581391357855  1.0000
  O   O20       1.0  0.6611433437512416  0.27237686349407386  0.1862419737258705  1.0000
  O   O21       1.0  0.7773023064923734  0.853685912580097  0.3377183355853575  1.0000
  O   O22       1.0  0.2772932230623084  0.6463135991912734  0.6622825497282889  1.0000
  O   O23       1.0  0.2227017884450078  0.3536823959344773  0.16227971804186583  1.0000
  O   O24       1.0  0.7226953806642982  0.1463180566717668  0.8377183405756411  1.0000
