data_image0
_chemical_formula_structural       U4H32C36S4N4O32
_chemical_formula_sum              "U4 H32 C36 S4 N4 O32"
_cell_length_a       7.855055090170952
_cell_length_b       12.024551219
_cell_length_c       13.3182
_cell_angle_alpha    90.0
_cell_angle_beta     94.59304113026494
_cell_angle_gamma    90.0

_space_group_name_H-M_alt    "P 1"
_space_group_IT_number       1

loop_
  _space_group_symop_operation_xyz
  'x, y, z'

loop_
  _atom_site_type_symbol
  _atom_site_label
  _atom_site_symmetry_multiplicity
  _atom_site_fract_x
  _atom_site_fract_y
  _atom_site_fract_z
  _atom_site_occupancy
  U   U1        1.0  0.9936372231008053  0.2882910086924895  0.6034106494515754  1.0000
  U   U2        1.0  0.0063641232886766  0.7882922054523291  0.8965891137972477  1.0000
  U   U3        1.0  0.0063654004556994  0.7117072266678477  0.39658992496981693  1.0000
  U   U4        1.0  0.9936346687667523  0.2117085248036119  0.10340977795866022  1.0000
  H   H1        1.0  0.0217923009581824  0.0456557579573129  0.6650378959603813  1.0000
  H   H2        1.0  0.9782103225983221  0.545656123085287  0.834962678461018  1.0000
  H   H3        1.0  0.9782103225983221  0.9543433090348897  0.33496267846101807  1.0000
  H   H4        1.0  0.0217923009581824  0.4543446071706541  0.1650378959603813  1.0000
  H   H5        1.0  0.8204201680838212  0.0696691281647404  0.6226312423936733  1.0000
  H   H6        1.0  0.1795824554726835  0.56967032492458  0.8773700828799421  1.0000
  H   H7        1.0  0.1795824554726835  0.9303299388274694  0.377370082879942  1.0000
  H   H8        1.0  0.8204201680838212  0.430330405331361  0.12263124239367333  1.0000
  H   H9        1.0  0.523754702704281  0.136846687250987  0.3189612776558591  1.0000
  H   H10       1.0  0.47624792085222384  0.6368478840108338  0.1810377950611013  1.0000
  H   H11       1.0  0.47624792085222384  0.8631532113730883  0.6810377950611013  1.0000
  H   H12       1.0  0.5237508712032053  0.3631520146132416  0.8189610966948069  1.0000
  H   H13       1.0  0.2743290912684415  0.2638501797045762  0.3252832505648868  1.0000
  H   H14       1.0  0.725673532288063  0.7638513764644157  0.1747158221520735  1.0000
  H   H15       1.0  0.7256722551210402  0.7361497189194992  0.6747150109795045  1.0000
  H   H16       1.0  0.2743265369343888  0.2361476905277939  0.8252831299241876  1.0000
  H   H17       1.0  0.3216315263963949  0.467844487294542  0.3501712976384042  1.0000
  H   H18       1.0  0.678368542826057  0.9678456840543816  0.14982690358564102  1.0000
  H   H19       1.0  0.678368542826057  0.5321554113295335  0.6498261527334251  1.0000
  H   H20       1.0  0.3216315263963949  0.0321533829378282  0.8501712976384043  1.0000
  H   H21       1.0  0.6177120492781967  0.5420027642862806  0.3705058312976846  1.0000
  H   H22       1.0  0.3822892971112779  0.0420023991583136  0.12949318109892974  1.0000
  H   H23       1.0  0.3822880199442552  0.4579979659696605  0.6294931207785767  1.0000
  H   H24       1.0  0.6177133264452266  0.9579966678338961  0.8705051407658149  1.0000
  H   H25       1.0  0.492974977386794  0.34088590296186533  0.1128620345373932  1.0000
  H   H26       1.0  0.507023814668635  0.8408846048261012  0.38713685721851493  1.0000
  H   H27       1.0  0.507023814668635  0.6591156589259484  0.8871368572185149  1.0000
  H   H28       1.0  0.492974977386794  0.1591144621661087  0.6128627853896093  1.0000
  H   H29       1.0  0.765459839470239  0.6028632476982239  0.9997196683023404  1.0000
  H   H30       1.0  0.2345402297522199  0.10286537746586079  0.5002807854783528  1.0000
  H   H31       1.0  0.23453895258519  0.39713581929397884  0.0002799743057834997  1.0000
  H   H32       1.0  0.765459839470239  0.8971378476856912  0.4997196683023404  1.0000
  C   C1        1.0  0.9075561655738937  0.4345234932131206  0.3888241165506302  1.0000
  C   C2        1.0  0.092443903648558  0.9345246899729673  0.11117633723006291  1.0000
  C   C3        1.0  0.0924464579826108  0.5654755737790822  0.6111794612796331  1.0000
  C   C4        1.0  0.9075548884068709  0.0654768719148464  0.8888233053780611  1.0000
  C   C5        1.0  0.7372089048634791  0.3817830633667326  0.36348126597449953  1.0000
  C   C6        1.0  0.2627911643589727  0.8817842601265724  0.13651843695397764  1.0000
  C   C7        1.0  0.2627937186930254  0.6182160036254771  0.6365223118557637  1.0000
  C   C8        1.0  0.7372076276964563  0.1182164701293686  0.8634812056541534  1.0000
  C   C9        1.0  0.7084828641231979  0.2665812587612351  0.3501559563048531  1.0000
  C   C10       1.0  0.2915184822662837  0.766581623889209  0.14984455779618602  1.0000
  C   C11       1.0  0.2915184822662837  0.7334178082309676  0.6498475612050569  1.0000
  C   C12       1.0  0.7084828641231979  0.23341827473486626  0.8501559563048532  1.0000
  C   C13       1.0  0.5426733778548183  0.2253015476967875  0.3334174466102553  1.0000
  C   C14       1.0  0.4573292457016862  0.725302744456627  0.16658237695892103  1.0000
  C   C15       1.0  0.4573279685346634  0.774698350927288  0.6665838183430067  1.0000
  C   C16       1.0  0.5426708235207656  0.2746971541674483  0.8334180768217722  1.0000
  C   C17       1.0  0.4032961403487079  0.2972352094398758  0.3352697605545459  1.0000
  C   C18       1.0  0.5967052060407738  0.7972364061997155  0.16472850098984543  1.0000
  C   C19       1.0  0.5967052060407738  0.7027646891841997  0.6647285009898454  1.0000
  C   C20       1.0  0.4032935860146552  0.2027626607924873  0.8352711416182786  1.0000
  C   C21       1.0  0.4295764062349292  0.4110789592038557  0.3491207845462797  1.0000
  C   C22       1.0  0.5704236629875297  0.9110801559636954  0.1508774166777584  1.0000
  C   C23       1.0  0.5704249401545525  0.588920107788347  0.6508782278503276  1.0000
  C   C24       1.0  0.4295751290678993  0.08891974266038008  0.8491214750781495  1.0000
  C   C25       1.0  0.5955646958868925  0.4529981951753044  0.36059300226366997  1.0000
  C   C26       1.0  0.4044366505025891  0.9529985603032785  0.1394052592807213  1.0000
  C   C27       1.0  0.404437927669612  0.5470008718169055  0.6394075721577296  1.0000
  C   C28       1.0  0.5955621415528398  0.0470005066889314  0.8605936324751868  1.0000
  C   C29       1.0  0.496764331951816  0.4123430396442131  0.06281875276140882  1.0000
  C   C30       1.0  0.5032331829365901  0.9123417415084488  0.4371808295263692  1.0000
  C   C31       1.0  0.5032319057695602  0.5876593538754662  0.9371807692060159  1.0000
  C   C32       1.0  0.496764331951816  0.08765815711562648  0.5628187527614088  1.0000
  C   C33       1.0  0.6464419215195607  0.5568873114714776  0.9997478872300009  1.0000
  C   C34       1.0  0.3535555933688386  0.0568869463435036  0.5002524459099931  1.0000
  C   C35       1.0  0.3535555933688386  0.4431142504163361  0.00025169505777710273  1.0000
  C   C36       1.0  0.6464419215195607  0.9431129522805719  0.49974788723000074  1.0000
  S   S1        1.0  0.87799613476588  0.1679821527815832  0.3533400622235662  1.0000
  S   S2        1.0  0.12200776595765463  0.6679825179095502  0.1466605725181793  1.0000
  S   S3        1.0  0.1220052116236019  0.8320169142106265  0.6466612027296962  1.0000
  S   S4        1.0  0.8779948575988499  0.3320173807145252  0.853339251050997  1.0000
  N   N1        1.0  0.643144276259406  0.46974060795507455  0.0624377198176589  1.0000
  N   N2        1.0  0.3568557929630458  0.9697393098193103  0.4375619831108111  1.0000
  N   N3        1.0  0.3568557929630458  0.5302617855646048  0.9375619831108113  1.0000
  N   N4        1.0  0.643144276259406  0.0302597571728995  0.562438470669882  1.0000
  O   O1        1.0  0.7663653508913981  0.3127459754221675  0.5967883097983417  1.0000
  O   O2        1.0  0.23363344116402376  0.8127529936050948  0.9032105819575663  1.0000
  O   O3        1.0  0.23363471833105365  0.6872472701469546  0.4032113931301353  1.0000
  O   O4        1.0  0.7663653508913981  0.1872535580739338  0.0967875589461258  1.0000
  O   O5        1.0  0.21917974193506506  0.256683176260502  0.6120952955018737  1.0000
  O   O6        1.0  0.7808164957863115  0.7566827097566033  0.887904977317767  1.0000
  O   O7        1.0  0.7808164957863115  0.7433167223635735  0.3879049773177671  1.0000
  O   O8        1.0  0.21917974193506506  0.2433163572355994  0.11209529550187373  1.0000
  O   O9        1.0  0.0155750518774553  0.3882356950356325  0.45211642390351164  1.0000
  O   O10       1.0  0.9844237401779665  0.8882368917954722  0.04788396955682829  1.0000
  O   O11       1.0  0.984428848846072  0.6117650352203157  0.5478857125426658  1.0000
  O   O12       1.0  0.0155737747104325  0.11176467009234159  0.9521156127309426  1.0000
  O   O13       1.0  0.9349079745946087  0.5283473690029581  0.3492643205949478  1.0000
  O   O14       1.0  0.0650908174608134  0.028347835506856697  0.1507345711609602  1.0000
  O   O15       1.0  0.0650908174608134  0.4716516979892447  0.6507360728653993  1.0000
  O   O16       1.0  0.9349079745946087  0.9716528947490843  0.8492643205949479  1.0000
  O   O17       1.0  0.9583324950115397  0.1642863807572752  0.4577282570228861  1.0000
  O   O18       1.0  0.0416701285449648  0.6642884091489876  0.04227156654629031  1.0000
  O   O19       1.0  0.0416688513779349  0.8357110229711963  0.5422722570781603  1.0000
  O   O20       1.0  0.9583312178445171  0.3357123211069606  0.957728196702533  1.0000
  O   O21       1.0  0.0046067414614157  0.2104078525610404  0.2851081763366778  1.0000
  O   O22       1.0  0.9953958820950888  0.7104082176890074  0.21489164723250556  1.0000
  O   O23       1.0  0.9953920505940062  0.7895928776949077  0.7148922171236692  1.0000
  O   O24       1.0  0.0046067414614157  0.289591680935068  0.785108176336678  1.0000
  O   O25       1.0  0.8076957530075504  0.060240086037922  0.3221774377749115  1.0000
  O   O26       1.0  0.1923055933819313  0.560240451165896  0.1778215746217029  1.0000
  O   O27       1.0  0.1923017618808558  0.9397598125861535  0.6778213936606505  1.0000
  O   O28       1.0  0.8076970301745732  0.43975944745817935  0.8221767472430415  1.0000
  O   O29       1.0  0.9333804828319643  0.1038400500159256  0.6542461637300079  1.0000
  O   O30       1.0  0.0666208635575103  0.6038420784076308  0.8457535995188153  1.0000
  O   O31       1.0  0.0666221407245402  0.896157353712546  0.3457536598391684  1.0000
  O   O32       1.0  0.9333804828319643  0.39615948348017577  0.1542461637300079  1.0000
