data_image0
_chemical_formula_structural       Ni2H44C44N8O16
_chemical_formula_sum              "Ni2 H44 C44 N8 O16"
_cell_length_a       8.142595773225658
_cell_length_b       13.42915459786964
_cell_length_c       13.646
_cell_angle_alpha    110.92065004628122
_cell_angle_beta     96.70411883903884
_cell_angle_gamma    96.36289734981014

_space_group_name_H-M_alt    "P 1"
_space_group_IT_number       1

loop_
  _space_group_symop_operation_xyz
  'x, y, z'

loop_
  _atom_site_type_symbol
  _atom_site_label
  _atom_site_symmetry_multiplicity
  _atom_site_fract_x
  _atom_site_fract_y
  _atom_site_fract_z
  _atom_site_occupancy
  Ni  Ni1       1.0  0.49999327191188314  2.4245996997e-06  0.5000012627036696  1.0000
  Ni  Ni2       1.0  0.5000028973021742  0.5000025670449375  0.9999994550528514  1.0000
  H   H1        1.0  0.29489391815465643  0.1590408092841784  0.4784680989611304  1.0000
  H   H2        1.0  0.7371119436326978  0.5584944184674328  0.8586168400043804  1.0000
  H   H3        1.0  0.7050935340701657  0.8409651330055894  0.5215195579946793  1.0000
  H   H4        1.0  0.2629000337955816  0.4415155648218487  0.14138860170236708  1.0000
  H   H5        1.0  0.290007823135447  0.2810353515142907  0.38082592741591276  1.0000
  H   H6        1.0  0.7437749544498544  0.6656342465203551  0.747325753494934  1.0000
  H   H7        1.0  0.7099977653748438  0.7189689743756773  0.6191624249147054  1.0000
  H   H8        1.0  0.2562415570505294  0.334369271169713  0.2526762664108375  1.0000
  H   H9        1.0  0.7476073345727698  0.1791197276203107  0.27562365958738166  1.0000
  H   H10       1.0  0.2222168118953931  0.6908508916260345  0.7750111051446353  1.0000
  H   H11       1.0  0.25240443676263874  0.820879749070258  0.7243817398163942  1.0000
  H   H12       1.0  0.7777924863108012  0.3091437358651277  0.22497409758235418  1.0000
  H   H13       1.0  0.7344026904146972  0.0629692788730694  0.37921459957345865  1.0000
  H   H14       1.0  0.24121087383522172  0.585886737706133  0.889079710295789  1.0000
  H   H15       1.0  0.265592799482306  0.9370342388169989  0.6207947497475459  1.0000
  H   H16       1.0  0.7587988365590732  0.414109506184829  0.1109097532253926  1.0000
  H   H17       1.0  0.9616535316597419  0.9699101943828055  0.4151807484871597  1.0000
  H   H18       1.0  0.07519173081957578  0.584503099475917  0.03355794726589781  1.0000
  H   H19       1.0  0.0383386607312417  0.0300900905076631  0.5848272351213455  1.0000
  H   H20       1.0  0.9248058200197207  0.41549395261494493  0.9664463423442984  1.0000
  H   H21       1.0  0.9519370339804851  0.8293771628275409  0.34334270906116876  1.0000
  H   H22       1.0  0.08275084251307868  0.6629001062558615  0.16989722323748424  1.0000
  H   H23       1.0  0.0480601046701139  0.1706231220629206  0.6566604893967638  1.0000
  H   H24       1.0  0.9172471205143253  0.33709856223480733  0.830105464643083  1.0000
  H   H25       1.0  0.7044989489223497  0.869823526864387  0.0708414753731005  1.0000
  H   H26       1.0  0.3217616996456059  0.934562763520269  0.11786949782491259  1.0000
  H   H27       1.0  0.29549138862157054  0.1301743334263747  0.9291662598362366  1.0000
  H   H28       1.0  0.6782302866525143  0.0654270147714868  0.8821259856175205  1.0000
  H   H29       1.0  0.5821245665807595  0.899053692677569  0.9117917672370482  1.0000
  H   H30       1.0  0.4178639161161044  0.100941743013486  0.08821571957312101  1.0000
  H   H31       1.0  0.02401880868060151  0.17971052174781482  0.1782699520688595  1.0000
  H   H32       1.0  0.9759795665355  0.8202849139432473  0.8217272316246707  1.0000
  H   H33       1.0  0.8766939120016348  0.8487569882494554  0.18384728506718762  1.0000
  H   H34       1.0  0.164851932356946  0.8163505968260267  0.1425874960445768  1.0000
  H   H35       1.0  0.1233024022721736  0.1512449130408129  0.8161578895990617  1.0000
  H   H36       1.0  0.8351505647419727  0.18364645526483514  0.8574134740459912  1.0000
  H   H37       1.0  0.3646637943023876  0.1680716349760161  0.7137272842641168  1.0000
  H   H38       1.0  0.5369768276026434  0.3249973851197367  0.8255468721081062  1.0000
  H   H39       1.0  0.6353286041820569  0.8319343073137588  0.28627390792804147  1.0000
  H   H40       1.0  0.46302319636587436  0.6750045161705316  0.17444976719074382  1.0000
  H   H41       1.0  0.549525920401294  0.1615179419802146  0.6967633855781656  1.0000
  H   H42       1.0  0.4241596548098415  0.3092261722550091  0.9038248661873709  1.0000
  H   H43       1.0  0.4504654476128849  0.8384839593100537  0.30324071171484235  1.0000
  H   H44       1.0  0.5758473763594125  0.6907789618348589  0.09617632850419962  1.0000
  C   C1        1.0  0.3928282089973294  0.1661578176108591  0.43263212699436343  1.0000
  C   C2        1.0  0.6241220584593633  0.5876332576918202  0.8370794301676838  1.0000
  C   C3        1.0  0.6071687235586368  0.833846508279109  0.5673622176994613  1.0000
  C   C4        1.0  0.3758862092753859  0.4123670271986484  0.1629157497594989  1.0000
  C   C5        1.0  0.392264327016477  0.2348418779826673  0.3769219221453781  1.0000
  C   C6        1.0  0.62601214051157  0.6482943176481301  0.7729602204162306  1.0000
  C   C7        1.0  0.6077394066467576  0.7651600233075939  0.6230705786789343  1.0000
  C   C8        1.0  0.37400189785901017  0.3517092000419382  0.2270379631332773  1.0000
  C   C9        1.0  0.5183566433596596  0.2423039876670003  0.3167074804687147  1.0000
  C   C10       1.0  0.48213574791098773  0.6890825502430218  0.747788124917605  1.0000
  C   C11       1.0  0.48164605983330944  0.7576938726237614  0.6832879254564476  1.0000
  C   C12       1.0  0.5178776721774341  0.3109185428473396  0.25220843074122  1.0000
  C   C13       1.0  0.6439329086106725  0.1788109952581891  0.3190926844043532  1.0000
  C   C14       1.0  0.3406496433076711  0.6640380517162257  0.790017490146724  1.0000
  C   C15       1.0  0.35607556521812705  0.8211900978321722  0.6809101220359964  1.0000
  C   C16       1.0  0.6593588305217182  0.3359581921747363  0.2099748184969314  1.0000
  C   C17       1.0  0.6372975095212894  0.111717472291204  0.3762497191714615  1.0000
  C   C18       1.0  0.3491732925161841  0.6040777010739262  0.8546342211737965  1.0000
  C   C19       1.0  0.3627016900704234  0.8882860453988641  0.6237554916749984  1.0000
  C   C20       1.0  0.6508310594297982  0.3959217756166353  0.14535747071474955  1.0000
  C   C21       1.0  0.1911878663607638  0.9240884928055664  0.3621602984340698  1.0000
  C   C22       1.0  0.8425169322940461  0.6397823562926277  0.07375967375553923  1.0000
  C   C23       1.0  0.8088074174421891  0.0759142166846019  0.6378392259273229  1.0000
  C   C24       1.0  0.1574855648042828  0.3602195449976406  0.9262393362686228  1.0000
  C   C25       1.0  0.9989901735476822  0.910560034665636  0.34601579726811593  1.0000
  C   C26       1.0  0.034678352228972587  0.6558307817233313  0.08849711750209371  1.0000
  C   C27       1.0  0.001006140726118999  0.08944186662463241  0.6539879117671817  1.0000
  C   C28       1.0  0.9653251753402116  0.34417031136703  0.9115053443804941  1.0000
  C   C29       1.0  0.9498951522796235  0.0171734396926553  0.23903381213224864  1.0000
  C   C30       1.0  0.0746752373503838  0.7608555506357959  0.979459035002293  1.0000
  C   C31       1.0  0.05009992543045877  0.9828187631988001  0.7609649371107069  1.0000
  C   C32       1.0  0.9253227256776172  0.23913826865545934  0.020541216051824993  1.0000
  C   C33       1.0  0.8741137139642632  0.023565492708293303  0.13635204605967033  1.0000
  C   C34       1.0  0.1401900819483828  0.8658326357541101  0.9713170619951583  1.0000
  C   C35       1.0  0.1258778601445627  0.9764323675824755  0.8636506455807692  1.0000
  C   C36       1.0  0.8598171553166907  0.1341587589374456  0.028680784652848963  1.0000
  C   C37       1.0  0.7493355467360701  0.94413750774536  0.060269305584910116  1.0000
  C   C38       1.0  0.26482200630660213  0.945649649759801  0.04689690493311351  1.0000
  C   C39       1.0  0.25065540909059797  0.0558579279457021  0.9397324909803189  1.0000
  C   C40       1.0  0.7351691556141234  0.05434659413115381  0.9531029915440855  1.0000
  C   C41       1.0  0.6809640163413491  0.9601762347772578  0.9695296161111173  1.0000
  C   C42       1.0  0.31903003089728804  0.0398216255135111  0.0304710493617719  1.0000
  C   C43       1.0  0.9276009052438213  0.1177062335563264  0.11944370546886772  1.0000
  C   C44       1.0  0.07239994310268118  0.8822843529353293  0.8805548777544843  1.0000
  N   N1        1.0  0.5123743653604719  0.10372437527203722  0.4316536083097164  1.0000
  N   N2        1.0  0.4888830793043226  0.566283849111592  0.8789172633328236  1.0000
  N   N3        1.0  0.48762277328954434  0.896280758817838  0.5683483628972823  1.0000
  N   N4        1.0  0.5111272493715404  0.4337196685784761  0.12108212742931806  1.0000
  N   N5        1.0  0.9247569141563902  0.9197112821426856  0.24883619987110714  1.0000
  N   N6        1.0  0.1049760247479909  0.7529174112098787  0.07538226453423383  1.0000
  N   N7        1.0  0.07523424776373841  0.0802898109476757  0.7511712631408829  1.0000
  N   N8        1.0  0.8950279150098837  0.2470804490808831  0.9246183572386997  1.0000
  O   O1        1.0  0.2623653611667294  0.969097145282575  0.4607969812111179  1.0000
  O   O2        1.0  0.7648557217795542  0.5433608753244599  0.0364047821894715  1.0000
  O   O3        1.0  0.7376288921647784  0.0309112216068996  0.5392051921956948  1.0000
  O   O4        1.0  0.23514553875386918  0.4566410259658085  0.9635963401416773  1.0000
  O   O5        1.0  0.2657863275971053  0.8902806827541029  0.2842617582780704  1.0000
  O   O6        1.0  0.7728919289654355  0.7238860625723049  0.1012153826320556  1.0000
  O   O7        1.0  0.7342095744885954  0.1097196021363658  0.7157413540404179  1.0000
  O   O8        1.0  0.2271118046977918  0.2761158387179634  0.8987851791625019  1.0000
  O   O9        1.0  0.028816072046602404  0.0992841250168937  0.3139660285385304  1.0000
  O   O10       1.0  0.9939252313587303  0.6839569464719872  0.8996355925087798  1.0000
  O   O11       1.0  0.9711823031689022  0.9007161598735678  0.6860328591659838  1.0000
  O   O12       1.0  0.006065312279837096  0.3160368728192751  0.10036780578607819  1.0000
  O   O13       1.0  0.4562099875624881  0.20209200160139323  0.6903978971059743  1.0000
  O   O14       1.0  0.5394095604819285  0.3452880518298755  0.9026867332510877  1.0000
  O   O15       1.0  0.5437865328053633  0.797910707888775  0.3096039118412932  1.0000
  O   O16       1.0  0.46059582193431237  0.6547154658601927  0.09731084732233336  1.0000
