data_image0
_chemical_formula_structural       CdH14C16N8O2
_chemical_formula_sum              "Cd1 H14 C16 N8 O2"
_cell_length_a       7.08450701750246
_cell_length_b       7.658958883728074
_cell_length_c       9.606613087724101
_cell_angle_alpha    72.31385488920778
_cell_angle_beta     70.90976537214458
_cell_angle_gamma    85.11275803391838

_space_group_name_H-M_alt    "P 1"
_space_group_IT_number       1

loop_
  _space_group_symop_operation_xyz
  'x, y, z'

loop_
  _atom_site_type_symbol
  _atom_site_label
  _atom_site_symmetry_multiplicity
  _atom_site_fract_x
  _atom_site_fract_y
  _atom_site_fract_z
  _atom_site_occupancy
  Cd  Cd1       1.0  0.9999986343830968  1.7905939415600735e-05  7.93215562604826e-07  1.0000
  H   H1        1.0  0.5253178149279023  0.9958946576427506  0.11266177441628854  1.0000
  H   H2        1.0  0.4746771460172711  0.004111494476624999  0.8873411240842654  1.0000
  H   H3        1.0  0.23381704455363211  0.862030684773032  0.3409188960088157  1.0000
  H   H4        1.0  0.7661835764217033  0.1379617074949806  0.6590808038061053  1.0000
  H   H5        1.0  0.919074957615166  0.8201215011450245  0.36267519329386017  1.0000
  H   H6        1.0  0.08092728537530293  0.1798763563254724  0.6373206958260693  1.0000
  H   H7        1.0  0.6470755307768599  0.6815762515539276  0.6035940882663053  1.0000
  H   H8        1.0  0.3529308159083727  0.3184051077350816  0.3963986064955021  1.0000
  H   H9        1.0  0.39563263876946314  0.4701145200891261  0.7379760473981491  1.0000
  H   H10       1.0  0.6043737057652621  0.5298668534766051  0.26201976725389625  1.0000
  H   H11       1.0  0.1434894764957733  0.5200457120502691  0.8321556254311274  1.0000
  H   H12       1.0  0.856516773461955  0.4799315450329331  0.16784017897335696  1.0000
  H   H13       1.0  0.3417942926638133  0.6724593288810965  0.8014325289244437  1.0000
  H   H14       1.0  0.6582105265832754  0.32752068168794307  0.19856398677990936  1.0000
  C   C1        1.0  0.5455344238891798  0.9243441505435115  0.22349762447908  1.0000
  C   C2        1.0  0.45446339847727313  0.07565649460417488  0.7765038514217507  1.0000
  C   C3        1.0  0.3832285917937242  0.8498984545518059  0.35086545719664014  1.0000
  C   C4        1.0  0.6167719656523972  0.15009119656712497  0.6491349290955096  1.0000
  C   C5        1.0  0.7645282982200783  0.827056417864739  0.36315014988015537  1.0000
  C   C6        1.0  0.23547235595354013  0.17293733545999854  0.636847126769318  1.0000
  C   C7        1.0  0.6117913452633346  0.748011351617336  0.4977465416979284  1.0000
  C   C8        1.0  0.3882119804607386  0.2519686665295636  0.5022503318201144  1.0000
  C   C9        1.0  0.4156881234880103  0.7567532115845523  0.4914051598629427  1.0000
  C   C10       1.0  0.5843152650484457  0.24322955247033212  0.508592067141272  1.0000
  C   C11       1.0  0.7926790295061751  0.710670103185791  0.8695531685472202  1.0000
  C   C12       1.0  0.2073196087044167  0.28936624352466833  0.13045394263733803  1.0000
  C   C13       1.0  0.7777514634675883  0.4110226021972139  0.8758033357923123  1.0000
  C   C14       1.0  0.22222489967298031  0.5890193357202944  0.12420672967966342  1.0000
  C   C15       1.0  0.2881815017843792  0.5801860557733605  0.7541038629427702  1.0000
  C   C16       1.0  0.7118247178424114  0.41978982121748487  0.24589020477350937  1.0000
  N   N1        1.0  0.7347977235563479  0.9124704759198181  0.22772590749941912  1.0000
  N   N2        1.0  0.2652031825836332  0.08753425627796219  0.7722717431313482  1.0000
  N   N3        1.0  0.8439333719569507  0.8389939498998513  0.8922495113634523  1.0000
  N   N4        1.0  0.15607093201848707  0.16102859888797375  0.10774608142816076  1.0000
  N   N5        1.0  0.8147500776601648  0.25347613928137497  0.9049454561100698  1.0000
  N   N6        1.0  0.18523175277240264  0.7465438296142536  0.09506658999821128  1.0000
  N   N7        1.0  0.7253041425454327  0.5804418697641365  0.8377061406129227  1.0000
  N   N8        1.0  0.27467781422874543  0.41958358618856545  0.16230557250430877  1.0000
  O   O1        1.0  0.25429932286717627  0.6801657605085156  0.6112475383479816  1.0000
  O   O2        1.0  0.7457084827091196  0.3198142396637351  0.3887493016924138  1.0000
