data_image0
_chemical_formula_structural       Zn4H16C20N24O4
_chemical_formula_sum              "Zn4 H16 C20 N24 O4"
_cell_length_a       8.692743336567325
_cell_length_b       8.692735011498655
_cell_length_c       10.404979951134655
_cell_angle_alpha    107.86546589480184
_cell_angle_beta     107.86556096695774
_cell_angle_gamma    91.86231188932449

_space_group_name_H-M_alt    "P 1"
_space_group_IT_number       1

loop_
  _space_group_symop_operation_xyz
  'x, y, z'

loop_
  _atom_site_type_symbol
  _atom_site_label
  _atom_site_symmetry_multiplicity
  _atom_site_fract_x
  _atom_site_fract_y
  _atom_site_fract_z
  _atom_site_occupancy
  Zn  Zn1       1.0  0.7148518218241264  0.9629634852426676  0.6208335448627339  1.0000
  Zn  Zn2       1.0  0.037035146613519004  0.28514681132604386  0.8791675929170284  1.0000
  Zn  Zn3       1.0  0.2851489743865585  0.037035416518619996  0.3791669662551699  1.0000
  Zn  Zn4       1.0  0.9629630489479908  0.7148508301154947  0.12083382909687404  1.0000
  H   H1        1.0  0.6434753691703391  0.034986013261246306  0.33992093772216253  1.0000
  H   H2        1.0  0.9650151563416357  0.3565238704489603  0.1600797382602296  1.0000
  H   H3        1.0  0.3565255877698021  0.9650141090693297  0.6600799352236495  1.0000
  H   H4        1.0  0.03498683986960321  0.6434750312261387  0.8399220483078341  1.0000
  H   H5        1.0  0.7140196060358974  0.9698635508807102  0.19319277101374885  1.0000
  H   H6        1.0  0.030136299897449696  0.28597978696797094  0.30680884705899564  1.0000
  H   H7        1.0  0.2859799702149246  0.0301353310053543  0.8068083764661086  1.0000
  H   H8        1.0  0.9698644763539263  0.7140190948318975  0.6931935758710142  1.0000
  H   H9        1.0  0.6664108854647139  0.5897739976369039  0.5144204224731583  1.0000
  H   H10       1.0  0.41022580443598144  0.3335866353950649  0.9855781006493135  1.0000
  H   H11       1.0  0.3335890421839949  0.4102273553298658  0.485578580944349  1.0000
  H   H12       1.0  0.5897748410249051  0.6664110557776439  0.01442109273462937  1.0000
  H   H13       1.0  0.7722532894809788  0.3524874649275489  0.38361318860672367  1.0000
  H   H14       1.0  0.6475101581184646  0.22774872763051232  0.11638713855811743  1.0000
  H   H15       1.0  0.22774992669011598  0.6475114566227802  0.6163879615993937  1.0000
  H   H16       1.0  0.3524899103003776  0.7722538259441266  0.883614138499404  1.0000
  C   C1        1.0  0.4223752309260576  0.7455963426112148  0.39542345543841867  1.0000
  C   C2        1.0  0.2544026038237774  0.5776243863720651  0.10457600961740356  1.0000
  C   C3        1.0  0.5776257260140839  0.25440377971936107  0.6045774175074003  1.0000
  C   C4        1.0  0.7455957724264975  0.4223744956001809  0.8954238624122869  1.0000
  C   C5        1.0  0.47877546443924507  0.597304436822043  0.32510002187803627  1.0000
  C   C6        1.0  0.4026932527845233  0.5212251614660276  0.17489761571549425  1.0000
  C   C7        1.0  0.5212251910012995  0.4026932643313756  0.6748982155998535  1.0000
  C   C8        1.0  0.5973054648839734  0.4787761816062215  0.8251010681579063  1.0000
  C   C9        1.0  0.6108777867249913  0.5337086840972278  0.39886410592286153  1.0000
  C   C10       1.0  0.46628757319746234  0.38912137445352374  0.1011329256035652  1.0000
  C   C11       1.0  0.3891240886754161  0.46628903693142126  0.6011334951930822  1.0000
  C   C12       1.0  0.5337097737613732  0.6108787381549164  0.8988650768978277  1.0000
  C   C13       1.0  0.6700381745200658  0.40086754107831274  0.32469440712858244  1.0000
  C   C14       1.0  0.5991324372026695  0.3299612732687436  0.17530382410048168  1.0000
  C   C15       1.0  0.32996297308849887  0.5991338317636875  0.6753039599269784  1.0000
  C   C16       1.0  0.4008685496764385  0.6700388790039683  0.824694181127164  1.0000
  C   C17       1.0  0.8120791587425062  0.8779513194062574  0.3546897912640716  1.0000
  C   C18       1.0  0.12204791068424471  0.18792006032222014  0.14531080585791056  1.0000
  C   C19       1.0  0.18792057823777245  0.12204878304908823  0.6453117180436935  1.0000
  C   C20       1.0  0.8779504755456813  0.8120788316307426  0.8546881102657341  1.0000
  N   N1        1.0  0.2950139801136515  0.7973544837111036  0.31869803257336576  1.0000
  N   N2        1.0  0.20264491388573452  0.7049853528003284  0.18130229744340917  1.0000
  N   N3        1.0  0.7049844061162817  0.2026444082418521  0.6813008835502787  1.0000
  N   N4        1.0  0.7973560430544069  0.2950147695302547  0.8186985755024028  1.0000
  N   N5        1.0  0.9159387583056073  0.784825938050517  0.3035791380104485  1.0000
  N   N6        1.0  0.2151719638278209  0.08405913911252581  0.19642091879750725  1.0000
  N   N7        1.0  0.0840608179452218  0.2151729438355403  0.6964220094694087  1.0000
  N   N8        1.0  0.7848274616732099  0.9159385321849529  0.803578910948389  1.0000
  N   N9        1.0  0.9977149622960014  0.7220734477051137  0.40650684105862944  1.0000
  N   N10       1.0  0.27792440628117987  0.002284001535883799  0.093493595400254  1.0000
  N   N11       1.0  0.002284623934478705  0.27792544416165305  0.5934933505151678  1.0000
  N   N12       1.0  0.722075169969642  0.9977148803501806  0.9065075520796032  1.0000
  N   N13       1.0  0.9484738082710181  0.7748240022677777  0.5150539373530311  1.0000
  N   N14       1.0  0.22517454904069467  0.0515249430957567  0.9849465784815339  1.0000
  N   N15       1.0  0.0515271386894653  0.22517611008208857  0.484947891498834  1.0000
  N   N16       1.0  0.7748234957710097  0.9484714877571959  0.015053525798400455  1.0000
  N   N17       1.0  0.8326460399781298  0.873911960699701  0.4875709077657505  1.0000
  N   N18       1.0  0.12608755194120388  0.16735366611703736  0.012430871294057493  1.0000
  N   N19       1.0  0.1673535362726923  0.12608692118635642  0.5124302397141065  1.0000
  N   N20       1.0  0.8739120342892761  0.8326452257497295  0.9875693202797396  1.0000
  N   N21       1.0  0.702740336219158  0.9551935566649875  0.28421201048060857  1.0000
  N   N22       1.0  0.04480795216540662  0.29725996043963937  0.2157893201392086  1.0000
  N   N23       1.0  0.29726062072097653  0.0448065656655885  0.7157888624652105  1.0000
  N   N24       1.0  0.9551952540260306  0.7027389511299802  0.7842127859729618  1.0000
  O   O1        1.0  0.4916907607078542  0.8349196289704109  0.529001428290954  1.0000
  O   O2        1.0  0.1650807135871659  0.5083097271006523  0.970998646888056  1.0000
  O   O3        1.0  0.5083091569611968  0.16508171401564917  0.47099853103261335  1.0000
  O   O4        1.0  0.8349200926031771  0.4916891846413449  0.029000908323794875  1.0000
