data_image0
_chemical_formula_structural       Zn2H32C46I4Br4N4O8
_chemical_formula_sum              "Zn2 H32 C46 I4 Br4 N4 O8"
_cell_length_a       10.258499539624674
_cell_length_b       11.365646597525323
_cell_length_c       12.787805873458867
_cell_angle_alpha    102.81700411203576
_cell_angle_beta     94.60956234990817
_cell_angle_gamma    96.4794403990849

_space_group_name_H-M_alt    "P 1"
_space_group_IT_number       1

loop_
  _space_group_symop_operation_xyz
  'x, y, z'

loop_
  _atom_site_type_symbol
  _atom_site_label
  _atom_site_symmetry_multiplicity
  _atom_site_fract_x
  _atom_site_fract_y
  _atom_site_fract_z
  _atom_site_occupancy
  Zn  Zn1       1.0  0.025580192441680097  0.1932826209082492  0.3258923549023578  1.0000
  Zn  Zn2       1.0  0.9744118815056453  0.8067321837047956  0.6741224130572901  1.0000
  H   H1        1.0  0.052612923848840885  0.18703968332840762  0.560209539570188  1.0000
  H   H2        1.0  0.9473740377947876  0.8129551076373006  0.4398024964864787  1.0000
  H   H3        1.0  0.18740680479094607  0.08865036515852147  0.6813050584739528  1.0000
  H   H4        1.0  0.812577165027129  0.9113253123737762  0.318695962022147  1.0000
  H   H5        1.0  0.3481125288162019  0.9021592628968447  0.3984123042825585  1.0000
  H   H6        1.0  0.6518931499552565  0.09786089527251818  0.6015864365206625  1.0000
  H   H7        1.0  0.20295972119762234  0.0046925901017971  0.2884250352480322  1.0000
  H   H8        1.0  0.7970462454428642  0.9953357623824531  0.7115847289749908  1.0000
  H   H9        1.0  0.28238904837854756  0.7861985020864565  0.8087283179238226  1.0000
  H   H10       1.0  0.717625802604111  0.21381153377048176  0.19126590007653016  1.0000
  H   H11       1.0  0.3074173807255889  0.6596454304309985  0.9466291148062566  1.0000
  H   H12       1.0  0.6925621352638842  0.3403512931260622  0.053354658901675095  1.0000
  H   H13       1.0  0.6638810414325675  0.7230926045468136  0.16388861849502226  1.0000
  H   H14       1.0  0.3361044532499164  0.2768803222647803  0.8361111769427579  1.0000
  H   H15       1.0  0.7606524730059973  0.8823456751604937  0.07433172049294967  1.0000
  H   H16       1.0  0.23934559072002057  0.1176325915014829  0.9256730904703261  1.0000
  H   H17       1.0  0.7361082025115876  0.006917308279554397  0.9404959453741879  1.0000
  H   H18       1.0  0.2639091603912787  0.9930717059201792  0.0595114857669897  1.0000
  H   H19       1.0  0.5968825381834009  0.06482770398105939  0.7953883567758026  1.0000
  H   H20       1.0  0.4031363868433147  0.9351713200111436  0.20462663111383964  1.0000
  H   H21       1.0  0.07775510968509988  0.46662993173749356  0.40797559826495433  1.0000
  H   H22       1.0  0.9222693062820326  0.5333854441000483  0.5920500244333552  1.0000
  H   H23       1.0  0.20143681654438683  0.6429243489850549  0.35413651262773266  1.0000
  H   H24       1.0  0.7985862334486882  0.35708194866245446  0.6458629825919573  1.0000
  H   H25       1.0  0.3686337016327741  0.3832254199865659  0.11963860007862336  1.0000
  H   H26       1.0  0.6313224111388606  0.6167469179179574  0.8803395850111569  1.0000
  H   H27       1.0  0.237436653805446  0.2176729397184332  0.1821989291301662  1.0000
  H   H28       1.0  0.7625285128918051  0.782307493817164  0.8177986598155298  1.0000
  H   H29       1.0  0.7047513196418435  0.46169265965209416  0.43194646516441537  1.0000
  H   H30       1.0  0.29524073023107883  0.5383093897134827  0.5680548309195145  1.0000
  H   H31       1.0  0.575372532435857  0.44195615211680916  0.32288824571851643  1.0000
  H   H32       1.0  0.4246198196389416  0.5580477244713222  0.6771079577094739  1.0000
  C   C1        1.0  0.11966042825837772  0.123290044894091  0.5284862068862138  1.0000
  C   C2        1.0  0.8803201482560893  0.8767075555171858  0.4715189243057906  1.0000
  C   C3        1.0  0.1952682722476311  0.0695343401734547  0.5950149291803939  1.0000
  C   C4        1.0  0.8047206818470158  0.9304604466098851  0.40498316192602596  1.0000
  C   C5        1.0  0.28087329582717047  0.990528381276185  0.5485405087406078  1.0000
  C   C6        1.0  0.7191236450755766  0.009473621651174803  0.4514579737721148  1.0000
  C   C7        1.0  0.28457186465988826  0.9653409709796107  0.43690076073825407  1.0000
  C   C8        1.0  0.7154228957620887  0.0346720001373413  0.5630981824519665  1.0000
  C   C9        1.0  0.20501413924805686  0.0218045463340317  0.37592035326257894  1.0000
  C   C10       1.0  0.7949957145545453  0.978217385934684  0.6240852705701839  1.0000
  C   C11       1.0  0.3723315785526893  0.9348120828035105  0.6141067982024493  1.0000
  C   C12       1.0  0.6276777923789254  0.0651943511898523  0.3858949469338881  1.0000
  C   C13       1.0  0.43536806097839087  0.924119997272399  0.7940924421666223  1.0000
  C   C14       1.0  0.5646478900843519  0.0758909312358611  0.205909063111001  1.0000
  C   C15       1.0  0.3825770451339636  0.8311669007485418  0.8369474303616398  1.0000
  C   C16       1.0  0.6174320795830752  0.16884410119834567  0.16305050980537317  1.0000
  C   C17       1.0  0.45800048801779514  0.799233132448279  0.9217918006680675  1.0000
  C   C18       1.0  0.5419972771332198  0.20076794643925672  0.07820968163999  1.0000
  C   C19       1.0  0.40600038173712966  0.7090346483559244  0.9737550922480054  1.0000
  C   C20       1.0  0.5939927705115337  0.2909555489449076  0.02623063909959457  1.0000
  C   C21       1.0  0.4804842517244267  0.6859818515247511  0.059331737291309104  1.0000
  C   C22       1.0  0.5195079130887521  0.3140083513777299  0.9406578398187903  1.0000
  C   C23       1.0  0.6089901851041047  0.7461947581401419  0.0963935495403163  1.0000
  C   C24       1.0  0.39100249296544115  0.25379268998948856  0.9036072467336708  1.0000
  C   C25       1.0  0.6619515633187659  0.8331632923932234  0.04607523152397163  1.0000
  C   C26       1.0  0.33805602421512043  0.16681307172211038  0.9539134113897132  1.0000
  C   C27       1.0  0.5881084023108301  0.863283318559546  0.9593360205903136  1.0000
  C   C28       1.0  0.4118993198427034  0.1366939525849347  0.04065593858157259  1.0000
  C   C29       1.0  0.6379887400648413  0.9573839087711775  0.9105284008892125  1.0000
  C   C30       1.0  0.3620340568396045  0.0425959432684806  0.08946584802182399  1.0000
  C   C31       1.0  0.5627466124674071  0.9882993801916058  0.829069169395886  1.0000
  C   C32       1.0  0.43727276256586817  0.011702383318002798  0.17093935202708366  1.0000
  C   C33       1.0  0.3566619696529613  0.6321867051785617  0.1938018959370423  1.0000
  C   C34       1.0  0.6433311299537222  0.36779072546577407  0.8061805253508749  1.0000
  C   C35       1.0  0.14400545427294276  0.45248762622069444  0.345078760621142  1.0000
  C   C36       1.0  0.8560100423882275  0.5475205610149202  0.6549307744794604  1.0000
  C   C37       1.0  0.21233234763778341  0.5499191392058834  0.3146074135071046  1.0000
  C   C38       1.0  0.7876703557403388  0.45008828490904307  0.6853854843171091  1.0000
  C   C39       1.0  0.2931482454909329  0.5264615783846979  0.23151998919937708  1.0000
  C   C40       1.0  0.7068365171403457  0.47352505492033  0.7684660462959556  1.0000
  C   C41       1.0  0.3062737860491822  0.4055718411998655  0.1841649439209547  1.0000
  C   C42       1.0  0.6936993620114861  0.5944094334888634  0.8158239554587183  1.0000
  C   C43       1.0  0.23410702629966806  0.31321237057323253  0.21908250592142758  1.0000
  C   C44       1.0  0.7658717056666191  0.6867734007215773  0.780913126074651  1.0000
  C   C45       1.0  0.6552544044990325  0.5049137696680362  0.3746478199554771  1.0000
  C   C46       1.0  0.34473360496239985  0.49508741262734196  0.6253499093571121  1.0000
  I   I1        1.0  0.8015914738864609  0.5485318548616719  0.2724650437611231  1.0000
  I   I2        1.0  0.19841464467216946  0.45146640074413824  0.7275379969210647  1.0000
  I   I3        1.0  0.5735828726325279  0.6577714984787947  0.4614831541318266  1.0000
  I   I4        1.0  0.42641352205126987  0.3422332460571483  0.5385158343893507  1.0000
  Br  Br1       1.0  0.8736928407406805  0.2907376658644835  0.4347563432136141  1.0000
  Br  Br2       1.0  0.12635913980381017  0.709359513080649  0.5652833696202605  1.0000
  Br  Br3       1.0  0.9730002532412525  0.058412149151948284  0.15450001115688383  1.0000
  Br  Br4       1.0  0.02697989772075  0.9416137323242427  0.8455067744158599  1.0000
  N   N1        1.0  0.12555159027779433  0.1008329977389977  0.4211818112516283  1.0000
  N   N2        1.0  0.8744456406914765  0.899177200380862  0.578826913002743  1.0000
  N   N3        1.0  0.15329415614019126  0.33607017585097754  0.2969708950168908  1.0000
  N   N4        1.0  0.8467083148783772  0.66392992938399  0.7030424360593484  1.0000
  O   O1        1.0  0.456133711062769  0.8739253004150528  0.5777012543739203  1.0000
  O   O2        1.0  0.5438903285633002  0.12608099250842744  0.4222936134051095  1.0000
  O   O3        1.0  0.3533736285892103  0.9648444639403307  0.719948923516817  1.0000
  O   O4        1.0  0.6466563179715834  0.035174533945983896  0.28005119344791746  1.0000
  O   O5        1.0  0.42755678918035767  0.5951033944784712  0.10950002584998228  1.0000
  O   O6        1.0  0.5724316253860022  0.40488139095263154  0.8904741558949849  1.0000
  O   O7        1.0  0.3432717809272034  0.7379903351224395  0.23152406796340583  1.0000
  O   O8        1.0  0.6567275856212119  0.2619897584261466  0.7684671145125107  1.0000
