data_image0
_chemical_formula_structural       U2H12Pb2C16O24
_chemical_formula_sum              "U2 H12 Pb2 C16 O24"
_cell_length_a       8.745959506175128
_cell_length_b       9.001829061623901
_cell_length_c       9.054881416537183
_cell_angle_alpha    105.7815946545439
_cell_angle_beta     108.86018862144415
_cell_angle_gamma    103.95674106684207

_space_group_name_H-M_alt    "P 1"
_space_group_IT_number       1

loop_
  _space_group_symop_operation_xyz
  'x, y, z'

loop_
  _atom_site_type_symbol
  _atom_site_label
  _atom_site_symmetry_multiplicity
  _atom_site_fract_x
  _atom_site_fract_y
  _atom_site_fract_z
  _atom_site_occupancy
  U   U1        1.0  0.1565743698801398  0.3653966705518669  0.25105126889489776  1.0000
  U   U2        1.0  0.8434178154898859  0.6345946137352668  0.748939009460031  1.0000
  H   H1        1.0  0.6452388803528281  0.2659116409663369  0.9939519241131121  1.0000
  H   H2        1.0  0.35476653731161895  0.7340958051004803  0.006045818566846653  1.0000
  H   H3        1.0  0.7578452644977389  0.2547103103718554  0.8874269790043172  1.0000
  H   H4        1.0  0.2421702575772288  0.745308311874247  0.112586932097436  1.0000
  H   H5        1.0  0.015704041946520402  0.08324089428391089  0.7612391074745232  1.0000
  H   H6        1.0  0.9842881010226844  0.9167503786921783  0.2387566763475916  1.0000
  H   H7        1.0  0.0735252895118848  0.1678137091233367  0.4972163514477756  1.0000
  H   H8        1.0  0.9264641743850106  0.8321800186773413  0.5027737208035031  1.0000
  H   H9        1.0  0.4273040015210938  0.38410831226581615  0.7863012620866525  1.0000
  H   H10       1.0  0.5726833262096206  0.6158829263584094  0.21368856362175837  1.0000
  H   H11       1.0  0.31086426984257537  0.39667392727543654  0.9808342863127277  1.0000
  H   H12       1.0  0.6891168525949636  0.6033135583764063  0.019150344666890397  1.0000
  Pb  Pb1       1.0  0.4491931957515334  0.9254745984489928  0.7276362664062004  1.0000
  Pb  Pb2       1.0  0.5508721837482184  0.07452955567249117  0.27244371107553167  1.0000
  C   C1        1.0  0.15648032933376746  0.13939550037959944  0.8028060086485664  1.0000
  C   C2        1.0  0.8435088546299025  0.8606006971593911  0.19718243218215978  1.0000
  C   C3        1.0  0.20685380241420856  0.1892014296467862  0.5822516806717033  1.0000
  C   C4        1.0  0.7931368483319828  0.810792302217436  0.41774208329487544  1.0000
  C   C5        1.0  0.2879618156781376  0.36061038652358224  0.7259126956818704  1.0000
  C   C6        1.0  0.712026978835091  0.6393783864258821  0.2740824531623856  1.0000
  C   C7        1.0  0.21132462072252883  0.3306637421296301  0.8507471524720457  1.0000
  C   C8        1.0  0.7886653263129803  0.6693312304897104  0.14924009609957517  1.0000
  C   C9        1.0  0.2435681949366213  0.1029192360868052  0.9556628877453262  1.0000
  C   C10       1.0  0.7564342810889855  0.8970869344121724  0.04434130611806351  1.0000
  C   C11       1.0  0.306204885311729  0.1545171747968865  0.47500552934540247  1.0000
  C   C12       1.0  0.6938160973947375  0.8454867000274361  0.5250006169961664  1.0000
  C   C13       1.0  0.28350462527303927  0.514667109261154  0.6867645174082069  1.0000
  C   C14       1.0  0.7164829311035561  0.48532785070667456  0.31321754991968476  1.0000
  C   C15       1.0  0.053685976894804775  0.3737901381049723  0.8504714600043142  1.0000
  C   C16       1.0  0.9463070553052332  0.6262134690676714  0.14953456108003127  1.0000
  O   O1        1.0  0.3443009216205724  0.5082297643413795  0.25551027502905294  1.0000
  O   O2        1.0  0.655699385043107  0.49176404301319804  0.7444921018846101  1.0000
  O   O3        1.0  0.9682240972647732  0.21746066552286433  0.24094222882914082  1.0000
  O   O4        1.0  0.03176026370515218  0.7825256304829366  0.7590353802007143  1.0000
  O   O5        1.0  0.1927858648000722  0.14133717439835178  0.07236670520397576  1.0000
  O   O6        1.0  0.8071997077347316  0.8586589973767356  0.9276172670414763  1.0000
  O   O7        1.0  0.36335064739748896  0.04572765771890629  0.9663170302023328  1.0000
  O   O8        1.0  0.6366585676223409  0.9542871844083151  0.0337048992918696  1.0000
  O   O9        1.0  0.3421235732554564  0.2591286088477886  0.407971628131122  1.0000
  O   O10       1.0  0.657858905316104  0.7408625863757407  0.5920166438373399  1.0000
  O   O11       1.0  0.3465616667780083  0.0280137666638893  0.4530766731432862  1.0000
  O   O12       1.0  0.6534959701358215  0.9720274258660166  0.5469655556974542  1.0000
  O   O13       1.0  0.22720745202864373  0.5046751204447232  0.5335970322855629  1.0000
  O   O14       1.0  0.7727877255426562  0.4953211132474634  0.4664021594676056  1.0000
  O   O15       1.0  0.34885652627128383  0.6514724165960358  0.8098669939153067  1.0000
  O   O16       1.0  0.6511384561684324  0.34852630945654534  0.19011955548293707  1.0000
  O   O17       1.0  0.9958351584307437  0.338145226484272  0.9546453742659506  1.0000
  O   O18       1.0  0.004153296381751654  0.6618522050232014  0.04533985445013393  1.0000
  O   O19       1.0  0.9856801506785899  0.43496022211801477  0.7481652212789027  1.0000
  O   O20       1.0  0.014312152370273175  0.565044619023112  0.2518375876908009  1.0000
  O   O21       1.0  0.2027351781758711  0.0755240768585068  0.6680554048441252  1.0000
  O   O22       1.0  0.7972574309716123  0.9244684364118282  0.33193975748520177  1.0000
  O   O23       1.0  0.6377989577459431  0.21760649795611897  0.8777324409894688  1.0000
  O   O24       1.0  0.3622201934431429  0.782402289659181  0.12227776173007487  1.0000
