data_image0
_chemical_formula_structural       Ag2P2H32C40S2N2O6
_chemical_formula_sum              "Ag2 P2 H32 C40 S2 N2 O6"
_cell_length_a       8.505223823495674
_cell_length_b       11.273157240957426
_cell_length_c       11.523332530257955
_cell_angle_alpha    90.7296584801056
_cell_angle_beta     106.58960478816893
_cell_angle_gamma    103.59361572347282

_space_group_name_H-M_alt    "P 1"
_space_group_IT_number       1

loop_
  _space_group_symop_operation_xyz
  'x, y, z'

loop_
  _atom_site_type_symbol
  _atom_site_label
  _atom_site_symmetry_multiplicity
  _atom_site_fract_x
  _atom_site_fract_y
  _atom_site_fract_z
  _atom_site_occupancy
  Ag  Ag1       1.0  0.687789752694961  0.48678938023100216  0.7365449725419423  1.0000
  Ag  Ag2       1.0  0.3122189443050019  0.5132137063376305  0.26345560001878  1.0000
  P   P1        1.0  0.8133229317696117  0.6065636689670695  0.9209778716623871  1.0000
  P   P2        1.0  0.1866839118225556  0.3934448988387445  0.07902066632029657  1.0000
  H   H1        1.0  0.8509050245023816  0.0412204052213738  0.5743100712390756  1.0000
  H   H2        1.0  0.14909538390997304  0.9587762129450254  0.4256903496418899  1.0000
  H   H3        1.0  0.7217567032450561  0.9035818484163868  0.38099802581728426  1.0000
  H   H4        1.0  0.27824989094290226  0.09641851229282142  0.6189977094827981  1.0000
  H   H5        1.0  0.49047895991270707  0.9494620307991749  0.21577781707146215  1.0000
  H   H6        1.0  0.5095211750044228  0.05053369611146509  0.7842190581574043  1.0000
  H   H7        1.0  0.3731334661131172  0.12867192533030902  0.24262214688641845  1.0000
  H   H8        1.0  0.6268540237575805  0.871315425238954  0.7573805538521156  1.0000
  H   H9        1.0  0.878026320765329  0.7273661521824265  0.7124661920459586  1.0000
  H   H10       1.0  0.12197743369009119  0.27264054743685756  0.2875342556678291  1.0000
  H   H11       1.0  0.06490399968291163  0.9245071495747296  0.6906841993792056  1.0000
  H   H12       1.0  0.9350945620314448  0.07549862317368648  0.30931165014229106  1.0000
  H   H13       1.0  0.2475757441658999  0.06312102860441367  0.8748017446739382  1.0000
  H   H14       1.0  0.7524212617269015  0.9368838007960888  0.12519635889112377  1.0000
  H   H15       1.0  0.24101940955663542  0.0013712016499524999  0.07970744660752868  1.0000
  H   H16       1.0  0.7589852629120841  0.998638251943589  0.9202923785198108  1.0000
  H   H17       1.0  0.056565000706271525  0.8046777307293809  0.10378846706510807  1.0000
  H   H18       1.0  0.9434380934345158  0.19533076100694294  0.8962162104618158  1.0000
  H   H19       1.0  0.49350961310984337  0.6656218818762908  0.8278750514351996  1.0000
  H   H20       1.0  0.5064870967813632  0.33438203775915537  0.17212210483378235  1.0000
  H   H21       1.0  0.30702700384914294  0.7434176354684895  0.9254346674742278  1.0000
  H   H22       1.0  0.692971210141067  0.2565835171514053  0.07456796824465774  1.0000
  H   H23       1.0  0.37077427763381365  0.755815640606272  0.15034765365058428  1.0000
  H   H24       1.0  0.6292279375889505  0.2441827936544883  0.8496566571949413  1.0000
  H   H25       1.0  0.6326361193787093  0.703686146785081  0.27915706913297095  1.0000
  H   H26       1.0  0.36736679366931213  0.29631052620748477  0.7208386813060556  1.0000
  H   H27       1.0  0.8289284651796931  0.6413401158921771  0.1837692164460875  1.0000
  H   H28       1.0  0.17107504658132913  0.3586620499753579  0.8162258918036754  1.0000
  H   H29       1.0  0.024822941852654865  0.5897042002658566  0.11092764353129066  1.0000
  H   H30       1.0  0.9751774424686841  0.4102997337413824  0.8890720343801772  1.0000
  H   H31       1.0  0.8585765085073049  0.45429138504835  0.060128156190870564  1.0000
  H   H32       1.0  0.14142327551639503  0.5457143904340781  0.9398688225843513  1.0000
  C   C1        1.0  0.7418441555692183  0.25457024378988535  0.6209710667427613  1.0000
  C   C2        1.0  0.25814980028211215  0.7454254139227885  0.3790279572855582  1.0000
  C   C3        1.0  0.686303989970895  0.1614971103885594  0.514047902612148  1.0000
  C   C4        1.0  0.31368622472349744  0.8384948102493228  0.4859580655044979  1.0000
  C   C5        1.0  0.7488257115432547  0.060191536508831696  0.5008298391647727  1.0000
  C   C6        1.0  0.25116823759827156  0.9398004478589994  0.49917172164497703  1.0000
  C   C7        1.0  0.6761188860959136  0.984204504843262  0.3925695220377604  1.0000
  C   C8        1.0  0.32387815218234556  0.0157893477110846  0.6074301290408854  1.0000
  C   C9        1.0  0.5439042774805073  0.009407772451524497  0.2996498830583505  1.0000
  C   C10       1.0  0.4560881533500805  0.9905832994172384  0.7003496012015943  1.0000
  C   C11       1.0  0.4786273628505454  0.10991313983788586  0.3131619074757949  1.0000
  C   C12       1.0  0.5213653414752741  0.8900788232866289  0.6868411224362487  1.0000
  C   C13       1.0  0.5528671859556767  0.18393774647270078  0.4212805459817162  1.0000
  C   C14       1.0  0.4471193626030328  0.8160504987880728  0.5787237050365235  1.0000
  C   C15       1.0  0.9555701599233898  0.7517695951734992  0.9093467093259022  1.0000
  C   C16       1.0  0.044435454649637114  0.24823529655346022  0.0906532361844938  1.0000
  C   C17       1.0  0.9583611899389338  0.7868902462396078  0.793459755136503  1.0000
  C   C18       1.0  0.04164656495672149  0.21311740219561406  0.2065406970411701  1.0000
  C   C19       1.0  0.06298334637274654  0.898699133716825  0.7811307884836008  1.0000
  C   C20       1.0  0.9370201345874563  0.10130667464670748  0.2188661135780875  1.0000
  C   C21       1.0  0.16598930972001816  0.9755983623223372  0.8840310470295946  1.0000
  C   C22       1.0  0.8340172011522498  0.024405597694489196  0.11597254491313434  1.0000
  C   C23       1.0  0.16297155545893094  0.9405220670558163  0.9994372594647203  1.0000
  C   C24       1.0  0.8370356157279771  0.059480100843970284  0.0005621026648796979  1.0000
  C   C25       1.0  0.05800517416878393  0.829625648002775  0.012898411951333311  1.0000
  C   C26       1.0  0.9420004486986854  0.17037558271887576  0.9871023381031492  1.0000
  C   C27       1.0  0.6745819402227227  0.6500987803452246  0.9988767419187852  1.0000
  C   C28       1.0  0.32541447366688186  0.3499042295251583  0.0011194670541029754  1.0000
  C   C29       1.0  0.5261993865841958  0.6776892544678503  0.9268070240543053  1.0000
  C   C30       1.0  0.4737963902894648  0.3223118988537975  0.07319248703846878  1.0000
  C   C31       1.0  0.4196780188796723  0.718657064774085  0.9814622004262645  1.0000
  C   C32       1.0  0.5803223429352898  0.2813468507238497  0.018540075841222872  1.0000
  C   C33       1.0  0.4570069521069727  0.7272791676812602  0.10808287911138587  1.0000
  C   C34       1.0  0.5429943518123038  0.27272018595008507  0.8919195175391579  1.0000
  C   C35       1.0  0.6031294165141502  0.6975965947090046  0.1802413490473569  1.0000
  C   C36       1.0  0.39687684336927015  0.3024064925613743  0.8197560988872539  1.0000
  C   C37       1.0  0.7131662358257316  0.6605146286882755  0.1260389963551205  1.0000
  C   C38       1.0  0.28683849824462726  0.33948753991326436  0.8739572411483605  1.0000
  C   C39       1.0  0.9459497910611033  0.5270984137732239  0.03042124795443607  1.0000
  C   C40       1.0  0.054053363889003905  0.47290646014617005  0.9695781712858673  1.0000
  S   S1        1.0  0.502086423982739  0.3161336280757609  0.4697782285473265  1.0000
  S   S2        1.0  0.4979075251587871  0.6838583562920701  0.5302233322624232  1.0000
  N   N1        1.0  0.6470008136815153  0.3397831877735483  0.602714894474694  1.0000
  N   N2        1.0  0.3529921708493262  0.6602133399515608  0.39728914430802575  1.0000
  O   O1        1.0  0.5392631778459318  0.4144343400433356  0.39294243754662966  1.0000
  O   O2        1.0  0.4607338912331543  0.5855558700150141  0.6070554197200835  1.0000
  O   O3        1.0  0.3327749003190092  0.28752251858362843  0.48307039999749424  1.0000
  O   O4        1.0  0.6672214776446167  0.7124731260877581  0.5169334808942877  1.0000
  O   O5        1.0  0.8582402827153502  0.2539826176704807  0.7147500256958208  1.0000
  O   O6        1.0  0.1417613405042175  0.7460139970601602  0.2852523905575453  1.0000
