data_image0
_chemical_formula_structural       Cu2H16C18N4Cl4
_chemical_formula_sum              "Cu2 H16 C18 N4 Cl4"
_cell_length_a       6.213292933313374
_cell_length_b       8.402772284817978
_cell_length_c       10.01135645947017
_cell_angle_alpha    81.07884971843355
_cell_angle_beta     75.24830157416676
_cell_angle_gamma    86.77433056191549

_space_group_name_H-M_alt    "P 1"
_space_group_IT_number       1

loop_
  _space_group_symop_operation_xyz
  'x, y, z'

loop_
  _atom_site_type_symbol
  _atom_site_label
  _atom_site_symmetry_multiplicity
  _atom_site_fract_x
  _atom_site_fract_y
  _atom_site_fract_z
  _atom_site_occupancy
  Cu  Cu1       1.0  0.2739710765171353  0.06591416221542092  0.4342521262700033  1.0000
  Cu  Cu2       1.0  0.7260295728245723  0.9340983053302238  0.5657452787906437  1.0000
  H   H1        1.0  0.06825024314035491  0.9422828963843128  0.20979676901077943  1.0000
  H   H2        1.0  0.9317539573214404  0.05772232028434838  0.790204972637838  1.0000
  H   H3        1.0  0.2120369656329402  0.0638986698233452  0.9265963132372762  1.0000
  H   H4        1.0  0.7879658333567009  0.9360945213075736  0.07340317687614119  1.0000
  H   H5        1.0  0.48365131763377894  0.3119467293869106  0.9237299537978388  1.0000
  H   H6        1.0  0.5163429576466854  0.6880525111978739  0.0762651561946583  1.0000
  H   H7        1.0  0.8337083448214813  0.28283569066652353  0.05806498082070278  1.0000
  H   H8        1.0  0.16628084657020284  0.7171659747628423  0.9419276482344402  1.0000
  H   H9        1.0  0.0454770903941508  0.47537519112855614  0.13778524787024085  1.0000
  H   H10       1.0  0.9545207360064014  0.5246167985792523  0.862214198710234  1.0000
  H   H11       1.0  0.8491124249080785  0.6441234515693421  0.3184287406422116  1.0000
  H   H12       1.0  0.15088695445313496  0.35587216523534687  0.6815679994234287  1.0000
  H   H13       1.0  0.4386836829347942  0.626164872529003  0.410832051777021  1.0000
  H   H14       1.0  0.5613241899939823  0.3738282739517017  0.5891746150003742  1.0000
  H   H15       1.0  0.22640588629825234  0.4306231001663149  0.3338439608617777  1.0000
  H   H16       1.0  0.7735952689156704  0.5693724526531129  0.6661634880869016  1.0000
  C   C1        1.0  0.1769781821932881  0.041711551153888096  0.15740869592568174  1.0000
  C   C2        1.0  0.8230178789870948  0.958286432402332  0.842595274086243  1.0000
  C   C3        1.0  0.2504252132413214  0.10439653835266677  0.015352837794267823  1.0000
  C   C4        1.0  0.7495790983250573  0.8956026777461684  0.9846456475327301  1.0000
  C   C5        1.0  0.3915273675981155  0.22847923668872028  0.010300438015974621  1.0000
  C   C6        1.0  0.6084685114643661  0.7715247886828962  0.9896998023217308  1.0000
  C   C7        1.0  0.5185170510453432  0.3475965641543866  0.19046815598552772  1.0000
  C   C8        1.0  0.48147552983316183  0.6524062547310975  0.8095327697082269  1.0000
  C   C9        1.0  0.7480055992608712  0.359570972623807  0.13417684058005364  1.0000
  C   C10       1.0  0.25199215641903566  0.6404246197827915  0.8658241605936328  1.0000
  C   C11       1.0  0.8661705086811298  0.46681015160900324  0.1805410524879676  1.0000
  C   C12       1.0  0.13382887068007682  0.533185465195686  0.8194556875776728  1.0000
  C   C13       1.0  0.7564741403325357  0.5614379815072182  0.2810391126366412  1.0000
  C   C14       1.0  0.2435337021619617  0.4385551826501626  0.7189645601425383  1.0000
  C   C15       1.0  0.5263089085771356  0.5498547587554016  0.33495013880018826  1.0000
  C   C16       1.0  0.47369736066718093  0.45013479008954954  0.6650542444950035  1.0000
  C   C17       1.0  0.40559791623697816  0.4420059702177069  0.2908933840212242  1.0000
  C   C18       1.0  0.5944081406502734  0.5579920124214581  0.709109969327571  1.0000
  N   N1        1.0  0.2657955244996799  0.1232396468900561  0.23474965376251333  1.0000
  N   N2        1.0  0.7341969350319318  0.8767679913064084  0.765250683390441  1.0000
  N   N3        1.0  0.3978195606812419  0.23720313314958466  0.14367271092097414  1.0000
  N   N4        1.0  0.6021844574675369  0.7628057510323315  0.8563196073274  1.0000
  Cl  Cl1       1.0  0.37014228989220754  0.0436630482908598  0.6424988927112025  1.0000
  Cl  Cl2       1.0  0.6298535890727166  0.9563397899296786  0.3574985007634909  1.0000
  Cl  Cl3       1.0  0.950742014515548  0.20392963320630028  0.5189248525586976  1.0000
  Cl  Cl4       1.0  0.0492552556792134  0.7960840492931494  0.4810709475887763  1.0000
