data_image0
_chemical_formula_structural       Mo4H36C28N12O12
_chemical_formula_sum              "Mo4 H36 C28 N12 O12"
_cell_length_a       10.589870913040428
_cell_length_b       10.589881359316271
_cell_length_c       10.745248264044974
_cell_angle_alpha    109.77067701548746
_cell_angle_beta     109.77059650068908
_cell_angle_gamma    108.27439033750238

_space_group_name_H-M_alt    "P 1"
_space_group_IT_number       1

loop_
  _space_group_symop_operation_xyz
  'x, y, z'

loop_
  _atom_site_type_symbol
  _atom_site_label
  _atom_site_symmetry_multiplicity
  _atom_site_fract_x
  _atom_site_fract_y
  _atom_site_fract_z
  _atom_site_occupancy
  Mo  Mo1       1.0  0.5207462541360571  0.5207474649940452  0.33669996731914864  1.0000
  Mo  Mo2       1.0  0.8159531699771918  0.8159547310428438  0.3367032268585461  1.0000
  Mo  Mo3       1.0  0.47925216910127943  0.47925186510853734  0.6632974872254636  1.0000
  Mo  Mo4       1.0  0.1840479027199606  0.18404802576151982  0.6632999853536532  1.0000
  H   H1        1.0  0.5371260239326716  0.794199137740641  0.6738510755683365  1.0000
  H   H2        1.0  0.13672351588576964  0.8796529360705635  0.673852694778745  1.0000
  H   H3        1.0  0.20580097567155065  0.4628736956290355  0.32615007762520787  1.0000
  H   H4        1.0  0.12034727293936251  0.8632761246750321  0.3261479305484728  1.0000
  H   H5        1.0  0.4628729455946186  0.2058013320005189  0.3261488049377306  1.0000
  H   H6        1.0  0.8632753520204375  0.1203452425519203  0.3261463843330573  1.0000
  H   H7        1.0  0.794200554781895  0.5371279227802574  0.6738510453239073  1.0000
  H   H8        1.0  0.8796521412567986  0.13672319358603602  0.6738535745247844  1.0000
  H   H9        1.0  0.5437202153390784  0.9660443897111435  0.8572725455906535  1.0000
  H   H10       1.0  0.31355225419495275  0.8912298208976425  0.8572746658642814  1.0000
  H   H11       1.0  0.03395689008855375  0.4562804307291585  0.142728513025844  1.0000
  H   H12       1.0  0.10876943939670985  0.6864472605633551  0.14272453382321257  1.0000
  H   H13       1.0  0.45628031433997057  0.03395723072589621  0.14272731220253124  1.0000
  H   H14       1.0  0.6864467153323375  0.10877064884352453  0.14272521464178567  1.0000
  H   H15       1.0  0.9660440842593659  0.5437200382277825  0.8572729693345308  1.0000
  H   H16       1.0  0.8912299846150092  0.3135520675114806  0.8572741858773298  1.0000
  H   H17       1.0  0.4894746578378957  0.05934932509835283  0.7548909428278634  1.0000
  H   H18       1.0  0.2654171301108548  0.6955417576282628  0.7548916442715237  1.0000
  H   H19       1.0  0.9406505969178767  0.510526465250614  0.2451091238563665  1.0000
  H   H20       1.0  0.3044585695985377  0.7345833985068994  0.24510813169391102  1.0000
  H   H21       1.0  0.5105263197818815  0.9406511471298417  0.24510961107493753  1.0000
  H   H22       1.0  0.7345828467345328  0.3044587166276713  0.24510764447533973  1.0000
  H   H23       1.0  0.059349376655660514  0.489474005734067  0.7548910933480711  1.0000
  H   H24       1.0  0.6955424112930899  0.26541707699255573  0.7548914937513158  1.0000
  H   H25       1.0  0.4906179720121885  0.1644120295585125  0.9999988191520544  1.0000
  H   H26       1.0  0.5093830088794392  0.8355884459409425  8.062931799386846e-07  1.0000
  H   H27       1.0  0.8355876759484817  0.5093819160373343  0.9999999859458198  1.0000
  H   H28       1.0  0.16441285850157072  0.4906176861379096  0.9999992677379197  1.0000
  H   H29       1.0  0.5600635083068184  0.3394347552057297  0.8994986150731988  1.0000
  H   H30       1.0  0.3394369685729117  0.5600647628747241  0.899499956958813  1.0000
  H   H31       1.0  0.6605645651523772  0.4399368588058366  0.10050023753273508  1.0000
  H   H32       1.0  0.4399374758566665  0.6605657235649858  0.10050008191446123  1.0000
  H   H33       1.0  0.8212486216947141  0.034491539580308504  1.9062387931256115e-07  1.0000
  H   H34       1.0  0.17875235592506306  0.9655089326478857  3.632789143773389e-07  1.0000
  H   H35       1.0  0.965509112227025  0.1787520743962858  0.9999997561643921  1.0000
  H   H36       1.0  0.03449097101044181  0.8212486727165359  0.999999729867298  1.0000
  C   C1        1.0  0.6092909595739329  0.8532303051764032  0.6380997920153604  1.0000
  C   C2        1.0  0.028810712119330603  0.784870934493384  0.6381018908495975  1.0000
  C   C3        1.0  0.14677001478590065  0.39070849592636153  0.3619013311780535  1.0000
  C   C4        1.0  0.21513112545325458  0.9711921680079673  0.36189951951201516  1.0000
  C   C5        1.0  0.390708006681507  0.14677016129349602  0.3619010169482735  1.0000
  C   C6        1.0  0.9711912695466867  0.21512953897833142  0.36189899975156686  1.0000
  C   C7        1.0  0.853229850622846  0.6092896773971291  0.638099941547253  1.0000
  C   C8        1.0  0.7848698488946654  0.028808300948973912  0.63810196284836  1.0000
  C   C9        1.0  0.7316512152067816  0.12544222680111972  0.8570935455371681  1.0000
  C   C10       1.0  0.12544251694238553  0.7316510371232072  0.8570931480405193  1.0000
  C   C11       1.0  0.874557456631152  0.26834943386147364  0.1429070691639113  1.0000
  C   C12       1.0  0.268348205533087  0.8745570980024624  0.14290610262094827  1.0000
  C   C13       1.0  0.5792927628963865  0.07561697844077742  0.8575431076912139  1.0000
  C   C14       1.0  0.27825016693252286  0.7819272055526555  0.8575453283349503  1.0000
  C   C15       1.0  0.9243834521067386  0.42070594108961507  0.14245625895672737  1.0000
  C   C16       1.0  0.2180730123777651  0.721749670705208  0.14245517037966243  1.0000
  C   C17       1.0  0.4207066578434891  0.924382346362805  0.1424565404669027  1.0000
  C   C18       1.0  0.7217498066410144  0.21807326543202527  0.1424548888694872  1.0000
  C   C19       1.0  0.07561697595123465  0.5792933882287415  0.8575427974421856  1.0000
  C   C20       1.0  0.7819264050902531  0.2782496508271137  0.8575454062360278  1.0000
  C   C21       1.0  0.5996722722763009  0.19943851308175917  1.1241330497903314e-06  1.0000
  C   C22       1.0  0.40032825413089773  0.8005631040840201  0.9999996621177019  1.0000
  C   C23       1.0  0.800561648852721  0.4003274958484441  0.9999985935301864  1.0000
  C   C24       1.0  0.19943932876705625  0.5996729763797576  1.9603726146345842e-06  1.0000
  C   C25       1.0  0.6484272440200556  0.3515729489443303  4.0762598278658e-07  1.0000
  C   C26       1.0  0.3515736272076353  0.6484272504269839  0.9999999489919915  1.0000
  C   C27       1.0  0.8559618130330476  0.14403720591531063  0.999999915004622  1.0000
  C   C28       1.0  0.14403771409890714  0.855962391745159  0.9999999304383209  1.0000
  N   N1        1.0  0.6206885288849051  0.7860865478358721  0.5172175290498232  1.0000
  N   N2        1.0  0.8965282494725174  0.7311301692352999  0.5172189868543599  1.0000
  N   N3        1.0  0.2139113181545157  0.3793100534360577  0.4827814849286725  1.0000
  N   N4        1.0  0.2688691880878978  0.10347073167531562  0.48278038973869286  1.0000
  N   N5        1.0  0.37931034229315247  0.21391163405787242  0.4827806216044125  1.0000
  N   N6        1.0  0.10346961438744985  0.2688680081436632  0.482779755559072  1.0000
  N   N7        1.0  0.7860871018109706  0.6206892733952645  0.5172168980735066  1.0000
  N   N8        1.0  0.7311306805926988  0.8965274449194284  0.5172199545290397  1.0000
  N   N9        1.0  0.7104701038484507  0.006580407625790502  0.7170537012824028  1.0000
  N   N10       1.0  0.006583039883480614  0.7104718715888158  0.7170548197943134  1.0000
  N   N11       1.0  0.9934163808563953  0.2895274532147667  0.2829448283638031  1.0000
  N   N12       1.0  0.2895282112240949  0.9934166248155947  0.28294480878308553  1.0000
  O   O1        1.0  0.6361217370515818  0.6361220260690603  0.2722446992852597  1.0000
  O   O2        1.0  0.3638782365219556  0.3638784449156206  0.7277555179191708  1.0000
  O   O3        1.0  0.4999981567618833  0.4999985182484323  0.49999798987680316  1.0000
  O   O4        1.0  3.2143324090000574e-07  7.013408521001668e-07  0.5000027043094946  1.0000
  O   O5        1.0  0.34423086044522944  0.5050893069678893  0.2385561361742604  1.0000
  O   O6        1.0  0.8943269349432372  0.7334678810517518  0.23855948279786798  1.0000
  O   O7        1.0  0.49491059625415107  0.6557698901590288  0.7614414906866358  1.0000
  O   O8        1.0  0.26653467253611046  0.10567616191118392  0.7614442077818993  1.0000
  O   O9        1.0  0.655770126990106  0.4949111750740797  0.761441632355833  1.0000
  O   O10       1.0  0.10567614911825271  0.26653488151090704  0.7614434743534986  1.0000
  O   O11       1.0  0.5050888343012758  0.3442294444583285  0.23855537209877306  1.0000
  O   O12       1.0  0.7334694122997689  0.8943265986237281  0.23856001452540462  1.0000
