data_image0
_chemical_formula_structural       Ba2H60C36N24O28
_chemical_formula_sum              "Ba2 H60 C36 N24 O28"
_cell_length_a       7.430751914829001
_cell_length_b       7.702979872390446
_cell_length_c       28.305592169617913
_cell_angle_alpha    86.14401791945077
_cell_angle_beta     82.5315811641423
_cell_angle_gamma    61.162674367438655

_space_group_name_H-M_alt    "P 1"
_space_group_IT_number       1

loop_
  _space_group_symop_operation_xyz
  'x, y, z'

loop_
  _atom_site_type_symbol
  _atom_site_label
  _atom_site_symmetry_multiplicity
  _atom_site_fract_x
  _atom_site_fract_y
  _atom_site_fract_z
  _atom_site_occupancy
  Ba  Ba1       1.0  0.556712513602683  0.24996217478133795  0.7499742380663433  1.0000
  Ba  Ba2       1.0  0.4432893966315918  0.750036205842683  0.250024559629665  1.0000
  H   H1        1.0  0.25958367640431856  0.12956045205262973  0.8677665882163906  1.0000
  H   H2        1.0  0.7424037101318673  0.629597433238068  0.36775343915842024  1.0000
  H   H3        1.0  0.7404124352471015  0.870442374556504  0.13223170907613013  1.0000
  H   H4        1.0  0.25759583007725  0.370400947385953  0.6322463708337978  1.0000
  H   H5        1.0  0.9125079427987688  0.05769703075063861  0.8882324132411409  1.0000
  H   H6        1.0  0.14066710950896066  0.5579829871021644  0.3884148799255271  1.0000
  H   H7        1.0  0.08748915993106719  0.9423043138634597  0.11176699263508277  1.0000
  H   H8        1.0  0.8593284316866133  0.442018357511934  0.6115833720270485  1.0000
  H   H9        1.0  0.03648955249566683  0.07902590331210751  0.8321406450228535  1.0000
  H   H10       1.0  0.051453269140168345  0.5788628151676535  0.3322730331670768  1.0000
  H   H11       1.0  0.9635034490666355  0.9209784052920613  0.16785866269668046  1.0000
  H   H12       1.0  0.9485421361743608  0.4211400114414802  0.6677259704623422  1.0000
  H   H13       1.0  0.8511586252617397  0.5262801492870537  0.889150228348832  1.0000
  H   H14       1.0  0.7331776774779186  0.026512891198216  0.3892608931517572  1.0000
  H   H15       1.0  0.148838090572589  0.4737226773220727  0.11084882248974277  1.0000
  H   H16       1.0  0.2668248032122024  0.9734869714208474  0.6107379498841963  1.0000
  H   H17       1.0  0.5060319432146658  0.7877500155247505  0.8942784959004866  1.0000
  H   H18       1.0  0.811911496078892  0.2878434499025034  0.394372761845382  1.0000
  H   H19       1.0  0.49396665359531533  0.2122542930794182  0.10572064748717479  1.0000
  H   H20       1.0  0.18809006098693712  0.7121549307215249  0.6056263890190792  1.0000
  H   H21       1.0  0.4517895507929453  0.6718535577061929  0.8497083008524624  1.0000
  H   H22       1.0  0.02657121374209494  0.1715112855432892  0.3499027968650167  1.0000
  H   H23       1.0  0.5482051481846784  0.32814926890294066  0.1502914091138621  1.0000
  H   H24       1.0  0.9734329643633405  0.8284870950807319  0.6500964484177343  1.0000
  H   H25       1.0  0.4033806395114684  0.2681536638511091  0.8916993035945706  1.0000
  H   H26       1.0  0.4361446870512964  0.7680305895726323  0.3915789835403913  1.0000
  H   H27       1.0  0.5966199264759382  0.7318461987679541  0.10829873868618727  1.0000
  H   H28       1.0  0.5638515397335271  0.23197371903154365  0.6084211721434796  1.0000
  H   H29       1.0  0.5491668090802834  0.028359457013358708  0.9175254594077129  1.0000
  H   H30       1.0  0.5045804050008017  0.5281978508639399  0.417395192880356  1.0000
  H   H31       1.0  0.45083436109003117  0.9716404056056975  0.08247333641909897  1.0000
  H   H32       1.0  0.49541861243174173  0.4718034937501515  0.5826050137510562  1.0000
  H   H33       1.0  0.5210871359151527  0.2441690561847025  0.9441512371145108  1.0000
  H   H34       1.0  0.29021952156609393  0.7439792921295947  0.44399377596195677  1.0000
  H   H35       1.0  0.478909715800235  0.7558322884293887  0.05584706204721359  1.0000
  H   H36       1.0  0.7097791426980039  0.25602205248449655  0.5560067838379081  1.0000
  H   H37       1.0  0.6087517558706993  0.278226784112384  0.019312298088955505  1.0000
  H   H38       1.0  0.09321019079956738  0.7784905105383617  0.5194494103156941  1.0000
  H   H39       1.0  0.39125171589783786  0.7217715965116369  0.980687653530701  1.0000
  H   H40       1.0  0.9067939535788055  0.22150935208069464  0.4805491267609554  1.0000
  H   H41       1.0  0.7104547258347581  0.3221131031203656  0.06916029447367579  1.0000
  H   H42       1.0  0.898185084222604  0.8221678682462327  0.5692761956889071  1.0000
  H   H43       1.0  0.28955224291840426  0.6778823135135852  0.9308390017566237  1.0000
  H   H44       1.0  0.10182037067557562  0.17783199437282354  0.4307223885968837  1.0000
  H   H45       1.0  0.5502951618191865  0.9645609153176125  0.6630832164707525  1.0000
  H   H46       1.0  0.8217612740337688  0.4651493360374631  0.1631527869542069  1.0000
  H   H47       1.0  0.4497064091988535  0.0354433932865561  0.33691566816674606  1.0000
  H   H48       1.0  0.1782397602554867  0.5348520085766283  0.8368467605494486  1.0000
  H   H49       1.0  0.3941721695863622  0.9424288014465037  0.701094255706522  1.0000
  H   H50       1.0  0.9624762370530324  0.442664507347736  0.20114721853932585  1.0000
  H   H51       1.0  0.6058293537523981  0.057571061172559716  0.2989041869518302  1.0000
  H   H52       1.0  0.037523520443478946  0.5573353552713272  0.7988529899612897  1.0000
  H   H53       1.0  0.7498166880363262  0.5942666715742604  0.7543091492180805  1.0000
  H   H54       1.0  0.9016851203030001  0.09425636629948293  0.25426376324224975  1.0000
  H   H55       1.0  0.25018129063853667  0.40573170904976064  0.2456895068504962  1.0000
  H   H56       1.0  0.09831668777727748  0.9057420143245452  0.7457364943367109  1.0000
  H   H57       1.0  0.5839913375053528  0.619494673076062  0.7217197305701147  1.0000
  H   H58       1.0  0.07465186834956943  0.1195288276523669  0.22169622503290035  1.0000
  H   H59       1.0  0.41600664116950303  0.3805037075479589  0.2782789254984549  1.0000
  H   H60       1.0  0.925348765091961  0.8804680709766188  0.7783032336600682  1.0000
  C   C1        1.0  0.09904791140525808  0.20059543812936914  0.9361457970399696  1.0000
  C   C2        1.0  0.7636476527346547  0.7006220453495544  0.4361675445052028  1.0000
  C   C3        1.0  0.9009532587650564  0.7994044244896872  0.0638529987868424  1.0000
  C   C4        1.0  0.2363511136834404  0.2993792992645439  0.5638315554117098  1.0000
  C   C5        1.0  0.9655143004993577  0.1520156408416398  0.8667867102073996  1.0000
  C   C6        1.0  0.014836572083382365  0.6521533976895384  0.3668854268559086  1.0000
  C   C7        1.0  0.03448170899807218  0.8479871857674939  0.1332130469680664  1.0000
  C   C8        1.0  0.9851578758797861  0.34784942891959514  0.6331131763959162  1.0000
  C   C9        1.0  0.7715748313873478  0.342684676218319  0.8566529684313053  1.0000
  C   C10       1.0  0.028398917725169868  0.8426816435377804  0.3566930852519333  1.0000
  C   C11       1.0  0.22842022075872168  0.6573181503908145  0.14334638836656666  1.0000
  C   C12       1.0  0.9716020351577519  0.1573167370862478  0.6433053120664806  1.0000
  C   C13       1.0  0.5696787314500258  0.7023633895171246  0.8611498640746758  1.0000
  C   C14       1.0  0.8667270234291776  0.20226564653520285  0.3612766179269328  1.0000
  C   C15       1.0  0.4303155806320831  0.2976409190870442  0.1388494908539997  1.0000
  C   C16       1.0  0.13327471719698286  0.7977356980788883  0.6387222232398244  1.0000
  C   C17       1.0  0.6114206842825284  0.832652983127588  0.8227760393396364  1.0000
  C   C18       1.0  0.7333673856368252  0.332386292711533  0.3227966525673622  1.0000
  C   C19       1.0  0.3885724531608334  0.1673498434815457  0.17722251670304695  1.0000
  C   C20       1.0  0.2666369760289416  0.6676150519025654  0.6772022830176849  1.0000
  C   C21       1.0  0.4436465589222324  0.1855294765910216  0.9250070457335366  1.0000
  C   C22       1.0  0.4453020738317623  0.68541084829765  0.4248806736063172  1.0000
  C   C23       1.0  0.5563532670012136  0.8144718680230767  0.0749909946780249  1.0000
  C   C24       1.0  0.5546969436007887  0.31459049631644126  0.5751195330250949  1.0000
  C   C25       1.0  0.24183036205172928  0.24569551107202875  0.0037765976104964004  1.0000
  C   C26       1.0  0.50833171307918  0.745701370361701  0.5037055447932699  1.0000
  C   C27       1.0  0.7581715481825461  0.7543028695519993  0.9962222000855189  1.0000
  C   C28       1.0  0.49166928748301325  0.2543014562474326  0.4962932945042836  1.0000
  C   C29       1.0  0.04867867897316098  0.28060242215546793  0.03198984566012798  1.0000
  C   C30       1.0  0.6385105406115843  0.780480829872026  0.5320033844517552  1.0000
  C   C31       1.0  0.9513241886124679  0.7193959584685601  0.9680093524134745  1.0000
  C   C32       1.0  0.3614897059344316  0.21951755075200205  0.46799571920356436  1.0000
  C   C33       1.0  0.8965705677870234  0.2625932184751605  0.00844645623703141  1.0000
  C   C34       1.0  0.8320735057877117  0.7624908921271898  0.5085331395497973  1.0000
  C   C35       1.0  0.10343342675808058  0.7374021981587902  0.9915530987434307  1.0000
  C   C36       1.0  0.1679308419258447  0.23750452450676116  0.4914660622622121  1.0000
  N   N1        1.0  0.9255645689455322  0.22304469893823156  0.9618597857808096  1.0000
  N   N2        1.0  0.8890246161436012  0.7230461122427982  0.46195148837448835  1.0000
  N   N3        1.0  0.07443624805632955  0.7769551636808246  0.03813936321444798  1.0000
  N   N4        1.0  0.11097581396274608  0.2769552323712929  0.5380473055831202  1.0000
  N   N5        1.0  0.12115325241256189  0.16870142295459095  0.8893096743190154  1.0000
  N   N6        1.0  0.8200513420861814  0.6689755233458285  0.3893343881453574  1.0000
  N   N7        1.0  0.8788421529019601  0.8313014036545426  0.11068932931041077  1.0000
  N   N8        1.0  0.17994594420399335  0.3310287852583471  0.6106647080331555  1.0000
  N   N9        1.0  0.7477906073680317  0.5165478878841157  0.8701781072881757  1.0000
  N   N10       1.0  0.865164866736919  0.016613164356179804  0.37030775734422144  1.0000
  N   N11       1.0  0.2522057552978509  0.48345493872501794  0.12982129671884476  1.0000
  N   N12       1.0  0.13483835401716232  0.9833852162678485  0.6296910875609355  1.0000
  N   N13       1.0  0.25713361647466865  0.2101617160882583  0.9551821536733767  1.0000
  N   N14       1.0  0.5770651531108868  0.7101008856012996  0.4551260437899387  1.0000
  N   N15       1.0  0.7428665963442855  0.7898381465308049  0.044816241775834  1.0000
  N   N16       1.0  0.4229352769954676  0.28990045901279166  0.544872750167677  1.0000
  N   N17       1.0  0.02801478074009367  0.33426101643237166  0.07753362020157077  1.0000
  N   N18       1.0  0.5601790228259347  0.8341364601588526  0.5775304324863909  1.0000
  N   N19       1.0  0.9719899201419088  0.6657344002015861  0.9224652284419859  1.0000
  N   N20       1.0  0.43982350554345845  0.1658678484453162  0.4224688525287019  1.0000
  N   N21       1.0  0.7224547376641511  0.28889714837326613  0.03389643857896369  1.0000
  N   N22       1.0  0.9545041276911025  0.7888896697076151  0.5340271650071882  1.0000
  N   N23       1.0  0.2775502142323064  0.7110982682606846  0.9661035167790927  1.0000
  N   N24       1.0  0.045499663518825235  0.2111101929114483  0.46597172523791386  1.0000
  O   O1        1.0  0.6401769636837005  0.3283952800789578  0.8361316740984177  1.0000
  O   O2        1.0  0.19434885441351213  0.8282544218600449  0.33611750408190477  1.0000
  O   O3        1.0  0.3598164247741167  0.6716075465301756  0.16386798865875818  1.0000
  O   O4        1.0  0.8056532254288843  0.1717409947739057  0.6638812501433616  1.0000
  O   O5        1.0  0.7763889804366713  0.7541680080037028  0.7938053837555612  1.0000
  O   O6        1.0  0.6760036023472155  0.2537857219748219  0.29375477410973616  1.0000
  O   O7        1.0  0.22360645860491266  0.2458333366103957  0.20619432807996665  1.0000
  O   O8        1.0  0.3239983555663386  0.7462171046343118  0.7062444655654116  1.0000
  O   O9        1.0  0.47424218026700554  0.0127836891825481  0.8217811238382706  1.0000
  O   O10       1.0  0.6914542404744002  0.5125094514103736  0.32179568631689637  1.0000
  O   O11       1.0  0.5257505226015695  0.9872161734365081  0.17821663518761705  1.0000
  O   O12       1.0  0.30855107854272046  0.4874918932037176  0.6782036496457449  1.0000
  O   O13       1.0  0.38656314648658713  0.2478236559440532  0.020725293280840194  1.0000
  O   O14       1.0  0.34448978181489326  0.7480295845636249  0.5205876066115565  1.0000
  O   O15       1.0  0.6134368967242596  0.7521791706650733  0.9792731456391193  1.0000
  O   O16       1.0  0.6555097723464418  0.2519747240405437  0.4794119371536991  1.0000
  O   O17       1.0  0.8623077281066004  0.3626693792819254  0.10469398913758708  1.0000
  O   O18       1.0  0.6703905424803196  0.862599656824756  0.6047398878672823  1.0000
  O   O19       1.0  0.13769644999883499  0.6373290013420956  0.8953052561451711  1.0000
  O   O20       1.0  0.32961460692868644  0.1374046517794127  0.395259491566108  1.0000
  O   O21       1.0  0.47255134477124755  0.0161922777658887  0.6945965463576868  1.0000
  O   O22       1.0  0.8167544931334022  0.5166486635465759  0.19466896327619304  1.0000
  O   O23       1.0  0.5274490853351067  0.9838090668482098  0.30540224759992174  1.0000
  O   O24       1.0  0.18324449057208625  0.48335416306255763  0.8053305351491173  1.0000
  O   O25       1.0  0.7165348018595239  0.5202899253506033  0.7329576852165615  1.0000
  O   O26       1.0  0.030211112929578215  0.0203092599765426  0.23294720779856698  1.0000
  O   O27       1.0  0.2834665041918498  0.47970845527342487  0.2670403589334  1.0000
  O   O28       1.0  0.9697887804479848  0.9796891206474785  0.7670522490252052  1.0000
