data_image0
_chemical_formula_structural       Mg6H18C48O18
_chemical_formula_sum              "Mg6 H18 C48 O18"
_cell_length_a       6.862043122026324
_cell_length_b       24.667069128535665
_cell_length_c       24.66796200637509
_cell_angle_alpha    119.14313741490804
_cell_angle_beta     95.32508223463282
_cell_angle_gamma    95.319164105699

_space_group_name_H-M_alt    "P 1"
_space_group_IT_number       1

loop_
  _space_group_symop_operation_xyz
  'x, y, z'

loop_
  _atom_site_type_symbol
  _atom_site_label
  _atom_site_symmetry_multiplicity
  _atom_site_fract_x
  _atom_site_fract_y
  _atom_site_fract_z
  _atom_site_occupancy
  Mg  Mg1       1.0  0.8908450911930645  0.6718398426361177  0.29351555539464164  1.0000
  Mg  Mg2       1.0  0.7055374220187646  0.32452675845870976  0.7042607377511558  1.0000
  Mg  Mg3       1.0  0.5973217779460855  0.7064754919184892  0.37829350022044395  1.0000
  Mg  Mg4       1.0  0.0012933700458930277  0.29574256037050634  0.6202893444493824  1.0000
  Mg  Mg5       1.0  0.21894128282227152  0.6216838417443074  0.32816280319400454  1.0000
  Mg  Mg6       1.0  0.38102802659845036  0.3797209862155455  0.6754831191542647  1.0000
  H   H1        1.0  0.20491418380071022  0.11970917820178066  0.5137261861222839  1.0000
  H   H2        1.0  0.3724187772366748  0.024955447756021005  0.46827610644880474  1.0000
  H   H3        1.0  0.9222176348333518  0.1411317461388748  0.5853210956524676  1.0000
  H   H4        1.0  0.6702430840194893  0.8569120297258409  0.40290444976585604  1.0000
  H   H5        1.0  0.3892165963763575  0.8832504584256142  0.4758657980258933  1.0000
  H   H6        1.0  0.21802263809762232  0.9772823982307983  0.5169645684168246  1.0000
  H   H7        1.0  0.691192591861544  0.4862708509820735  0.6059976179024388  1.0000
  H   H8        1.0  0.9040838425520195  0.53171879569188  0.5566618860397766  1.0000
  H   H9        1.0  0.3369436443416589  0.4146822330359399  0.5557929696816686  1.0000
  H   H10       1.0  0.26725543229250803  0.5970662754396301  0.45397756255734123  1.0000
  H   H11       1.0  0.9133342994699873  0.5241428259001566  0.4074054918357887  1.0000
  H   H12       1.0  0.7011244420268311  0.48304654380253703  0.4603638238497466  1.0000
  H   H13       1.0  0.08512618828635964  0.3940297094037959  0.8802779397914974  1.0000
  H   H14       1.0  0.3473887432137987  0.44330495108695817  0.9750416403577233  1.0000
  H   H15       1.0  0.7811266330322013  0.4442299030300703  0.8589372385886236  1.0000
  H   H16       1.0  0.8132976501292292  0.5460083056660424  0.1431003768267872  1.0000
  H   H17       1.0  0.5058677403065346  0.5926198217924465  0.11672898594871844  1.0000
  H   H18       1.0  0.2406545228501643  0.5396794295846234  0.022716673229169412  1.0000
  C   C1        1.0  0.6740509649306929  0.1901388167199372  0.594799005103205  1.0000
  C   C2        1.0  0.46594676598866863  0.18331496358364766  0.5744286231235449  1.0000
  C   C3        1.0  0.36229330440005475  0.12335336036879596  0.5288864065874818  1.0000
  C   C4        1.0  0.4542485077382423  0.07075292502619128  0.5037134309091442  1.0000
  C   C5        1.0  0.6584528878801947  0.0766411696308396  0.5247526566367496  1.0000
  C   C6        1.0  0.7647433481859238  0.1359183551646694  0.5693103055606628  1.0000
  C   C7        1.0  0.7540878730266343  0.023054720278565796  0.5018893904269673  1.0000
  C   C8        1.0  0.8351547687592104  0.976512490967387  0.48312329218816064  1.0000
  C   C9        1.0  0.9327360835957351  0.9233730227070326  0.4617398020015032  1.0000
  C   C10       1.0  0.82807526350895  0.8632269044153347  0.4191431001721427  1.0000
  C   C11       1.0  0.9206229555626209  0.8093766949755974  0.39643222067701345  1.0000
  C   C12       1.0  0.12910857656368097  0.8175426020122317  0.4171452166471924  1.0000
  C   C13       1.0  0.23145726062495703  0.8785066835941108  0.46033779714447576  1.0000
  C   C14       1.0  0.13756347460230225  0.930720385383125  0.48308680474612914  1.0000
  C   C15       1.0  0.24251087065084695  0.7649352860602505  0.39674154977114273  1.0000
  C   C16       1.0  0.3538867400434499  0.2363503256149784  0.5980019754229602  1.0000
  C   C17       1.0  0.07931972511969586  0.4052111206242586  0.5953319538643171  1.0000
  C   C18       1.0  0.8915379020863625  0.4255594404748351  0.6088804200708182  1.0000
  C   C19       1.0  0.8333841951673406  0.4711012522256509  0.5944574519492036  1.0000
  C   C20       1.0  0.9504011726199408  0.49625389211056614  0.56699504695667  1.0000
  C   C21       1.0  0.13353611247247704  0.4752066063977338  0.5518414437927177  1.0000
  C   C22       1.0  0.19545190311495023  0.4306694369204536  0.5665709756388536  1.0000
  C   C23       1.0  0.2521054429012537  0.4981376889302069  0.5211786936898406  1.0000
  C   C24       1.0  0.3520797574162701  0.5169064891586572  0.4934395134521736  1.0000
  C   C25       1.0  0.47099206402145916  0.5382571020234791  0.46165193659386  1.0000
  C   C26       1.0  0.40880202791026227  0.5808044561551996  0.44403327243701096  1.0000
  C   C27       1.0  0.5240216647055363  0.6034929823040045  0.41287863541906933  1.0000
  C   C28       1.0  0.7118685244317435  0.5828203229501483  0.4003687437261121  1.0000
  C   C29       1.0  0.7710922126187896  0.5396631941857423  0.41819008531826546  1.0000
  C   C30       1.0  0.6544698396727002  0.5169202568889446  0.44766725076361513  1.0000
  C   C31       1.0  0.8456966568868225  0.6032251219023976  0.36817079880525233  1.0000
  C   C32       1.0  0.7559853544629718  0.4019815082025104  0.6383500993652191  1.0000
  C   C33       1.0  0.48398155670962245  0.4046680757662884  0.809894494293438  1.0000
  C   C34       1.0  0.2826153658071889  0.39114620777434794  0.816688130213194  1.0000
  C   C35       1.0  0.23885754454517646  0.40554282910289163  0.8766368370713663  1.0000
  C   C36       1.0  0.3833574204078332  0.43295123736841384  0.9292409022132517  1.0000
  C   C37       1.0  0.5816377469088252  0.44813209235415735  0.9233779505756771  1.0000
  C   C38       1.0  0.6288395729400664  0.4334387799771093  0.8641287778406477  1.0000
  C   C39       1.0  0.7307415172055799  0.4788045065030815  0.9769951519490263  1.0000
  C   C40       1.0  0.8584549548423298  0.506574133794281  0.023510994680044955  1.0000
  C   C41       1.0  0.009244367231296728  0.5383677114370186  0.0766288128836692  1.0000
  C   C42       1.0  0.964783793993071  0.5559396554389978  0.13678348326767786  1.0000
  C   C43       1.0  0.11119720086895782  0.5871008488816402  0.19062399796288804  1.0000
  C   C44       1.0  0.31156005687981286  0.599641669397691  0.1824635530871603  1.0000
  C   C45       1.0  0.35286206646244983  0.5818395424854188  0.12148559545523345  1.0000
  C   C46       1.0  0.20670603361103465  0.5523747779136914  0.06927835200125555  1.0000
  C   C47       1.0  0.4775543811702576  0.6318237778300855  0.2350643283053131  1.0000
  C   C48       1.0  0.11758385666181682  0.3616645264608849  0.7636469268817548  1.0000
  O   O1        1.0  0.42634922476130305  0.7739798846004007  0.4177409012640894  1.0000
  O   O2        1.0  0.1510847879446261  0.7088593671806649  0.35639800555969714  1.0000
  O   O3        1.0  0.8079224496298139  0.7533984375645917  0.35690032625637963  1.0000
  O   O4        1.0  0.1708004206758389  0.22874666219829012  0.5769552145422523  1.0000
  O   O5        1.0  0.4455662825133545  0.2912605803031596  0.6413509856172581  1.0000
  O   O6        1.0  0.7878024907641078  0.24515737593418407  0.6366850679448816  1.0000
  O   O7        1.0  0.008480924120497965  0.5822019811819387  0.3561985991692183  1.0000
  O   O8        1.0  0.7947162972041397  0.6436060334875151  0.35246618946084846  1.0000
  O   O9        1.0  0.4509181994024234  0.6430417656605344  0.3964366291223983  1.0000
  O   O10       1.0  0.5939378868434133  0.4230180486627048  0.6517909006093986  1.0000
  O   O11       1.0  0.8042979898328184  0.3586189087869514  0.6499050528823246  1.0000
  O   O12       1.0  0.15119083810814973  0.3633570940376174  0.6085162786006463  1.0000
  O   O13       1.0  0.6523412447686142  0.6437745847520661  0.22602065418682568  1.0000
  O   O14       1.0  0.44218818194098475  0.6475436463831272  0.29113664557002744  1.0000
  O   O15       1.0  0.0545225686200724  0.6035502937866469  0.24660353323007916  1.0000
  O   O16       1.0  0.942126117802218  0.3482062646870716  0.7712485084119933  1.0000
  O   O17       1.0  0.15434986101475093  0.3501122207409609  0.7087388534928962  1.0000
  O   O18       1.0  0.5427094301843383  0.3914863951595109  0.7548630565979905  1.0000
