data_image0
_chemical_formula_structural       Zn2H55C43N7O8
_chemical_formula_sum              "Zn2 H55 C43 N7 O8"
_cell_length_a       12.57533615302433
_cell_length_b       13.734324245955886
_cell_length_c       15.982184727974017
_cell_angle_alpha    90.08941259177347
_cell_angle_beta     91.9630441660546
_cell_angle_gamma    94.44676057827631

_space_group_name_H-M_alt    "P 1"
_space_group_IT_number       1

loop_
  _space_group_symop_operation_xyz
  'x, y, z'

loop_
  _atom_site_type_symbol
  _atom_site_label
  _atom_site_symmetry_multiplicity
  _atom_site_fract_x
  _atom_site_fract_y
  _atom_site_fract_z
  _atom_site_occupancy
  Zn  Zn1       1.0  0.6096587925799284  0.4974226640372734  0.5009241339969321  1.0000
  Zn  Zn2       1.0  0.3909510769210058  0.5155450216877212  0.4971054735930238  1.0000
  H   H1        1.0  0.39246991729337566  0.38034850903972744  0.940371382227873  1.0000
  H   H2        1.0  0.6864785846986764  0.5973040573656688  0.1572013777555838  1.0000
  H   H3        1.0  0.8056348317532385  0.4820668884210092  0.1769100246560029  1.0000
  H   H4        1.0  0.7646953466956743  0.4222920417375633  0.08201131977592269  1.0000
  H   H5        1.0  0.6786103941771842  0.41615837132913214  0.1689333011413225  1.0000
  H   H6        1.0  0.8415227488685915  0.5462982650219388  0.004363689617143498  1.0000
  H   H7        1.0  0.8721059199334391  0.4704866189951886  0.9192341554971861  1.0000
  H   H8        1.0  0.8326826252710972  0.5895790328182499  0.9002214102654946  1.0000
  H   H9        1.0  0.694485895422929  0.4113090848674616  0.9630038999636241  1.0000
  H   H10       1.0  0.686571645099356  0.46479275079521193  0.8639632902644152  1.0000
  H   H11       1.0  0.3738176018429015  0.887824144934726  0.47380819403593927  1.0000
  H   H12       1.0  0.6192503889920715  0.04162051091693541  0.5073099553872069  1.0000
  H   H13       1.0  0.19620124248484666  0.9291332272815751  0.4672438614480114  1.0000
  H   H14       1.0  0.2478960720967578  0.009866686647257001  0.38834668149724644  1.0000
  H   H15       1.0  0.23773993915951755  0.0528957638957692  0.4928101740143802  1.0000
  H   H16       1.0  0.905034682046313  0.5285826348613226  0.3799868762088465  1.0000
  H   H17       1.0  0.002736472761100102  0.570936040718145  0.2607295533790648  1.0000
  H   H18       1.0  0.06406143978445299  0.46411611601863706  0.2956400049047971  1.0000
  H   H19       1.0  0.12370677328196682  0.58294609135865  0.32148842820310364  1.0000
  H   H20       1.0  0.09433034391035726  0.47051204272062813  0.6184388226832596  1.0000
  H   H21       1.0  0.9960895710696532  0.4299344365913099  0.738058435658992  1.0000
  H   H22       1.0  0.8743995382122663  0.4249765141413135  0.677978391615909  1.0000
  H   H23       1.0  0.5754141120841467  0.632425049578515  0.062277156937725  1.0000
  H   H24       1.0  0.9412676797949403  0.5406845304499511  0.705219126878319  1.0000
  H   H25       1.0  0.24627168190707494  0.613263400337445  0.1527985551485074  1.0000
  H   H26       1.0  0.19117175346261914  0.6119431918528521  0.04916670162818801  1.0000
  H   H27       1.0  0.1371703164144762  0.5281764310264164  0.1237905484416686  1.0000
  H   H28       1.0  0.2535066336043172  0.4382698842199347  0.0332036238397535  1.0000
  H   H29       1.0  0.30890801708061116  0.44929687193913986  0.135479591978644  1.0000
  H   H30       1.0  0.4846946961068427  0.6975649461223271  0.8202894388186195  1.0000
  H   H31       1.0  0.34752473791744626  0.7198117118072246  0.8225350433136782  1.0000
  H   H32       1.0  0.44522676404358924  0.8045565747062042  0.8683431185971598  1.0000
  H   H33       1.0  0.34683677135502927  0.7007170667804489  0.9753838817499271  1.0000
  H   H34       1.0  0.40557217382964683  0.6118769409852262  0.07809974386531589  1.0000
  H   H35       1.0  0.4860799124863462  0.7031883717870144  0.9829116049527826  1.0000
  H   H36       1.0  0.3059487206901395  0.4004780028865084  0.8250423617030052  1.0000
  H   H37       1.0  0.23529726922539135  0.38185400063888136  0.918858252168917  1.0000
  H   H38       1.0  0.17732254494831068  0.44176349981100316  0.8331854391869626  1.0000
  H   H39       1.0  0.2352649111830942  0.5706103408545928  0.9293895475389958  1.0000
  H   H40       1.0  0.30823602915545206  0.577252947901492  0.8383209239090091  1.0000
  H   H41       1.0  0.4802351918829899  0.1751718873718602  0.015939515797690297  1.0000
  H   H42       1.0  0.5634277739334834  0.20587752078899502  0.105534849110434  1.0000
  H   H43       1.0  0.4329576360487977  0.15010856704251552  0.11729407717740509  1.0000
  H   H44       1.0  0.4327065290436636  0.3234879616814581  0.15187422413097806  1.0000
  H   H45       1.0  0.5884851768493177  0.36905731162637767  0.050684591287811984  1.0000
  H   H46       1.0  0.3545880825650727  0.300442075229526  0.05948619480084009  1.0000
  H   H47       1.0  0.38844557994276835  0.2081849319726743  0.8989186420159072  1.0000
  H   H48       1.0  0.3958289164140325  0.27599431896812376  0.8046147603356816  1.0000
  H   H49       1.0  0.48202953080303956  0.18179467155100326  0.8228188090342101  1.0000
  H   H50       1.0  0.5744681193782454  0.3490197170583045  0.8439085700860431  1.0000
  H   H51       1.0  0.5831740601948638  0.2763196549262474  0.9336242739203726  1.0000
  H   H52       1.0  0.6641374469629753  0.637840698494699  0.8606611358742879  1.0000
  H   H53       1.0  0.6501832402149574  0.7594900536292712  0.009874511375848298  1.0000
  H   H54       1.0  0.7244100812657805  0.7802559145823266  0.9192777964626302  1.0000
  H   H55       1.0  0.7711303996130212  0.7023540654008685  0.9998630741190908  1.0000
  C   C1        1.0  0.5385759532023259  0.6946910928806532  0.4980181002012856  1.0000
  C   C2        1.0  0.44985125872877774  0.0218925746234149  0.4878208621093876  1.0000
  C   C3        1.0  0.5511842706856811  0.9883432927864247  0.4984362281204966  1.0000
  C   C4        1.0  0.5018443627235811  0.5012419579697466  0.3363021538199504  1.0000
  C   C5        1.0  0.5616312162038993  0.8884960026665921  0.4986712824272814  1.0000
  C   C6        1.0  0.4400507011212368  0.12382911306644222  0.48948340240581695  1.0000
  C   C7        1.0  0.5544395467037403  0.7988635010388948  0.4973597204737885  1.0000
  C   C8        1.0  0.9710946121960902  0.48551780625710705  0.5345048325121906  1.0000
  C   C9        1.0  0.02808613842340428  0.5181605640160426  0.4649620020141043  1.0000
  C   C10       1.0  0.1399834836539426  0.5279019926690366  0.476403379312103  1.0000
  C   C11       1.0  0.8591758048080536  0.4778849166608978  0.522956021976249  1.0000
  C   C12       1.0  0.6146599523829933  0.5487966939941629  0.9565981720877018  1.0000
  C   C13       1.0  0.45399845121705334  0.3180227738603634  0.4959446136708578  1.0000
  C   C14       1.0  0.5055555071255284  0.5055705652782477  0.6618845640120625  1.0000
  C   C15       1.0  0.5992360172370894  0.5581111929631106  0.0526870906723573  1.0000
  C   C16       1.0  0.3966757209538443  0.53992178753073  0.04686599042040739  1.0000
  C   C17       1.0  0.40356250155635115  0.5616090908956081  0.950007708439415  1.0000
  C   C18       1.0  0.5055177425192099  0.5069452288350504  0.752010477498608  1.0000
  C   C19       1.0  0.49837905090162576  0.49052223724939376  0.07948494848823627  1.0000
  C   C20       1.0  0.6996134934067229  0.7239027802733276  0.9648609799569383  1.0000
  C   C21       1.0  0.7363198053314762  0.46392703485160786  0.1342834151878449  1.0000
  C   C22       1.0  0.7027277969490627  0.4817575978430995  0.9307782100305317  1.0000
  C   C23       1.0  0.5010078966641841  0.5048799812000269  0.9183863354298083  1.0000
  C   C24       1.0  0.8186039156679425  0.5248421419482341  0.9397973620135076  1.0000
  C   C25       1.0  0.2555438294922041  0.9897485659049182  0.4549869196068173  1.0000
  C   C26       1.0  0.047244545001881  0.5391232106386711  0.3126475554017816  1.0000
  C   C27       1.0  0.9531312823720982  0.46490607506071774  0.6869664715883417  1.0000
  C   C28       1.0  0.2910747191147252  0.4911044339186289  0.07879437773323157  1.0000
  C   C29       1.0  0.21190915082126335  0.5651524773773103  0.1020612713067877  1.0000
  C   C30       1.0  0.41689022929875824  0.6759198531066203  0.9438828022676944  1.0000
  C   C31       1.0  0.4236700355965653  0.7261171466373212  0.8586247166312617  1.0000
  C   C32       1.0  0.29811332064337387  0.5359708492826626  0.8966258542279562  1.0000
  C   C33       1.0  0.2532131468676369  0.4338016284066057  0.868148322006725  1.0000
  C   C34       1.0  0.4790409994325415  0.3944016746279714  0.9471028027608952  1.0000
  C   C35       1.0  0.4371364844075103  0.30424821086560877  0.0852622469608448  1.0000
  C   C36       1.0  0.48079963789947294  0.2034841507833534  0.0802040489163645  1.0000
  C   C37       1.0  0.5271382414229748  0.31508164714622217  0.893960448547169  1.0000
  C   C38       1.0  0.44371211786608467  0.24119527150244827  0.8531662453857152  1.0000
  C   C39       1.0  0.5050261144350898  0.3865707094972777  0.04176095096555339  1.0000
  C   C40       1.0  0.5032156252802196  0.5077438490361388  0.8280047847513997  1.0000
  C   C41       1.0  0.49828063300073216  0.49077835654409796  0.1701262578424902  1.0000
  C   C42       1.0  0.49908733012259177  0.4966863116270233  0.24603824644173497  1.0000
  C   C43       1.0  0.4415060086239819  0.2125796121029211  0.492314644152529  1.0000
  N   N1        1.0  0.767827519135018  0.4749732114672867  0.5076244678786352  1.0000
  N   N2        1.0  0.23166633609012166  0.5338391894532606  0.49068447438212803  1.0000
  N   N3        1.0  0.6376293872442532  0.6457013221367588  0.9194903005126065  1.0000
  N   N4        1.0  0.6968756772512703  0.5560765031932461  0.10551565680002277  1.0000
  N   N5        1.0  0.3604379366795811  0.9598108790704031  0.477841550070714  1.0000
  N   N6        1.0  0.985229416828666  0.5433830293233867  0.38791435281642345  1.0000
  N   N7        1.0  0.013709033476040097  0.4588488342059236  0.6111284006714398  1.0000
  O   O1        1.0  0.6203532844605774  0.6458092331338178  0.5089204997798262  1.0000
  O   O2        1.0  0.4414984386328412  0.6596764956455133  0.4875344716564598  1.0000
  O   O3        1.0  0.5940087393661031  0.5069493849407536  0.3726455665325332  1.0000
  O   O4        1.0  0.4119061174237331  0.49883504024847264  0.3709546445617348  1.0000
  O   O5        1.0  0.5500265915782308  0.35413326693718256  0.4909124025916896  1.0000
  O   O6        1.0  0.3708331780544398  0.36390992482800044  0.503700855372621  1.0000
  O   O7        1.0  0.5933343999777065  0.4899492665612398  0.6285601679893063  1.0000
  O   O8        1.0  0.41716754998856936  0.5198072312635347  0.6239253177049875  1.0000
