data_image0
_chemical_formula_structural       Zn8H60C42N12O32
_chemical_formula_sum              "Zn8 H60 C42 N12 O32"
_cell_length_a       15.779470672204358
_cell_length_b       16.455756930040554
_cell_length_c       16.618275611711233
_cell_angle_alpha    65.47131288529096
_cell_angle_beta     63.10416870631552
_cell_angle_gamma    63.99472501932908

_space_group_name_H-M_alt    "P 1"
_space_group_IT_number       1

loop_
  _space_group_symop_operation_xyz
  'x, y, z'

loop_
  _atom_site_type_symbol
  _atom_site_label
  _atom_site_symmetry_multiplicity
  _atom_site_fract_x
  _atom_site_fract_y
  _atom_site_fract_z
  _atom_site_occupancy
  Zn  Zn1       1.0  0.08719884464745328  0.9930092307914576  0.01813548331261222  1.0000
  Zn  Zn2       1.0  0.05353246063732806  0.803956456304519  0.04737883285342549  1.0000
  Zn  Zn3       1.0  0.030362462428641292  0.9789564556135631  0.8613036996753892  1.0000
  Zn  Zn4       1.0  0.8683646044869563  0.9881551476900869  0.06611199436134291  1.0000
  Zn  Zn5       1.0  0.4533141917395085  0.38286367400198157  0.4457519274006144  1.0000
  Zn  Zn6       1.0  0.4591477283369658  0.5735485293986712  0.446257323173377  1.0000
  Zn  Zn7       1.0  0.6434968336190892  0.3856344600077861  0.4694173782164127  1.0000
  Zn  Zn8       1.0  0.431255687446061  0.40191541547585535  0.6355912560037353  1.0000
  H   H1        1.0  0.9947505320564787  0.4801888734777221  0.6263567209338277  1.0000
  H   H2        1.0  0.051892308566316124  0.5354279449015849  0.6366833003993546  1.0000
  H   H3        1.0  0.9488308225625635  0.5971980022544157  0.503457997560773  1.0000
  H   H4        1.0  0.9320389403605065  0.6593583591076992  0.5765057517378053  1.0000
  H   H5        1.0  0.16748841054404545  0.5360934669109696  0.4605112340764208  1.0000
  H   H6        1.0  0.2304660303373538  0.7001072467832969  0.37624014138720696  1.0000
  H   H7        1.0  0.21349280256838205  0.631196008071001  0.24419991142529807  1.0000
  H   H8        1.0  0.3283847205048431  0.6507754723317305  0.21083759741375732  1.0000
  H   H9        1.0  0.24577848830501384  0.8144635664781105  0.21507005500990328  1.0000
  H   H10       1.0  0.12834151297361981  0.7948499748272582  0.2782815107776528  1.0000
  H   H11       1.0  0.5580966924211167  0.9589056710528823  0.48109554387193043  1.0000
  H   H12       1.0  0.4974522471167404  0.06999979020395838  0.47179413431941697  1.0000
  H   H13       1.0  0.5678500793204649  0.935978233490708  0.6305914313950964  1.0000
  H   H14       1.0  0.6243741243455929  0.0224011290695145  0.5441084389384158  1.0000
  H   H15       1.0  0.3649484037504039  0.08157366521898977  0.6155033177303864  1.0000
  H   H16       1.0  0.3128223109281905  0.171427332111044  0.7574225844262017  1.0000
  H   H17       1.0  0.21351477529697152  0.18012470938907643  0.6375942090593867  1.0000
  H   H18       1.0  0.19716013010638284  0.29404444187228757  0.6344760104039507  1.0000
  H   H19       1.0  0.058078810882698  0.2517817618820644  0.7599170331906038  1.0000
  H   H20       1.0  0.13688587817183867  0.24447501246508815  0.814278608502967  1.0000
  H   H21       1.0  0.5755448666629802  0.42714648851237774  0.9776643621192632  1.0000
  H   H22       1.0  0.48872518283680233  0.48933295206899163  0.051670327211908784  1.0000
  H   H23       1.0  0.6853788111891036  0.49697186171331964  0.9380483014347758  1.0000
  H   H24       1.0  0.592160935347337  0.5747004109572986  0.00554599214851228  1.0000
  H   H25       1.0  0.6163220583749195  0.3637809976715261  0.1467414748213115  1.0000
  H   H26       1.0  0.7756575682670716  0.3699270620654502  0.1930536719784398  1.0000
  H   H27       1.0  0.7240560363073882  0.19871453300827818  0.21996518304691665  1.0000
  H   H28       1.0  0.805562460243259  0.19209866589697097  0.27088766995127134  1.0000
  H   H29       1.0  0.9236384150987931  0.24252540753487037  0.11608463051240399  1.0000
  H   H30       1.0  0.8344751116814636  0.2761211675040443  0.06124524776404878  1.0000
  H   H31       1.0  0.99103475961941  0.9387853453426515  0.5142275468134585  1.0000
  H   H32       1.0  0.04617543310213529  0.8548688623272157  0.4606029098121736  1.0000
  H   H33       1.0  0.9245656604572188  0.845365943741335  0.6558571814974529  1.0000
  H   H34       1.0  0.9252940626540539  0.7925610812326838  0.5817142479159967  1.0000
  H   H35       1.0  0.14744289315487444  0.7797593596219985  0.5793754763416175  1.0000
  H   H36       1.0  0.15781687169356945  0.5946861216004107  0.7247259332613325  1.0000
  H   H37       1.0  0.2258390661835321  0.7548204891388082  0.6980310622510614  1.0000
  H   H38       1.0  0.26217997946726973  0.6401821674766308  0.7728411053614509  1.0000
  H   H39       1.0  0.08965295118875374  0.6494279381030734  0.8714479546778691  1.0000
  H   H40       1.0  0.043340727432614294  0.7505123534911534  0.7875451736640072  1.0000
  H   H41       1.0  0.4691979205580027  0.8642561719481846  0.5823351870994314  1.0000
  H   H42       1.0  0.45240359551162607  0.7597282967734459  0.6312426717899484  1.0000
  H   H43       1.0  0.6282462970642512  0.809787612902447  0.5812688017556836  1.0000
  H   H44       1.0  0.5960802437110929  0.7113843293887783  0.6680925674563482  1.0000
  H   H45       1.0  0.5788676692908294  0.7345947493623869  0.4665811973093454  1.0000
  H   H46       1.0  0.7774727465188463  0.5884820457866553  0.4217698307733925  1.0000
  H   H47       1.0  0.6898938898277791  0.7462588573578799  0.27211653148652437  1.0000
  H   H48       1.0  0.8016939878304752  0.6509798221871179  0.2518213011389179  1.0000
  H   H49       1.0  0.8700464970705397  0.7025896306681289  0.327945103425151  1.0000
  H   H50       1.0  0.7602186290023171  0.8011097538954599  0.3412830912561302  1.0000
  H   H51       1.0  0.9463229455041217  0.4168228480234788  0.5727647130736386  1.0000
  H   H52       1.0  0.8512502026430653  0.5087334337006624  0.5473367032712559  1.0000
  H   H53       1.0  0.8763698672118921  0.41943904677644644  0.7268162590301512  1.0000
  H   H54       1.0  0.7871029437164765  0.5252363494105127  0.6908175771968599  1.0000
  H   H55       1.0  0.7904464185652813  0.3564656142542119  0.6348993344301235  1.0000
  H   H56       1.0  0.6133985213880636  0.31942957461290417  0.8008689131361634  1.0000
  H   H57       1.0  0.8004248555628238  0.17230684640522753  0.7169371236168656  1.0000
  H   H58       1.0  0.6836959427559322  0.1496129064361043  0.7772869617982111  1.0000
  H   H59       1.0  0.6666609407401864  0.16891068241075394  0.9216715894956522  1.0000
  H   H60       1.0  0.7581762816879802  0.22639426194359658  0.8633172687973526  1.0000
  C   C1        1.0  0.9886552295458843  0.6102543469974789  0.534453613869033  1.0000
  C   C2        1.0  0.060500227902657966  0.6618477576305394  0.4543034779683168  1.0000
  C   C3        1.0  0.23853275950358477  0.6389748890905054  0.3584924425833903  1.0000
  C   C4        1.0  0.24886785590216934  0.669666593222786  0.25347279956989865  1.0000
  C   C5        1.0  0.20020066523257898  0.7754734923091818  0.2223765709851051  1.0000
  C   C6        1.0  0.17239329444902293  0.8133586093784118  0.1353204065315055  1.0000
  C   C7        1.0  0.33376796080638393  0.5652071611895692  0.3748463793132685  1.0000
  C   C8        1.0  0.5531668133512682  0.006001239087339604  0.5807961871966041  1.0000
  C   C9        1.0  0.48416942237508925  0.07699532863862399  0.6379295883742131  1.0000
  C   C10       1.0  0.3190390179027744  0.18691512142074626  0.6842897576523725  1.0000
  C   C11       1.0  0.21406597660448062  0.22030740241864072  0.6761627088231705  1.0000
  C   C12       1.0  0.13074460961995274  0.21293474246566288  0.7712817221380277  1.0000
  C   C13       1.0  0.12814039822711012  0.11329584687113942  0.8266792075547897  1.0000
  C   C14       1.0  0.3644584658391921  0.2678426166337573  0.627972201606454  1.0000
  C   C15       1.0  0.6300520986198849  0.49973657348198236  0.008134198614769031  1.0000
  C   C16       1.0  0.6896784968655538  0.46019940617519234  0.07490063035633202  1.0000
  C   C17       1.0  0.7213269046228916  0.33411597995529974  0.21331008446271227  1.0000
  C   C18       1.0  0.7769051545918727  0.23071590489846017  0.21163244347441443  1.0000
  C   C19       1.0  0.8627477603773174  0.22489874347725441  0.11891349863697798  1.0000
  C   C20       1.0  0.9031464267050284  0.1297751098705149  0.10135108542307575  1.0000
  C   C21       1.0  0.6533003714970178  0.3386707567306502  0.3129397444307642  1.0000
  C   C22       1.0  0.9733941379878458  0.8099309868643657  0.5996011975750976  1.0000
  C   C23       1.0  0.03982699302530793  0.7174953853844032  0.6443088747286507  1.0000
  C   C24       1.0  0.19551843118517814  0.6486625265907547  0.6791378097991226  1.0000
  C   C25       1.0  0.20387065194218226  0.6908421544912144  0.7417707751963647  1.0000
  C   C26       1.0  0.10305919507019472  0.7142428453901533  0.8189107660819771  1.0000
  C   C27       1.0  0.09480459912359866  0.7790335376501857  0.8669874786013381  1.0000
  C   C28       1.0  0.2987361747245316  0.5972505112288218  0.62233548600598  1.0000
  C   C29       1.0  0.598098349437933  0.7542359853338783  0.5960692978354416  1.0000
  C   C30       1.0  0.6781875793524889  0.6921727146323207  0.5314876558934216  1.0000
  C   C31       1.0  0.7135479906729219  0.6381570789159952  0.3983822771199712  1.0000
  C   C32       1.0  0.7527891452632219  0.697798109129131  0.2979000239838285  1.0000
  C   C33       1.0  0.8107172089545287  0.7523204175927206  0.2977905208978484  1.0000
  C   C34       1.0  0.8598248543147806  0.8080203696823319  0.2013622720947267  1.0000
  C   C35       1.0  0.6542838181114947  0.580902432898  0.40620853147435554  1.0000
  C   C36       1.0  0.8227335513992601  0.4515032950969484  0.6885688146001101  1.0000
  C   C37       1.0  0.7418934513580452  0.40245037959075347  0.7469967556952853  1.0000
  C   C38       1.0  0.6734281000720086  0.2966835036774071  0.7395955988300071  1.0000
  C   C39       1.0  0.7271466402349632  0.19054795989966777  0.770614230432635  1.0000
  C   C40       1.0  0.7382090206665312  0.16913256284787792  0.8648334231693012  1.0000
  C   C41       1.0  0.8179645757470128  0.0811633824512015  0.8939929717083998  1.0000
  C   C42       1.0  0.6243721094971875  0.321807752334486  0.6679018837757268  1.0000
  N   N1        1.0  0.04083071306366291  0.5209668465497543  0.5884099801583458  1.0000
  N   N2        1.0  0.15386752128708275  0.605137212961978  0.42259015104777825  1.0000
  N   N3        1.0  0.5090565939441305  0.005832063036677902  0.5196536407268864  1.0000
  N   N4        1.0  0.3852020606820972  0.10458171635230681  0.6502816753086335  1.0000
  N   N5        1.0  0.5613915985211622  0.4487757109436926  0.033082624554424477  1.0000
  N   N6        1.0  0.6693297805840647  0.38410492680493036  0.14615567036454985  1.0000
  N   N7        1.0  0.030865225379926545  0.8695347232764377  0.5207553891132051  1.0000
  N   N8        1.0  0.13277352136559276  0.7186863193760614  0.6245870482317669  1.0000
  N   N9        1.0  0.50124104899448  0.7953490273362078  0.581783903420927  1.0000
  N   N10       1.0  0.6506849360036995  0.6945801667918303  0.464498126286749  1.0000
  N   N11       1.0  0.8706393866634983  0.4439637868294995  0.5920785297084377  1.0000
  N   N12       1.0  0.7407808643425113  0.35103807675037757  0.7020439365960414  1.0000
  O   O1        1.0  0.011506900800441162  0.9411068052117456  0.995743252638263  1.0000
  O   O2        1.0  0.03335830170993862  0.7488742288363781  0.42142991174726063  1.0000
  O   O3        1.0  0.14412323648234363  0.762461581279794  0.11780392236435942  1.0000
  O   O4        1.0  0.1743603723552382  0.8970998409464245  0.08799053805633869  1.0000
  O   O5        1.0  0.4079207435730723  0.594078039346698  0.3476573905974122  1.0000
  O   O6        1.0  0.333642693781414  0.48018932049054547  0.41426942629320956  1.0000
  O   O7        1.0  0.5174276507381779  0.1089050441300827  0.6690449184805446  1.0000
  O   O8        1.0  0.10692975322595538  0.07077140205638702  0.7925164805085316  1.0000
  O   O9        1.0  0.14554642197000334  0.08082445171849881  0.9037414114595207  1.0000
  O   O10       1.0  0.3501533510767416  0.3216655967716164  0.6730214445312298  1.0000
  O   O11       1.0  0.40679091373873183  0.2772856829542932  0.5400685187981934  1.0000
  O   O12       1.0  0.7513343859490789  0.49515819635301017  0.06257870145990556  1.0000
  O   O13       1.0  0.8416693882486826  0.10312758088941369  0.09555411471133375  1.0000
  O   O14       1.0  0.9946106708071198  0.08404850970462968  0.09292661260700917  1.0000
  O   O15       1.0  0.6960580028459091  0.3275538627466119  0.3678764686386272  1.0000
  O   O16       1.0  0.5613207948601442  0.3503672730283327  0.33369051800046623  1.0000
  O   O17       1.0  0.008800169838821106  0.6492830903919256  0.6970489052983238  1.0000
  O   O18       1.0  0.0860151675337022  0.8647998400353885  0.8195103075925515  1.0000
  O   O19       1.0  0.0970554661655073  0.7428374907903998  0.9505780538472877  1.0000
  O   O20       1.0  0.3432532782851183  0.5201186471542061  0.6702623300657109  1.0000
  O   O21       1.0  0.33249628553405597  0.6342166328434189  0.5346854321050003  1.0000
  O   O22       1.0  0.7613581557310098  0.6458067969125524  0.5415844285285659  1.0000
  O   O23       1.0  0.8184888706960508  0.8970705618669327  0.18113269461666462  1.0000
  O   O24       1.0  0.9386392722694694  0.7624534679295252  0.14857254893793476  1.0000
  O   O25       1.0  0.6977427345296403  0.49405457922194523  0.4134983290235398  1.0000
  O   O26       1.0  0.5642776431931084  0.6270546585270224  0.4068418777326812  1.0000
  O   O27       1.0  0.6864174832186482  0.40950004907889337  0.8274088589499086  1.0000
  O   O28       1.0  0.9048978099693558  0.06253944540259229  0.8329724472268221  1.0000
  O   O29       1.0  0.7934805660531339  0.03465735634518549  0.9799845883607006  1.0000
  O   O30       1.0  0.5299433489079063  0.340887900706349  0.6997251878224872  1.0000
  O   O31       1.0  0.6814391563744878  0.3226750679199881  0.5834298280641973  1.0000
  O   O32       1.0  0.49814941571921884  0.43702626153675067  0.49974645239707643  1.0000
