data_image0
_chemical_formula_structural       Zn2H26C32N4O8
_chemical_formula_sum              "Zn2 H26 C32 N4 O8"
_cell_length_a       11.285707318585052
_cell_length_b       14.065573854114062
_cell_length_c       15.347376959715218
_cell_angle_alpha    91.57123620131026
_cell_angle_beta     91.40986869114153
_cell_angle_gamma    108.79692992612406

_space_group_name_H-M_alt    "P 1"
_space_group_IT_number       1

loop_
  _space_group_symop_operation_xyz
  'x, y, z'

loop_
  _atom_site_type_symbol
  _atom_site_label
  _atom_site_symmetry_multiplicity
  _atom_site_fract_x
  _atom_site_fract_y
  _atom_site_fract_z
  _atom_site_occupancy
  Zn  Zn1       1.0  0.47449685989369067  0.38963862613758227  0.505323353835486  1.0000
  Zn  Zn2       1.0  0.5101645122240015  0.6031107427633486  0.5034581428114038  1.0000
  H   H1        1.0  0.12225912162827508  0.5804447689792764  0.5100133735647816  1.0000
  H   H2        1.0  0.39954827831922285  0.6077719570890421  0.23090961901577606  1.0000
  H   H3        1.0  0.5489328071761505  0.6576957384778196  0.9533542029347686  1.0000
  H   H4        1.0  0.567290350902816  0.3822758282429035  0.05625566485307591  1.0000
  H   H5        1.0  0.6913319590406672  0.9934379260772982  0.555573646773162  1.0000
  H   H6        1.0  0.3807594785915285  0.0217775506988005  0.38363985681667157  1.0000
  H   H7        1.0  0.33533683698358624  0.7005081601237816  0.4573145126488356  1.0000
  H   H8        1.0  0.5807722327876093  0.2756734780117397  0.6142120060516378  1.0000
  H   H9        1.0  0.5074660057182355  0.7148617229719462  0.7450796809937259  1.0000
  H   H10       1.0  0.6121246457743438  0.7543371671656087  0.8382631003574162  1.0000
  H   H11       1.0  0.656347161901202  0.7016203531884598  0.7420365502422186  1.0000
  H   H12       1.0  0.8635539762431675  0.40793321294943036  0.5042511695637231  1.0000
  H   H13       1.0  0.6589858402132336  0.3979988411205824  0.2833428288633328  1.0000
  H   H14       1.0  0.5304826775804584  0.29218235924435015  0.25210758637499  1.0000
  H   H15       1.0  0.654920107282834  0.3368902110685922  0.1793800976641222  1.0000
  H   H16       1.0  0.7345840066785101  0.7454637310796739  0.5475869076491051  1.0000
  H   H17       1.0  0.8011713623686418  0.8739708629761651  0.574534536882787  1.0000
  H   H18       1.0  0.32234780805107016  0.15397560965938337  0.3178198945746757  1.0000
  H   H19       1.0  0.3748882480262594  0.27776835775060243  0.35903588610955955  1.0000
  H   H20       1.0  0.3092988105411579  0.8703140253483923  0.45492457021819643  1.0000
  H   H21       1.0  0.600922526052038  0.10445020198930878  0.6249501808385248  1.0000
  H   H22       1.0  0.054186499782346666  0.34961844770696604  0.5026238001342023  1.0000
  H   H23       1.0  0.9341182100884993  0.6388315926653332  0.5141177624016039  1.0000
  H   H24       1.0  0.40473508979022915  0.3349842154790109  0.9340625950855428  1.0000
  H   H25       1.0  0.3869775997046147  0.6088899792816701  0.0684078614014254  1.0000
  H   H26       1.0  0.41878951372360973  0.34280222060147025  0.7722159185953218  1.0000
  C   C1        1.0  0.4962467733181839  0.49960944753581055  0.6742289760471536  1.0000
  C   C2        1.0  0.5385522005270075  0.21661721886726326  0.5645775523610368  1.0000
  C   C3        1.0  0.3981254155386154  0.8622261566448869  0.4762018137561554  1.0000
  C   C4        1.0  0.5499983942972619  0.12201893104477787  0.5699082926531603  1.0000
  C   C5        1.0  0.5000797526031064  0.9462464788431288  0.5054440577026682  1.0000
  C   C6        1.0  0.49099219309051984  0.04872178478880328  0.504162612771978  1.0000
  C   C7        1.0  0.7383421413110937  0.5397484031104014  0.5066729614349228  1.0000
  C   C8        1.0  0.2490930881585881  0.44992795956767384  0.5017801200213299  1.0000
  C   C9        1.0  0.8754894469951748  0.5600053710685059  0.5102062098145765  1.0000
  C   C10       1.0  0.11157346979012321  0.4287330528323565  0.5037581811885518  1.0000
  C   C11       1.0  0.9269117820188625  0.4855048859695542  0.5077889085839331  1.0000
  C   C12       1.0  0.4881421976957369  0.495649362581453  0.33221412132321154  1.0000
  C   C13       1.0  0.05945352460931733  0.50269414884972  0.5077148247866035  1.0000
  C   C14       1.0  0.44000249000437464  0.40723132966985526  0.9032461337750776  1.0000
  C   C15       1.0  0.4286780804928441  0.5587557307640835  0.10095550092461988  1.0000
  C   C16       1.0  0.4474192333673128  0.41144084222327826  0.8131957570777361  1.0000
  C   C17       1.0  0.43462691285319  0.5576089616723789  0.19148943397556203  1.0000
  C   C18       1.0  0.49106695653183857  0.5034792517059328  0.7717569686797816  1.0000
  C   C19       1.0  0.48553508915401966  0.49224753767975205  0.23457033913887673  1.0000
  C   C20       1.0  0.52734718034894  0.5944888976565252  0.8225765518121477  1.0000
  C   C21       1.0  0.5337245479139696  0.42723412913654346  0.18580735100977114  1.0000
  C   C22       1.0  0.5180782646102813  0.5882157713181185  0.9132214416122509  1.0000
  C   C23       1.0  0.47611052326659115  0.49646444795079947  0.9549320046479226  1.0000
  C   C24       1.0  0.5266863482284591  0.4297101567020717  0.09478658377675941  1.0000
  C   C25       1.0  0.578769110985206  0.6970013551101103  0.7852697780534328  1.0000
  C   C26       1.0  0.5980724477172501  0.3602632223330388  0.22726940763003262  1.0000
  C   C27       1.0  0.4752147837903209  0.49434894529037615  0.051064248772831916  1.0000
  C   C28       1.0  0.6095004487315165  0.9303243843957458  0.5342310469211995  1.0000
  C   C29       1.0  0.42462526648225923  0.07533196889781378  0.4369624430401587  1.0000
  C   C30       1.0  0.6178127991973524  0.8319210000359544  0.5329397077414697  1.0000
  C   C31       1.0  0.4182023131261658  0.1740066931120552  0.4347366521235685  1.0000
  C   C32       1.0  0.4116912195591097  0.7682010147398582  0.47771975825934726  1.0000
  N   N1        1.0  0.5180016414071105  0.7519826718187019  0.5052116674536508  1.0000
  N   N2        1.0  0.4744778454200755  0.24306718880757217  0.4992403673164745  1.0000
  N   N3        1.0  0.7239877736785162  0.8145651726079916  0.5596294545561946  1.0000
  N   N4        1.0  0.3554549135980594  0.20242316887716774  0.3693319752256627  1.0000
  O   O1        1.0  0.4926435219964914  0.41591339868244853  0.6376928082462214  1.0000
  O   O2        1.0  0.5144185027587439  0.5814546321911676  0.3704306039852626  1.0000
  O   O3        1.0  0.5024772279981845  0.5792174285123435  0.6343399717625148  1.0000
  O   O4        1.0  0.46258646166426587  0.41209651947593756  0.37059227987341364  1.0000
  O   O5        1.0  0.6674763653103212  0.4491452960711014  0.49761243568737973  1.0000
  O   O6        1.0  0.31754501390934564  0.5410014695695438  0.4938835214183399  1.0000
  O   O7        1.0  0.7007048999657002  0.6166804585053568  0.5122060303558698  1.0000
  O   O8        1.0  0.28753303368121397  0.3743071760201316  0.5080944274114572  1.0000
