data_image0
_chemical_formula_structural       Mn3H30C48N12O12
_chemical_formula_sum              "Mn3 H30 C48 N12 O12"
_cell_length_a       10.16324787666977
_cell_length_b       10.925335635180735
_cell_length_c       11.37767120628492
_cell_angle_alpha    107.1100175752123
_cell_angle_beta     93.96054123435388
_cell_angle_gamma    95.02390042407299

_space_group_name_H-M_alt    "P 1"
_space_group_IT_number       1

loop_
  _space_group_symop_operation_xyz
  'x, y, z'

loop_
  _atom_site_type_symbol
  _atom_site_label
  _atom_site_symmetry_multiplicity
  _atom_site_fract_x
  _atom_site_fract_y
  _atom_site_fract_z
  _atom_site_occupancy
  Mn  Mn1       1.0  0.49999954573970473  0.500000469751562  0.5000007465202144  1.0000
  Mn  Mn2       1.0  0.37375553448546833  0.3071441140681515  0.18896390502692378  1.0000
  Mn  Mn3       1.0  0.6262436158207906  0.6928491011711343  0.8110346063383458  1.0000
  H   H1        1.0  0.483166158730846  0.9555689172968581  0.636132468489883  1.0000
  H   H2        1.0  0.5168360757049157  0.044425230389265394  0.363864746907467  1.0000
  H   H3        1.0  0.5432908357788904  0.16076269499910725  0.5844915919824842  1.0000
  H   H4        1.0  0.4567152355593436  0.8392304534540003  0.41550385130373246  1.0000
  H   H5        1.0  0.4616900648061916  0.39203704427138314  0.9444978615053186  1.0000
  H   H6        1.0  0.5383065134747512  0.6079590070522868  0.05549509732905726  1.0000
  H   H7        1.0  0.9965500045371488  0.8973518900411717  0.7399628817092674  1.0000
  H   H8        1.0  0.0034540133253599986  0.1026414207238844  0.26004653118710047  1.0000
  H   H9        1.0  0.12254043269967242  0.846706340950931  0.551107112480139  1.0000
  H   H10       1.0  0.8774709517657374  0.1532907968855781  0.44890384022748003  1.0000
  H   H11       1.0  0.1012818705166652  0.3568484232846457  0.7474457482444236  1.0000
  H   H12       1.0  0.8986997736312291  0.6431467825385083  0.2525512482342477  1.0000
  H   H13       1.0  0.23097563598589232  0.404531905110936  0.5846673480522284  1.0000
  H   H14       1.0  0.7690081974181453  0.5954652492174617  0.415332964193368  1.0000
  H   H15       1.0  0.2520601469235899  0.0008767609441235996  0.4063444024187604  1.0000
  H   H16       1.0  0.7479464148450389  0.999121380157426  0.5936682571194538  1.0000
  H   H17       1.0  0.314647293444601  0.9918019521873023  0.05142321296002451  1.0000
  H   H18       1.0  0.6853652496231746  0.008196039395663499  0.9485783818722879  1.0000
  H   H19       1.0  0.12892862377618292  0.41618629460299433  0.38571950629543744  1.0000
  H   H20       1.0  0.8710766564340063  0.5838164712318344  0.6142758697663524  1.0000
  H   H21       1.0  0.8985626935738722  0.4157441623514373  0.45354313459402806  1.0000
  H   H22       1.0  0.1014419938470468  0.5842538036448134  0.5464526504297851  1.0000
  H   H23       1.0  0.7237027627493476  0.27117876892217657  0.0752651259403905  1.0000
  H   H24       1.0  0.27629725828597884  0.7288374993906644  0.9247318206024886  1.0000
  H   H25       1.0  0.38763076960438525  0.8727909750675237  0.8355356357212642  1.0000
  H   H26       1.0  0.6123767279811433  0.1272060728516777  0.1644653619964913  1.0000
  H   H27       1.0  0.1859633031029873  0.2622125793669312  0.9353525764698318  1.0000
  H   H28       1.0  0.8140385332097823  0.7377863818303041  0.06464504594565297  1.0000
  H   H29       1.0  0.944974589474768  0.214330771421551  0.9044060192798256  1.0000
  H   H30       1.0  0.055024838771295534  0.7856806970527048  0.09559133622508402  1.0000
  C   C1        1.0  0.42914730983015664  0.18402174361809634  0.9059890338374217  1.0000
  C   C2        1.0  0.5708514679428236  0.815976236929835  0.09400547824247242  1.0000
  C   C3        1.0  0.4325003952926495  0.06203759415515719  0.8177943854289111  1.0000
  C   C4        1.0  0.5675010863701502  0.9379584852108281  0.18220330611164565  1.0000
  C   C5        1.0  0.4773866269480108  0.0497242677700243  0.7018741594458362  1.0000
  C   C6        1.0  0.5226137524098035  0.9502708518040773  0.29812319610230975  1.0000
  C   C7        1.0  0.511989351250854  0.16347292194220134  0.6747413295107876  1.0000
  C   C8        1.0  0.4880137524685466  0.8365202578879832  0.32525568045522135  1.0000
  C   C9        1.0  0.5049899885146303  0.286066935270533  0.7604756331758934  1.0000
  C   C10       1.0  0.49501250453219825  0.7139290918609617  0.23951771734169103  1.0000
  C   C11       1.0  0.4663247397014842  0.29767379615646666  0.8785400094385665  1.0000
  C   C12       1.0  0.533674175053946  0.7023251096534081  0.12145124831040004  1.0000
  C   C13       1.0  0.5296256137783432  0.40530932585024004  0.7231423397776949  1.0000
  C   C14       1.0  0.4703779559837642  0.5946877092755967  0.2768557530358179  1.0000
  C   C15       1.0  0.15461751148350797  0.05103158884598  0.5768485032358086  1.0000
  C   C16       1.0  0.8453790630659341  0.948973266251343  0.4231582831140201  1.0000
  C   C17       1.0  0.1077428686485504  0.14979938158809597  0.6714247037089718  1.0000
  C   C18       1.0  0.8922480727473285  0.8501997203663905  0.3285810132276338  1.0000
  C   C19       1.0  0.04309413327859352  0.9701001434669224  0.7037377634987861  1.0000
  C   C20       1.0  0.9569055637554413  0.029897958375379098  0.2962682702507706  1.0000
  C   C21       1.0  0.13514461179631354  0.27917951381976275  0.6755285329901781  1.0000
  C   C22       1.0  0.8648410766856857  0.720816668620671  0.3244716391046153  1.0000
  C   C23       1.0  0.2064150184572426  0.3055638767001838  0.5844715028396976  1.0000
  C   C24       1.0  0.7935696688766073  0.6944323386937511  0.415531247756661  1.0000
  C   C25       1.0  0.2475879855649197  0.20635174180784324  0.48780626842193436  1.0000
  C   C26       1.0  0.7524051655588837  0.793649270089915  0.5121992392387965  1.0000
  C   C27       1.0  0.2218733261580752  0.07635802879318017  0.4825789844328057  1.0000
  C   C28       1.0  0.7781286919966135  0.9236429564568096  0.517427992013445  1.0000
  C   C29       1.0  0.3533550654735933  0.038060284626943996  0.986583300471885  1.0000
  C   C30       1.0  0.6466513400428369  0.9619357842193923  0.013415598732059693  1.0000
  C   C31       1.0  0.30657658487509565  0.2394393630659764  0.38412189605399044  1.0000
  C   C32       1.0  0.6934173139037227  0.7605597267924223  0.6158840167242231  1.0000
  C   C33       1.0  0.041160033773991196  0.38454503445441895  0.31919983617176934  1.0000
  C   C34       1.0  0.9588427448600643  0.6154616180531393  0.6807981894173096  1.0000
  C   C35       1.0  0.9135495511419763  0.3836275698509298  0.3557410768679219  1.0000
  C   C36       1.0  0.0864528779600562  0.6163761911848836  0.6442561365855397  1.0000
  C   C37       1.0  0.7998237709379624  0.34179243730665826  0.2688014428454863  1.0000
  C   C38       1.0  0.2001773856394991  0.6582171147367006  0.7311972643181477  1.0000
  C   C39       1.0  0.8120688510918797  0.299197628060341  0.14128008592375346  1.0000
  C   C40       1.0  0.1879291830009961  0.7008186772380398  0.8587193738401593  1.0000
  C   C41       1.0  0.664417097244325  0.3447635131935485  0.31060608752777336  1.0000
  C   C42       1.0  0.33558658391051205  0.6552344953966976  0.6893931572583083  1.0000
  C   C43       1.0  0.054305505653744  0.3423088961058908  0.19225708059828858  1.0000
  C   C44       1.0  0.9456955292950938  0.6576997017540477  0.8077422371141764  1.0000
  C   C45       1.0  0.9400182403661502  0.2999051786228577  0.1049269671167821  1.0000
  C   C46       1.0  0.059980419753124174  0.700108250452736  0.8950735083134516  1.0000
  C   C47       1.0  0.1240035616612758  0.2854202923539617  0.010757121422919569  1.0000
  C   C48       1.0  0.8759959151757567  0.7145834711374519  0.9892390149282234  1.0000
  N   N1        1.0  0.03734119449224241  0.09585881876324008  0.748092267034707  1.0000
  N   N2        1.0  0.9626505150304325  0.9041383225899082  0.25191032997658164  1.0000
  N   N3        1.0  0.11306257916115212  0.9380549279780014  0.6025403859995748  1.0000
  N   N4        1.0  0.8869442412185435  0.06194509256891219  0.3974684086588809  1.0000
  N   N5        1.0  0.3800513027996999  0.1651353035802714  0.011489978303003984  1.0000
  N   N6        1.0  0.619950067470363  0.8348598023213042  0.9885065612649767  1.0000
  N   N7        1.0  0.3828159349968986  0.9725500485320425  0.8721861765045702  1.0000
  N   N8        1.0  0.6171902374981785  0.027444092666463894  0.1278121812756225  1.0000
  N   N9        1.0  0.1676456512992601  0.33145276016713854  0.12984827886969438  1.0000
  N   N10       1.0  0.8323556754977803  0.6685500410767915  0.8701485985913564  1.0000
  N   N11       1.0  0.9894969471913911  0.2657273636106794  0.9905187350729034  1.0000
  N   N12       1.0  0.010502719193972599  0.7342860228709114  0.009478280595061436  1.0000
  O   O1        1.0  0.5281316691432281  0.3898273020864663  0.6072236081478904  1.0000
  O   O2        1.0  0.471870035305031  0.6101707242083307  0.3927763873378253  1.0000
  O   O3        1.0  0.5460364454165544  0.5133055402342563  0.8086805780671397  1.0000
  O   O4        1.0  0.453965005538585  0.4866905969746894  0.19132240103763104  1.0000
  O   O5        1.0  0.3610903557756727  0.35593098210927104  0.39608192086983246  1.0000
  O   O6        1.0  0.6389038450872421  0.644062291852137  0.6039197891355599  1.0000
  O   O7        1.0  0.2941097682542305  0.1568148332587427  0.277458865732271  1.0000
  O   O8        1.0  0.7058875693040607  0.8431880708777443  0.7225456819529441  1.0000
  O   O9        1.0  0.570614451821882  0.266936818192569  0.23788006211337628  1.0000
  O   O10       1.0  0.4293913174322554  0.7330621461575361  0.7621195839456618  1.0000
  O   O11       1.0  0.6499159918241659  0.42627371896578126  0.4138308083300401  1.0000
  O   O12       1.0  0.35008572797792686  0.5737242784075391  0.586166543373565  1.0000
