data_image0
_chemical_formula_structural       Al4H16C32Cl4O20
_chemical_formula_sum              "Al4 H16 C32 Cl4 O20"
_cell_length_a       6.645992332265034
_cell_length_b       13.750701814621646
_cell_length_c       16.187266921027163
_cell_angle_alpha    90.01264921444132
_cell_angle_beta     90.47478687661436
_cell_angle_gamma    90.52136944141112

_space_group_name_H-M_alt    "P 1"
_space_group_IT_number       1

loop_
  _space_group_symop_operation_xyz
  'x, y, z'

loop_
  _atom_site_type_symbol
  _atom_site_label
  _atom_site_symmetry_multiplicity
  _atom_site_fract_x
  _atom_site_fract_y
  _atom_site_fract_z
  _atom_site_occupancy
  Al  Al1       1.0  0.9973092289763841  0.0002151156835879013  0.5028688124641079  1.0000
  Al  Al2       1.0  0.4967349037548203  0.0032090959317941  0.5004835526227609  1.0000
  Al  Al3       1.0  0.004961658624665701  0.5037390516270224  0.9988499272501057  1.0000
  Al  Al4       1.0  0.5047029654290326  0.5005896574195179  0.9995212927973328  1.0000
  H   H1        1.0  0.25142848182790084  0.8797022821202134  0.5304146934712007  1.0000
  H   H2        1.0  0.7555063594461159  0.12082323712913731  0.467697894082228  1.0000
  H   H3        1.0  0.26212636387849386  0.6233124541457117  0.03144557198394439  1.0000
  H   H4        1.0  0.7588544656465857  0.38199405988312674  0.035099036674502294  1.0000
  H   H5        1.0  0.03833713096188521  0.738400817430005  0.8392636600429383  1.0000
  H   H6        1.0  0.4523581342591783  0.6295993397077808  0.769771418746167  1.0000
  H   H7        1.0  0.0276838090916129  0.8536687295915827  0.7188713542507656  1.0000
  H   H8        1.0  0.5500315392043474  0.35796214418962086  0.23049767385406025  1.0000
  H   H9        1.0  0.9625736994152518  0.26080478515307703  0.1510212922352707  1.0000
  H   H10       1.0  0.5366902314239111  0.23897439652366617  0.3472184550954935  1.0000
  H   H11       1.0  0.9434762372686266  0.3477734464856681  0.7785528946076283  1.0000
  H   H12       1.0  0.5382414809316103  0.2614343265447303  0.8531855127361323  1.0000
  H   H13       1.0  0.9538257068202256  0.22684444442155186  0.6623515589129028  1.0000
  H   H14       1.0  0.05463932749318451  0.6559457374586729  0.22539006572070966  1.0000
  H   H15       1.0  0.46924166453730004  0.7490758955698098  0.14404532421121263  1.0000
  H   H16       1.0  0.038857899029793  0.7744515430750171  0.3428255162443179  1.0000
  C   C1        1.0  0.747774291621809  0.8906331791952058  0.3855956548735193  1.0000
  C   C2        1.0  0.7382245449858902  0.8811749162708794  0.6098652016359409  1.0000
  C   C3        1.0  0.24663555499348888  0.11275351716991372  0.6172179130677549  1.0000
  C   C4        1.0  0.2483678722832821  0.11738739016373503  0.3890067474739921  1.0000
  C   C5        1.0  0.7660506648292867  0.6232773222061356  0.10850423777224447  1.0000
  C   C6        1.0  0.7442007303884282  0.6113967951918653  0.8845048642119622  1.0000
  C   C7        1.0  0.2408454644439217  0.3847947915497798  0.8904000669374666  1.0000
  C   C8        1.0  0.26159573113201867  0.3872994085255641  0.1134690308342812  1.0000
  C   C9        1.0  0.735470922681003  0.8072422471053077  0.6774177573617876  1.0000
  C   C10       1.0  0.7444720914131865  0.6785806315387717  0.812111270254654  1.0000
  C   C11       1.0  0.573995613879788  0.7423012835795221  0.6913955728369459  1.0000
  C   C12       1.0  0.9086974393502345  0.7405923629363116  0.7977256238892423  1.0000
  C   C13       1.0  0.5778677615031212  0.6792297881593968  0.7587210577607664  1.0000
  C   C14       1.0  0.902572372341915  0.8041462930515595  0.7310895594308491  1.0000
  C   C15       1.0  0.24305185479785507  0.18434308631352544  0.31619290536876576  1.0000
  C   C16       1.0  0.25554197460984795  0.31766081442016525  0.184340869727464  1.0000
  C   C17       1.0  0.0811157904399025  0.1903582104624348  0.2596198510841035  1.0000
  C   C18       1.0  0.41885847039050356  0.3112390925034064  0.239292059745587  1.0000
  C   C19       1.0  0.08757750251893269  0.2570812753668648  0.1947370104855111  1.0000
  C   C20       1.0  0.4109713780765317  0.24533326229529004  0.304104659521542  1.0000
  C   C21       1.0  0.25107142119082226  0.1781674046415205  0.6911893777206615  1.0000
  C   C22       1.0  0.24247442021037807  0.31312057930913545  0.8213430801965558  1.0000
  C   C23       1.0  0.4149107782306131  0.1864902743723462  0.7467149019702574  1.0000
  C   C24       1.0  0.07552572696776139  0.30313092419091  0.7684938602172409  1.0000
  C   C25       1.0  0.4111174603680893  0.2544314679994813  0.8106550336884695  1.0000
  C   C26       1.0  0.0816021983012973  0.23638878140064895  0.7042210445940497  1.0000
  C   C27       1.0  0.7460298759208188  0.826379182205855  0.3107899366031859  1.0000
  C   C28       1.0  0.7609771497607767  0.6939827350967818  0.17843686413812068  1.0000
  C   C29       1.0  0.5863161704860927  0.8202198711786863  0.2530711317909605  1.0000
  C   C30       1.0  0.923497255591258  0.7016860318541093  0.2338408545616844  1.0000
  C   C31       1.0  0.593505310509002  0.7536298900207612  0.18813486458098078  1.0000
  C   C32       1.0  0.9143894753035867  0.7670493817893772  0.2990251619954307  1.0000
  Cl  Cl1       1.0  0.3682677764135676  0.7319528728133663  0.6250086505313135  1.0000
  Cl  Cl2       1.0  0.8731667835448177  0.11397949009684538  0.2639809204631547  1.0000
  Cl  Cl3       1.0  0.6214864150401168  0.11122567210960453  0.7417348491202773  1.0000
  Cl  Cl4       1.0  0.3804174369670151  0.896073389507315  0.25630039370964397  1.0000
  O   O1        1.0  0.920527967180881  0.9193171378356058  0.41047445614003647  1.0000
  O   O2        1.0  0.5720858350260302  0.9191335522824391  0.5892921286783022  1.0000
  O   O3        1.0  0.41102935789538014  0.09885742110152052  0.579655626052741  1.0000
  O   O4        1.0  0.08428435997550571  0.0984053884320204  0.4255234989242709  1.0000
  O   O5        1.0  0.0741497579472963  0.07965466255210879  0.5960320181338687  1.0000
  O   O6        1.0  0.4209605164319257  0.08654727900353981  0.4106140638595335  1.0000
  O   O7        1.0  0.5807644429668243  0.908079520679465  0.41989649976900256  1.0000
  O   O8        1.0  0.9090603511006066  0.902292017004349  0.5792351371488067  1.0000
  O   O9        1.0  0.24716011244972688  0.9418333166350481  0.5019532530312529  1.0000
  O   O10       1.0  0.7491900602240024  0.0619466329484979  0.5005683353547212  1.0000
  O   O11       1.0  0.9360057984134826  0.5862048593549999  0.09144652961975197  1.0000
  O   O12       1.0  0.5773698827524996  0.5709854387408129  0.9026216740250275  1.0000
  O   O13       1.0  0.4053184132736405  0.3990460129868724  0.9297763581132443  1.0000
  O   O14       1.0  0.09647154177565652  0.4033598547599625  0.0753887858304694  1.0000
  O   O15       1.0  0.0747505006552629  0.4261094867126901  0.9059086711128541  1.0000
  O   O16       1.0  0.4324806755034061  0.4245633880097728  0.09613021025239017  1.0000
  O   O17       1.0  0.6004909884616866  0.6054553061333439  0.07066697992827639  1.0000
  O   O18       1.0  0.9096576738658156  0.6003027652763393  0.9234135475405336  1.0000
  O   O19       1.0  0.2571533730129971  0.5629841261847093  0.00048153632904049994  1.0000
  O   O20       1.0  0.7550843856201083  0.4416823288698239  0.0033447425255274995  1.0000
