data_image0
_chemical_formula_structural       Sm4Ag4H32C56N8O32
_chemical_formula_sum              "Sm4 Ag4 H32 C56 N8 O32"
_cell_length_a       9.593204856
_cell_length_b       12.0709457961417
_cell_length_c       16.899
_cell_angle_alpha    96.29744553054283
_cell_angle_beta     90.0
_cell_angle_gamma    113.4140540451371

_space_group_name_H-M_alt    "P 1"
_space_group_IT_number       1

loop_
  _space_group_symop_operation_xyz
  'x, y, z'

loop_
  _atom_site_type_symbol
  _atom_site_label
  _atom_site_symmetry_multiplicity
  _atom_site_fract_x
  _atom_site_fract_y
  _atom_site_fract_z
  _atom_site_occupancy
  Sm  Sm1       1.0  0.8045185575019715  0.0106159804927657  0.9332118004830574  1.0000
  Sm  Sm2       1.0  0.7939311156473536  0.9894084726340323  0.5667671555176526  1.0000
  Sm  Sm3       1.0  0.19547994485898815  0.9893866496334526  0.06678852394147579  1.0000
  Sm  Sm4       1.0  0.2060754043980495  0.0105914296171079  0.4332329551737785  1.0000
  Ag  Ag1       1.0  0.7736933249338734  0.3187021912472616  0.0857365205483873  1.0000
  Ag  Ag2       1.0  0.4550625430418054  0.6813413570050528  0.4142800283945078  1.0000
  Ag  Ag3       1.0  0.2263072622361051  0.6813004388789565  0.91426262037416  1.0000
  Ag  Ag4       1.0  0.5449297826417023  0.3186530894959461  0.585719063079722  1.0000
  H   H1        1.0  0.5294253620934128  0.591188723006276  0.1351482645695654  1.0000
  H   H2        1.0  0.9382144569864437  0.408715703617311  0.36491596733315385  1.0000
  H   H3        1.0  0.4705730849167367  0.40880754207810105  0.8648491941404259  1.0000
  H   H4        1.0  0.061786396384363194  0.5912832893421438  0.6350876226198565  1.0000
  H   H5        1.0  0.5245130086440497  0.9073112537260855  0.1641657111800114  1.0000
  H   H6        1.0  0.6170654302552238  0.09258407998058972  0.33572679224257473  1.0000
  H   H7        1.0  0.475487711626343  0.09268955781674751  0.8358332872537985  1.0000
  H   H8        1.0  0.3829395927336209  0.9074149129788651  0.6642732472044841  1.0000
  H   H9        1.0  0.8976575079333743  0.8117765222081063  0.22193457870571356  1.0000
  H   H10       1.0  0.08578703749846991  0.1880060593288775  0.2780236510401295  1.0000
  H   H11       1.0  0.1023411275279997  0.18822428933472676  0.7780667867320616  1.0000
  H   H12       1.0  0.9142162222329945  0.8119956615056481  0.7219718681321085  1.0000
  H   H13       1.0  0.7429980060667063  0.6993171444450041  0.3285827124035805  1.0000
  H   H14       1.0  0.043749286502539106  0.3006036494290143  0.1714224432966631  1.0000
  H   H15       1.0  0.2569997200905689  0.3006818485144436  0.6714185105454574  1.0000
  H   H16       1.0  0.9562502582629336  0.6993989806971967  0.8285761058748944  1.0000
  H   H17       1.0  0.3874543957814325  0.7978016182086805  0.2766180724426661  1.0000
  H   H18       1.0  0.5897659788162386  0.2024292441319844  0.22341907034995498  1.0000
  H   H19       1.0  0.6125433303758427  0.2021973747507673  0.723380191751417  1.0000
  H   H20       1.0  0.41023337749800964  0.7975688395357778  0.776582081354718  1.0000
  H   H21       1.0  0.36958425573147485  0.363589375574918  0.12327799726625699  1.0000
  H   H22       1.0  0.0059320739789753855  0.6363141417569764  0.3767157450241427  1.0000
  H   H23       1.0  0.6304094339081772  0.6364077988011516  0.8767195326880994  1.0000
  H   H24       1.0  0.9940692340438774  0.3636857604941639  0.6232914666791771  1.0000
  H   H25       1.0  0.45643911915082214  0.7163272641090899  0.04795086750522871  1.0000
  H   H26       1.0  0.7401890221409886  0.283656270891619  0.4521740037487021  1.0000
  H   H27       1.0  0.5435632312765364  0.2836726381420576  0.9520474679332265  1.0000
  H   H28       1.0  0.2598083824646551  0.7163399941927651  0.5478270054672407  1.0000
  H   H29       1.0  0.0775422418144345  0.4151816768322191  0.9513868442742035  1.0000
  H   H30       1.0  0.6622582670264309  0.5847891280848145  0.5485873165577999  1.0000
  H   H31       1.0  0.9224577576030841  0.5848218625856916  0.04860940913775381  1.0000
  H   H32       1.0  0.33773314935297805  0.4152034998328062  0.45141399943165783  1.0000
  C   C1        1.0  0.4288625173241059  0.5484465577777584  0.09488651672787539  1.0000
  C   C2        1.0  0.8803932180682567  0.4514806011381012  0.4051593767503476  1.0000
  C   C3        1.0  0.5711362512376823  0.4515524351816964  0.9051105639642285  1.0000
  C   C4        1.0  0.1196045080890187  0.5485183918213536  0.5948448049536522  1.0000
  C   C5        1.0  0.7238769795163195  0.8702812589006186  0.1853983279615647  1.0000
  C   C6        1.0  0.8534782994156843  0.1295549708461436  0.3145280083915337  1.0000
  C   C7        1.0  0.2761222436975146  0.1297186433505289  0.8146023744808559  1.0000
  C   C8        1.0  0.14652763287725892  0.8704458406966893  0.6854703982912937  1.0000
  C   C9        1.0  0.57724077677711  0.86341792521673  0.1999756710396099  1.0000
  C   C10       1.0  0.713756489830935  0.136491047865313  0.2999486721000437  1.0000
  C   C11       1.0  0.4227609858977885  0.1365828863261029  0.8000239191451967  1.0000
  C   C12       1.0  0.2862474907533966  0.8635079450941419  0.7000507755960256  1.0000
  C   C13       1.0  0.21166948279083195  0.3748891434193311  0.0371197389794702  1.0000
  C   C14       1.0  0.8367007926614395  0.6250489269968185  0.462860141569159  1.0000
  C   C15       1.0  0.7883276556139835  0.6251107588318092  0.96287622945502  1.0000
  C   C16       1.0  0.16330006070936784  0.3749500659626364  0.5371440401348335  1.0000
  C   C17       1.0  0.7214376058219258  0.9291551680196832  0.7449138440190808  1.0000
  C   C18       1.0  0.7924744268761188  0.0707865395632368  0.755023715435655  1.0000
  C   C19       1.0  0.27856076343862674  0.0708492806899201  0.255083664139228  1.0000
  C   C20       1.0  0.20752557254139964  0.929216999854667  0.24497076272333373  1.0000
  C   C21       1.0  0.7843169927150556  0.8092395983901355  0.23166361329804633  1.0000
  C   C22       1.0  0.9749896388018942  0.1905729897726545  0.2682833572391487  1.0000
  C   C23       1.0  0.21568268515083136  0.1907612131526975  0.7683377521397361  1.0000
  C   C24       1.0  0.025011536120544478  0.8094287310618711  0.7317133454350679  1.0000
  C   C25       1.0  0.6989295066188604  0.7473904868580236  0.29142383234571406  1.0000
  C   C26       1.0  0.9515517783484598  0.252513030473871  0.20854446465206414  1.0000
  C   C27       1.0  0.30106808643800786  0.2526103246848095  0.7085757578390923  1.0000
  C   C28       1.0  0.0484489419219329  0.747487781068969  0.7914539420307563  1.0000
  C   C29       1.0  0.4997993847556899  0.8015851809350565  0.2619124491294897  1.0000
  C   C30       1.0  0.6982581250747941  0.1984592766089506  0.23807458350822228  1.0000
  C   C31       1.0  0.5001993838060983  0.19841381202439834  0.7380869985665797  1.0000
  C   C32       1.0  0.30174272829601284  0.8015397163505044  0.7619248641878471  1.0000
  C   C33       1.0  0.817133982146487  0.9420234640311237  0.12197866570992488  1.0000
  C   C34       1.0  0.8749858623429959  0.05789823913458749  0.37800525819901043  1.0000
  C   C35       1.0  0.1828707746415361  0.0579791660950946  0.8780234339675842  1.0000
  C   C36       1.0  0.1250200699499474  0.9421025724082456  0.6219925567328275  1.0000
  C   C37       1.0  0.3408784513924275  0.42389360052396796  0.08904499724818038  1.0000
  C   C38       1.0  0.9169172998932993  0.5760281026417431  0.4109519451825605  1.0000
  C   C39       1.0  0.659118820112802  0.5761044831437943  0.9109520121995585  1.0000
  C   C40       1.0  0.08308205642094894  0.423969981026012  0.5890527570280638  1.0000
  C   C41       1.0  0.38905018993056484  0.6191794491312237  0.04692123674629301  1.0000
  C   C42       1.0  0.769884305154122  0.38078680932734704  0.4531502067774156  1.0000
  C   C43       1.0  0.6109506634402422  0.380819543828224  0.9530770274477973  1.0000
  C   C44       1.0  0.23011309945152192  0.61920945575703  0.5468513941895097  1.0000
  C   C45       1.0  0.1774747213210901  0.4519807115681687  0.9922895132800987  1.0000
  C   C46       1.0  0.7254028870095155  0.5479800911402606  0.5076951071326903  1.0000
  C   C47       1.0  0.8225258658488954  0.5480219185580495  0.007707852389479794  1.0000
  C   C48       1.0  0.2745909357305507  0.45201526465242375  0.4923076060918561  1.0000
  C   C49       1.0  0.1132303419327698  0.24091137778802357  0.0258856500796938  1.0000
  C   C50       1.0  0.8723650807182824  0.7590366948367304  0.47414886349718444  1.0000
  C   C51       1.0  0.8867645785626195  0.7590903430465018  0.9741116443455126  1.0000
  C   C52       1.0  0.12763160303448734  0.2409622981227244  0.525855909957805  1.0000
  C   C53       1.0  0.535546353138848  0.0695098940290322  0.012163761720096  1.0000
  C   C54       1.0  0.466151645474632  0.9305018290140908  0.4878242566263111  1.0000
  C   C55       1.0  0.46444517394218826  0.9304954639722568  0.9878397351925015  1.0000
  C   C56       1.0  0.5338616613994703  0.0694907989035229  0.5121817933710772  1.0000
  N   N1        1.0  0.560115637829611  0.7450972532132525  0.30777945199621837  1.0000
  N   N2        1.0  0.815096777488364  0.254935383538772  0.192217897733542  1.0000
  N   N3        1.0  0.4398805912711127  0.2549008304545097  0.6922205162064755  1.0000
  N   N4        1.0  0.18490290037751583  0.7450654280040682  0.8077805089492784  1.0000
  N   N5        1.0  0.26579267545113794  0.5715871220227626  0.9958705715107214  1.0000
  N   N6        1.0  0.6941678907110003  0.428390047936105  0.5041597126250323  1.0000
  N   N7        1.0  0.7342070024147418  0.42841368952007747  0.004127243421109502  1.0000
  N   N8        1.0  0.30582847149013054  0.5716062171482719  0.4958412965909104  1.0000
  O   O1        1.0  0.7141677232507746  0.8784321496190017  0.8072766808029357  1.0000
  O   O2        1.0  0.8361385542822078  0.12151319513068161  0.6926848336689204  1.0000
  O   O3        1.0  0.2858260217396947  0.121571389798909  0.1927266736209177  1.0000
  O   O4        1.0  0.16385903877465324  0.8784876164121515  0.30731653176885476  1.0000
  O   O5        1.0  0.7505471363601474  0.9814630818378234  0.07450014622547492  1.0000
  O   O6        1.0  0.768963516564341  0.0185659177474307  0.42550579479167533  1.0000
  O   O7        1.0  0.24945957213648032  0.0185413668717729  0.9255009124387783  1.0000
  O   O8        1.0  0.2310519304695973  0.9814330752120171  0.5744924694024149  1.0000
  O   O9        1.0  0.6595981083416973  0.1291667032940751  0.9812228370611819  1.0000
  O   O10       1.0  0.5306201308312738  0.8709186723760284  0.5187904798617424  1.0000
  O   O11       1.0  0.3404026672795057  0.8708404732905991  0.01877666008320489  1.0000
  O   O12       1.0  0.4693867885153651  0.1290757741249706  0.48120801986149786  1.0000
  O   O13       1.0  0.9788862312705008  0.2084605759185791  0.9969385600965667  1.0000
  O   O14       1.0  0.770480648966185  0.7915429634993316  0.5030529593074675  1.0000
  O   O15       1.0  0.021108101472421543  0.791542054207639  0.0030588055730120982  1.0000
  O   O16       1.0  0.22952346471856092  0.208454210876738  0.4969564056667153  1.0000
  O   O17       1.0  0.9552973177170473  0.9564666532514324  0.12122676784646559  1.0000
  O   O18       1.0  0.9986917727672094  0.0434332269136988  0.3788163965497232  1.0000
  O   O19       1.0  0.04470489960990421  0.0435350675830932  0.8787776275906367  1.0000
  O   O20       1.0  0.0013241842695848182  0.9565730403792827  0.621179478844347  1.0000
  O   O21       1.0  0.1738044064190731  0.1716360810152793  0.045647482851130385  1.0000
  O   O22       1.0  0.0023441539155726492  0.8282828942753612  0.4545084268631285  1.0000
  O   O23       1.0  0.8261869322107388  0.8283647305275538  0.9543515155826866  1.0000
  O   O24       1.0  0.9976528513888354  0.1717188265591645  0.5454906428150537  1.0000
  O   O25       1.0  0.6772758026298363  0.8758424868829521  0.6749132939740362  1.0000
  O   O26       1.0  0.8017857415138893  0.12412468086731822  0.8250292190779688  1.0000
  O   O27       1.0  0.3227268693491609  0.12416014324326599  0.3250882139524833  1.0000
  O   O28       1.0  0.19821412480321507  0.8758806771339707  0.1749719108306635  1.0000
  O   O29       1.0  0.46679615853459216  0.11438798543977668  0.061037149226422095  1.0000
  O   O30       1.0  0.3525889852715451  0.885551903559758  0.4389026347435419  1.0000
  O   O31       1.0  0.5332022107259604  0.8856164632698196  0.9389621341848623  1.0000
  O   O32       1.0  0.6474125336013188  0.1144379964827849  0.5610961005088483  1.0000
