data_image0
_chemical_formula_structural       Zn6H60C48N24
_chemical_formula_sum              "Zn6 H60 C48 N24"
_cell_length_a       14.75129157912446
_cell_length_b       14.751537087674013
_cell_length_c       14.751543568101962
_cell_angle_alpha    109.47164793594476
_cell_angle_beta     109.47092584090116
_cell_angle_gamma    109.47091174894342

_space_group_name_H-M_alt    "P 1"
_space_group_IT_number       1

loop_
  _space_group_symop_operation_xyz
  'x, y, z'

loop_
  _atom_site_type_symbol
  _atom_site_label
  _atom_site_symmetry_multiplicity
  _atom_site_fract_x
  _atom_site_fract_y
  _atom_site_fract_z
  _atom_site_occupancy
  Zn  Zn1       1.0  0.5000005914427135  0.750000833654589  0.24999872462547768  1.0000
  Zn  Zn2       1.0  0.7499988557457938  0.49999774057352664  0.24999873946917023  1.0000
  Zn  Zn3       1.0  0.2500013916862756  0.5000015634456079  0.7500004365975315  1.0000
  Zn  Zn4       1.0  0.5000007901444191  0.24999894971084308  0.7500007553291468  1.0000
  Zn  Zn5       1.0  0.7499991219287593  0.24999845220897052  0.4999974309218374  1.0000
  Zn  Zn6       1.0  0.2500015406401132  0.7500001739162911  0.500001330017156  1.0000
  H   H1        1.0  0.7630874129411324  0.8846833537822788  0.41888646468898133  1.0000
  H   H2        1.0  0.23691453830451084  0.6557990396432133  0.12159925747911875  1.0000
  H   H3        1.0  0.6557978264921615  0.23691346484907433  0.12159725794255385  1.0000
  H   H4        1.0  0.11531642097308749  0.5341997614800534  0.8784011663824104  1.0000
  H   H5        1.0  0.5342010359610185  0.115316980513228  0.8784021541453984  1.0000
  H   H6        1.0  0.23691393262928537  0.12159886472412046  0.6557988828989708  1.0000
  H   H7        1.0  0.12159549749864595  0.2369149916353024  0.6558006432790009  1.0000
  H   H8        1.0  0.5811153447404962  0.46580029742435175  0.344200910129956  1.0000
  H   H9        1.0  0.4657948637658791  0.581115184842652  0.34419896419850476  1.0000
  H   H10       1.0  0.655797896781884  0.12159787930263385  0.23691428675433474  1.0000
  H   H11       1.0  0.12159556565613631  0.6558006559954067  0.2369157783907241  1.0000
  H   H12       1.0  0.4188841986736093  0.8846830595467171  0.7630852152766678  1.0000
  H   H13       1.0  0.8846812330366446  0.4188857482509506  0.7630847720789546  1.0000
  H   H14       1.0  0.11531618996831133  0.8784006407317622  0.5342002049198131  1.0000
  H   H15       1.0  0.5811156202177016  0.34420089092274253  0.46580056711007967  1.0000
  H   H16       1.0  0.8784046653589711  0.11531727474856271  0.5342029884309271  1.0000
  H   H17       1.0  0.3442007496742292  0.5811139767016941  0.46579632356312584  1.0000
  H   H18       1.0  0.5342011770206411  0.8784026476844888  0.11531746193416839  1.0000
  H   H19       1.0  0.4188845853616173  0.7630858852727302  0.8846833229922312  1.0000
  H   H20       1.0  0.8784047335164613  0.5342029391086669  0.11531812354265712  1.0000
  H   H21       1.0  0.7630870076960218  0.4188863752442558  0.8846836807137209  1.0000
  H   H22       1.0  0.46579449052090643  0.34419835766078694  0.5811149309738398  1.0000
  H   H23       1.0  0.8846804756969888  0.7630837173816121  0.41888577500678575  1.0000
  H   H24       1.0  0.3442004048526  0.4657963574745311  0.5811137674988984  1.0000
  H   H25       1.0  0.4505235338896155  0.925959160352278  0.23619456381199921  1.0000
  H   H26       1.0  0.5494774078171433  0.7856702588544667  0.4754344384748138  1.0000
  H   H27       1.0  0.785668939929593  0.5494751992283398  0.4754343616943189  1.0000
  H   H28       1.0  0.07404314819631719  0.3102358954020661  0.5245651794069844  1.0000
  H   H29       1.0  0.3102352880971395  0.0740417944694372  0.5245673709094805  1.0000
  H   H30       1.0  0.5494775574177383  0.4754350480336101  0.7856702167915587  1.0000
  H   H31       1.0  0.4754361233404083  0.5494766055645075  0.7856702033838803  1.0000
  H   H32       1.0  0.7638076419413052  0.6897640180292157  0.21432895602852411  1.0000
  H   H33       1.0  0.6897665117517988  0.7638067328005109  0.21433007676326807  1.0000
  H   H34       1.0  0.7856685396649467  0.4754343594105422  0.5494755585891797  1.0000
  H   H35       1.0  0.47543587738207554  0.7856701001270141  0.5494767561016333  1.0000
  H   H36       1.0  0.23619354287760788  0.9259595564184053  0.45052554687222124  1.0000
  H   H37       1.0  0.9259599422020556  0.23619337401229515  0.4505236754072259  1.0000
  H   H38       1.0  0.07404318126406653  0.5245652419134006  0.31023554058026553  1.0000
  H   H39       1.0  0.7638070110720531  0.2143294704765211  0.6897641978762793  1.0000
  H   H40       1.0  0.524565694239584  0.07404139840308235  0.31023597272247383  1.0000
  H   H41       1.0  0.21432985465188636  0.7638065913952872  0.6897654307129457  1.0000
  H   H42       1.0  0.3102341634985564  0.5245659090776372  0.074040882379748  1.0000
  H   H43       1.0  0.23619343836868012  0.45052520741216284  0.9259588243258393  1.0000
  H   H44       1.0  0.5245651443743496  0.3102357694061411  0.07404139130058957  1.0000
  H   H45       1.0  0.45052370022621346  0.2361939105004964  0.9259586142310425  1.0000
  H   H46       1.0  0.6897658957610702  0.21432998964249358  0.7638061003772381  1.0000
  H   H47       1.0  0.92595925623246  0.45052359696440913  0.2361933175676615  1.0000
  H   H48       1.0  0.21432986952403613  0.6897650736836243  0.7638062124800913  1.0000
  H   H49       1.0  0.4708213177925414  3.351180098046879e-07  0.37025174868246324  1.0000
  H   H50       1.0  0.5291779946766083  0.8994280114315174  0.5291757467650697  1.0000
  H   H51       1.0  0.899428323138068  0.5291756274136719  0.5291757975708934  1.0000
  H   H52       1.0  1.986434114156499e-06  0.37025217758131407  0.47082413085801283  1.0000
  H   H53       1.0  0.3702537529448193  7.522565113393051e-07  0.4708256196932581  1.0000
  H   H54       1.0  0.5291784388817857  0.529175710239521  0.8994281793708511  1.0000
  H   H55       1.0  0.6297498306413374  0.6297479682223754  0.10057205512439547  1.0000
  H   H56       1.0  2.2625618001707695e-06  0.47082407052908337  0.37025250364264656  1.0000
  H   H57       1.0  0.6297503936314682  0.10057170168928303  0.6297474089122375  1.0000
  H   H58       1.0  0.10057008336706737  0.6297487321604011  0.6297485887870807  1.0000
  H   H59       1.0  0.37025328096677873  0.47082514494317723  4.2573153537964546e-07  1.0000
  H   H60       1.0  0.4708215926247092  0.3702517598692268  3.5089527689366205e-08  1.0000
  C   C1        1.0  0.616056201076205  1.2639831232073692e-07  0.36902027635669304  1.0000
  C   C2        1.0  0.38394513780263395  0.7529645730174153  0.3839451888730849  1.0000
  C   C3        1.0  0.7529628892807596  0.383944124218232  0.38394396033793765  1.0000
  C   C4        1.0  0.9999995274976354  0.3690198656474096  0.6160548641324227  1.0000
  C   C5        1.0  0.36901943962538286  6.07071228305383e-08  0.6160563043206437  1.0000
  C   C6        1.0  0.38394469702225115  0.38394488427533  0.7529646609616238  1.0000
  C   C7        1.0  0.6309801831895215  0.6309803541429133  0.24703527841651157  1.0000
  C   C8        1.0  2.6322567270451844e-08  0.6160548517338641  0.36901974062993764  1.0000
  C   C9        1.0  0.6309798858707723  0.24703488313340935  0.6309801111208984  1.0000
  C   C10       1.0  0.2470353683162614  0.630979485640033  0.6309795943849823  1.0000
  C   C11       1.0  0.36901886154045366  0.616056067507536  0.9999991577581896  1.0000
  C   C12       1.0  0.616055922825602  0.3690200136875249  8.525437791403586e-08  1.0000
  C   C13       1.0  0.7339383198278994  0.9429031583149767  0.4170321986112172  1.0000
  C   C14       1.0  0.26606425541099554  0.6830956120798889  0.20896651384715886  1.0000
  C   C15       1.0  0.6830947343272414  0.2660640411586926  0.20896653901198217  1.0000
  C   C16       1.0  0.05709842503517138  0.47413072965229486  0.7910337189764506  1.0000
  C   C17       1.0  0.4741289039641431  0.05709780294380101  0.791033744139412  1.0000
  C   C18       1.0  0.26606445304879855  0.20896712776935542  0.683096617305857  1.0000
  C   C19       1.0  0.20896438146100854  0.26606573418515483  0.6830970382329228  1.0000
  C   C20       1.0  0.582967205500907  0.5258695701647086  0.3169025222642929  1.0000
  C   C21       1.0  0.5258664148821312  0.582968375127635  0.31690222417757524  1.0000
  C   C22       1.0  0.6830945559033309  0.20896634189160326  0.2660644281248778  1.0000
  C   C23       1.0  0.20896430929347076  0.6830969985753443  0.26606595802861227  1.0000
  C   C24       1.0  0.41703076200623457  0.9429021715062548  0.7339355326952771  1.0000
  C   C25       1.0  0.9428991618669044  0.4170315829612863  0.7339344087492775  1.0000
  C   C26       1.0  0.05709798736768334  0.7910331061612867  0.4741299984222494  1.0000
  C   C27       1.0  0.5829679090325398  0.31690296268581625  0.5258703801461666  1.0000
  C   C28       1.0  0.7910353276307449  0.057098310406225206  0.47413010616743645  1.0000
  C   C29       1.0  0.3169045569874526  0.5829674947729302  0.5258694354286817  1.0000
  C   C30       1.0  0.4741292243709053  0.7910334775234844  0.05709811313011678  1.0000
  C   C31       1.0  0.4170307465005222  0.733936440468135  0.942902671564305  1.0000
  C   C32       1.0  0.7910349515562983  0.4741304512369738  0.05709789182348879  1.0000
  C   C33       1.0  0.7339371927232604  0.4170325377408517  0.9429031692705224  1.0000
  C   C34       1.0  0.5258665248784878  0.31690203470093087  0.5829683862963435  1.0000
  C   C35       1.0  0.9428983090689795  0.7339339594704982  0.4170311033218612  1.0000
  C   C36       1.0  0.3169043785635424  0.5258697955058481  0.5829673245415707  1.0000
  C   C37       1.0  0.5100802721703132  2.4729133225693696e-07  0.3184980371946509  1.0000
  C   C38       1.0  0.4899209928349108  0.8084169990218157  0.48991775863166953  1.0000
  C   C39       1.0  0.8084158218328098  0.4899177757337726  0.4899174929918147  1.0000
  C   C40       1.0  2.939553866207692e-06  0.3184984986246776  0.5100819984691897  1.0000
  C   C41       1.0  0.31849848757002513  4.325768116060251e-07  0.5100824518449656  1.0000
  C   C42       1.0  0.48992096808566277  0.4899176321791999  0.8084167372629167  1.0000
  C   C43       1.0  0.6815040905730425  0.6815015213461421  0.19158325807640608  1.0000
  C   C44       1.0  2.7411185428437507e-06  0.5100820691540238  0.3184982022767714  1.0000
  C   C45       1.0  0.6815038177000832  0.19158332015204152  0.6815007271143829  1.0000
  C   C46       1.0  0.19158198325670367  0.6815022641715346  0.6815024968672887  1.0000
  C   C47       1.0  0.3184978987598726  0.5100826920553416  9.214716103712425e-08  1.0000
  C   C48       1.0  0.5100789755011661  0.31849704325697575  0.9999997026754174  1.0000
  N   N1        1.0  0.6235716449856028  0.9073073311902109  0.350552730532499  1.0000
  N   N2        1.0  0.3764315857333997  0.7269820218459059  0.28373841855231063  1.0000
  N   N3        1.0  0.7269805114793327  0.3764298174047482  0.2837369981403557  1.0000
  N   N4        1.0  0.0926931894951507  0.44324413617348324  0.716261638873462  1.0000
  N   N5        1.0  0.44324457622186486  0.09269249333134158  0.7162635096452732  1.0000
  N   N6        1.0  0.37643186857104627  0.28373813008269627  0.7269820338491259  1.0000
  N   N7        1.0  0.2837357518411139  0.3764306173806491  0.7269836136705409  1.0000
  N   N8        1.0  0.6494494432930936  0.5567561058057109  0.2730179324966216  1.0000
  N   N9        1.0  0.556752414886958  0.6494464771697823  0.27301610989261615  1.0000
  N   N10       1.0  0.7269806038362248  0.283736222717856  0.3764291898392643  1.0000
  N   N11       1.0  0.28373608770160524  0.7269831466843614  0.37643022568128265  1.0000
  N   N12       1.0  0.35055084660930896  0.9073069986729794  0.6235696909431924  1.0000
  N   N13       1.0  0.9073052808457616  0.3505524788638822  0.6235692070760379  1.0000
  N   N14       1.0  0.09269311464070285  0.7162614756028775  0.4432439157772877  1.0000
  N   N15       1.0  0.6494486825071988  0.27301707487280424  0.556755703825637  1.0000
  N   N16       1.0  0.7162635214121097  0.09269254504939548  0.44324552633288083  1.0000
  N   N17       1.0  0.27301850820671814  0.6494469928145322  0.5567547126502747  1.0000
  N   N18       1.0  0.4432448372151753  0.7162637178517458  0.09269239856169517  1.0000
  N   N19       1.0  0.3505520502139063  0.623571158660525  0.9073069359102777  1.0000
  N   N20       1.0  0.7162634421357976  0.44324575224698753  0.09269255347133766  1.0000
  N   N21       1.0  0.6235713741718811  0.35055231661498715  0.9073078098327656  1.0000
  N   N22       1.0  0.5567524654634965  0.27301636457745115  0.6494467919380398  1.0000
  N   N23       1.0  0.907305094761419  0.623569619746597  0.3505530332472163  1.0000
  N   N24       1.0  0.27301860055088417  0.5567547539149377  0.6494469043510379  1.0000
