data_image0
_chemical_formula_structural       Zn2H42C70N6O18
_chemical_formula_sum              "Zn2 H42 C70 N6 O18"
_cell_length_a       14.619350902167394
_cell_length_b       15.710979511164046
_cell_length_c       23.770661512049738
_cell_angle_alpha    90.56516913334752
_cell_angle_beta     105.73281631345117
_cell_angle_gamma    98.44229991187585

_space_group_name_H-M_alt    "P 1"
_space_group_IT_number       1

loop_
  _space_group_symop_operation_xyz
  'x, y, z'

loop_
  _atom_site_type_symbol
  _atom_site_label
  _atom_site_symmetry_multiplicity
  _atom_site_fract_x
  _atom_site_fract_y
  _atom_site_fract_z
  _atom_site_occupancy
  Zn  Zn1       1.0  0.5937250849613067  0.48296317874744693  0.5148145228078604  1.0000
  Zn  Zn2       1.0  0.40778321853395033  0.5181245036211878  0.4842644141040396  1.0000
  H   H1        1.0  0.6153436147568457  0.7052478191050613  0.9664434732887559  1.0000
  H   H2        1.0  0.38307521853746357  0.29800590638200924  0.0324872094884796  1.0000
  H   H3        1.0  0.612688998938502  0.7068756071487884  0.07242863574120409  1.0000
  H   H4        1.0  0.38658120385772327  0.2961252621788546  0.926648849883165  1.0000
  H   H5        1.0  0.3567900956861934  0.5405197609568616  0.19161168468136947  1.0000
  H   H6        1.0  0.38810768524193406  0.5750969452788014  0.7676640209362802  1.0000
  H   H7        1.0  0.3581914420197806  0.5382494810692438  0.29745684326722716  1.0000
  H   H8        1.0  0.38664315188614035  0.5752287364557773  0.6616711270786909  1.0000
  H   H9        1.0  0.6394263454543037  0.4645619507567603  0.3416954804883191  1.0000
  H   H10       1.0  0.6188174212360665  0.42779081435482885  0.6978215390299171  1.0000
  H   H11       1.0  0.6375838578786386  0.46521719347602913  0.23563271134015198  1.0000
  H   H12       1.0  0.6191921637109347  0.4254686813088426  0.8035143123312238  1.0000
  H   H13       1.0  0.7630714621497533  0.05585633049771841  0.5757606427675414  1.0000
  H   H14       1.0  0.24556255253799011  0.9477967780803809  0.5070982723314473  1.0000
  H   H15       1.0  0.5418535292081685  0.22180447008662443  0.5227153365037225  1.0000
  H   H16       1.0  0.4626554950575753  0.7794366947313236  0.5127122767942751  1.0000
  H   H17       1.0  0.2449392070914769  0.25013737234738187  0.48025192934368033  1.0000
  H   H18       1.0  0.7593521015011293  0.7513970861284278  0.5520714686771344  1.0000
  H   H19       1.0  0.8073243380357839  0.9109111011259118  0.5710643214021901  1.0000
  H   H20       1.0  0.19944300935321738  0.0920429419684794  0.48957954971928797  1.0000
  H   H21       1.0  0.6406960380516863  0.14998746723478723  0.559172393369856  1.0000
  H   H22       1.0  0.36822220387463744  0.8531307312390126  0.5224936318834708  1.0000
  H   H23       1.0  0.9621672859058138  0.6369908727691395  0.37322138913260267  1.0000
  H   H24       1.0  0.016104894644648517  0.31466643828171215  0.5911593632189139  1.0000
  H   H25       1.0  0.7568030308725116  0.5187705593573498  0.47048517342615537  1.0000
  H   H26       1.0  0.2341429661542733  0.4610391016010738  0.5133230270989558  1.0000
  H   H27       1.0  0.6960424377139561  0.3543262038532405  0.5939126019746938  1.0000
  H   H28       1.0  0.3017485197493173  0.6390828202318417  0.3988865086904101  1.0000
  H   H29       1.0  0.7166381213816638  0.6203443615985338  0.3696270133670225  1.0000
  H   H30       1.0  0.8222417500344933  0.646166055849868  0.3458110114924367  1.0000
  H   H31       1.0  0.8023141099986689  0.6944207657735504  0.4672720836400544  1.0000
  H   H32       1.0  0.9068077991139919  0.7257802999013808  0.44342539111923435  1.0000
  H   H33       1.0  0.8117978479811258  0.8121983788301677  0.36496955820916105  1.0000
  H   H34       1.0  0.8107335333270743  0.8465458528269355  0.4360897759148941  1.0000
  H   H35       1.0  0.7082800084368517  0.7810574830152177  0.3901753845899805  1.0000
  H   H36       1.0  0.2505126318086113  0.30852363996655197  0.580677436760361  1.0000
  H   H37       1.0  0.1370036160510395  0.2685747438195207  0.5920790329993082  1.0000
  H   H38       1.0  0.261312064313266  0.4434916809203956  0.6393476012900408  1.0000
  H   H39       1.0  0.14935902451367164  0.40611294777764334  0.653094520138268  1.0000
  H   H40       1.0  0.21962328731528666  0.2810354073998696  0.7061522057253812  1.0000
  H   H41       1.0  0.28534322741410995  0.38152167585051444  0.7384819272567995  1.0000
  H   H42       1.0  0.3323672710918046  0.3208482648681184  0.6934239318561454  1.0000
  C   C1        1.0  0.575506253224212  0.6632714633703926  0.5163123540678427  1.0000
  C   C2        1.0  0.4271876898635014  0.33769590534954835  0.4949910084583778  1.0000
  C   C3        1.0  0.5000920143124433  0.5011253392219288  0.3889409452912603  1.0000
  C   C4        1.0  0.5007816774343896  0.5010199999656493  0.6103643912259785  1.0000
  C   C5        1.0  0.4597411260688276  0.4235517268894782  0.8709752430951598  1.0000
  C   C6        1.0  0.5403694444248971  0.5792373973336068  0.12826598575608023  1.0000
  C   C7        1.0  0.5460941563376664  0.5761293975909113  0.8861074975928748  1.0000
  C   C8        1.0  0.4529305283738481  0.42707998616356235  0.11296377715486731  1.0000
  C   C9        1.0  0.5432828465234607  0.5756428753990263  0.9479785926966715  1.0000
  C   C10       1.0  0.4554602992190979  0.42756794028638717  0.05100789153326699  1.0000
  C   C11       1.0  0.500390366196001  0.5010926307547691  0.9696846241467797  1.0000
  C   C12       1.0  0.49859682619379003  0.5020229478537886  0.029334970611621713  1.0000
  C   C13       1.0  0.4592940404856948  0.42564106505551536  0.9332840814974902  1.0000
  C   C14       1.0  0.5400871513975716  0.577360335711937  0.06581578566693481  1.0000
  C   C15       1.0  0.5830349577903747  0.6489108689663183  0.9845653674682853  1.0000
  C   C16       1.0  0.4156236572477284  0.3542907374546474  0.014418583961997918  1.0000
  C   C17       1.0  0.5815060753758345  0.6497581149184412  0.04337554276138176  1.0000
  C   C18       1.0  0.41761400570619134  0.3532984756813846  0.9556915604402791  1.0000
  C   C19       1.0  0.4183839982423123  0.5240827372513764  0.22481291580992038  1.0000
  C   C20       1.0  0.4376586125870076  0.5422597335016945  0.7517741262371588  1.0000
  C   C21       1.0  0.419247397709313  0.5229682228002374  0.2834971429469064  1.0000
  C   C22       1.0  0.43692120449154004  0.5424050406042795  0.6931341055169825  1.0000
  C   C23       1.0  0.49915383210684183  0.5019740068406621  0.3256641549789734  1.0000
  C   C24       1.0  0.5019634125671859  0.5007687687889658  0.6736566503689475  1.0000
  C   C25       1.0  0.5780875791632243  0.48144341425408044  0.3085010785131743  1.0000
  C   C26       1.0  0.5680906176026852  0.4591376859702976  0.713535355712182  1.0000
  C   C27       1.0  0.577147586167044  0.48172286528659924  0.24979793331247185  1.0000
  C   C28       1.0  0.5685515922385067  0.45815018976652067  0.7721577757839243  1.0000
  C   C29       1.0  0.49731566922965004  0.5032691885606014  0.208466577502783  1.0000
  C   C30       1.0  0.5032301655842701  0.4997462169533904  0.7907908140885738  1.0000
  C   C31       1.0  0.6070612769051991  0.7578217491974971  0.5303400059179709  1.0000
  C   C32       1.0  0.39728971513709155  0.24390717728388012  0.5016699026640553  1.0000
  C   C33       1.0  0.7315856983061764  0.8818705352899344  0.5585049882952262  1.0000
  C   C34       1.0  0.2748074069615782  0.1208598445144631  0.497587135670429  1.0000
  C   C35       1.0  0.7055541375395293  0.7939490353131546  0.5477579858768777  1.0000
  C   C36       1.0  0.29947153957072464  0.20812336063144712  0.4924971570465644  1.0000
  C   C37       1.0  0.5373463392733129  0.8104182958823783  0.5262460037415408  1.0000
  C   C38       1.0  0.46784476922669443  0.19152693592587872  0.5169328233912793  1.0000
  C   C39       1.0  0.5615867250349497  0.9002293342359452  0.5376527236301456  1.0000
  C   C40       1.0  0.44503833494581363  0.1023029297885927  0.522486310613644  1.0000
  C   C41       1.0  0.6612359230453535  0.9368527121103797  0.5529738217769591  1.0000
  C   C42       1.0  0.3458384680875923  0.06606580291405352  0.5116409807045983  1.0000
  C   C43       1.0  0.48942130616053  0.9560738133661887  0.5318548024709673  1.0000
  C   C44       1.0  0.5178977043916646  0.0466063295559138  0.5356602650541191  1.0000
  C   C45       1.0  0.6180590424069621  0.08064186071467822  0.552320735845413  1.0000
  C   C46       1.0  0.38987909326598913  0.9224667696191488  0.5222567928045052  1.0000
  C   C47       1.0  0.6869951963492014  0.0280297297164722  0.5617279695923045  1.0000
  C   C48       1.0  0.3210427160204858  0.9751945760558484  0.5137024626856218  1.0000
  C   C49       1.0  0.15245916005512333  0.621845424495021  0.39919258297304344  1.0000
  C   C50       1.0  0.8364300797133454  0.3526135680747515  0.5808550606297659  1.0000
  C   C51       1.0  0.246033920677732  0.6060179795317425  0.4169297136157795  1.0000
  C   C52       1.0  0.7480039349676915  0.37955059139838454  0.570582794753868  1.0000
  C   C53       1.0  0.20653271175658722  0.5055585967420768  0.4809867359327953  1.0000
  C   C54       1.0  0.7837365009593854  0.47219603206372085  0.5013297479339088  1.0000
  C   C55       1.0  0.1083306462895024  0.5143894879985424  0.4646082971301625  1.0000
  C   C56       1.0  0.875056708087982  0.4483661327043791  0.5074349761644116  1.0000
  C   C57       1.0  0.0798100775030335  0.5775940991428712  0.4227350786222175  1.0000
  C   C58       1.0  0.9043777635668635  0.38687382821741073  0.5504534964877978  1.0000
  C   C59       1.0  0.03716337006412124  0.4665549462394481  0.4895941059747388  1.0000
  C   C60       1.0  0.941702719738295  0.4860553907712913  0.4754819988095633  1.0000
  C   C61       1.0  0.9160748779664091  0.546392328318916  0.4300305572355542  1.0000
  C   C62       1.0  0.05970888394855932  0.39939617340773037  0.5304125609773038  1.0000
  C   C63       1.0  0.9833156672936313  0.5904373852726154  0.40565570179607147  1.0000
  C   C64       1.0  0.9953887209284886  0.3621811924140843  0.5594287428072917  1.0000
  C   C65       1.0  0.7953532166065572  0.635602311666581  0.38459404539040076  1.0000
  C   C66       1.0  0.8276602577516174  0.7122299889270779  0.4287661060820512  1.0000
  C   C67       1.0  0.7873547829583034  0.7923305105058915  0.4033707607017405  1.0000
  C   C68       1.0  0.186716666290053  0.3276741578103426  0.5900479467290367  1.0000
  C   C69       1.0  0.21403631520693275  0.3852396255209668  0.645695364776934  1.0000
  C   C70       1.0  0.2654175031193802  0.33941372852191176  0.6986496847944964  1.0000
  N   N1        1.0  0.503417794655455  0.49948209104570657  0.8515643594431098  1.0000
  N   N2        1.0  0.49650496329877586  0.5033897198152532  0.14756833587890136  1.0000
  N   N3        1.0  0.27213892036554915  0.5498609696944854  0.4584529587095503  1.0000
  N   N4        1.0  0.7238477287311584  0.44012554727711267  0.5321375392065735  1.0000
  N   N5        1.0  0.1334325099966875  0.6871538922637157  0.3553992947134931  1.0000
  N   N6        1.0  0.8563080084948853  0.2891439726175519  0.6257913194855861  1.0000
  O   O1        1.0  0.6392780600715255  0.6137950129954322  0.5288495698800376  1.0000
  O   O2        1.0  0.36377779548796946  0.3873279766408401  0.48847388198107206  1.0000
  O   O3        1.0  0.4858639549161552  0.638857630347964  0.49281493120574293  1.0000
  O   O4        1.0  0.5151623529992619  0.36161888456395275  0.4967959898964765  1.0000
  O   O5        1.0  0.580403513642274  0.49713848880738704  0.42618876618725215  1.0000
  O   O6        1.0  0.42835426421719813  0.5252142957020356  0.5746871756854475  1.0000
  O   O7        1.0  0.4206620732325491  0.5045746392075118  0.4006066586715634  1.0000
  O   O8        1.0  0.5722685879655318  0.4767758623364244  0.5972644653764692  1.0000
  O   O9        1.0  0.4239692134080855  0.36013330095835266  0.8373104517922273  1.0000
  O   O10       1.0  0.5767069340002706  0.6423743374218348  0.16205797278021813  1.0000
  O   O11       1.0  0.5828738955646173  0.6388016152385064  0.8651012104198446  1.0000
  O   O12       1.0  0.4160058298467391  0.36449120226360077  0.13396068292892951  1.0000
  O   O13       1.0  0.18274176164307226  0.6940033214571388  0.3202291747692598  1.0000
  O   O14       1.0  0.070953935890337  0.7324257206150334  0.35676056374246917  1.0000
  O   O15       1.0  0.7862944635531194  0.2388977127285798  0.6320725934831302  1.0000
  O   O16       1.0  0.9407345298218033  0.2900140429107553  0.6556140676654252  1.0000
  O   O17       1.0  0.8229590192200079  0.5569540893878157  0.4117634459392647  1.0000
  O   O18       1.0  0.14613596779707194  0.37402143908666124  0.5386540943539444  1.0000
