data_image0
_chemical_formula_structural       FeH40C34S2N14O2
_chemical_formula_sum              "Fe1 H40 C34 S2 N14 O2"
_cell_length_a       9.188785041732414
_cell_length_b       9.241975619780561
_cell_length_c       10.40199989743736
_cell_angle_alpha    91.53871112001782
_cell_angle_beta     95.16917133627648
_cell_angle_gamma    90.7026041956722

_space_group_name_H-M_alt    "P 1"
_space_group_IT_number       1

loop_
  _space_group_symop_operation_xyz
  'x, y, z'

loop_
  _atom_site_type_symbol
  _atom_site_label
  _atom_site_symmetry_multiplicity
  _atom_site_fract_x
  _atom_site_fract_y
  _atom_site_fract_z
  _atom_site_occupancy
  Fe  Fe1       1.0  0.0043352348445751  0.5081728522462258  0.9873553855701829  1.0000
  H   H1        1.0  0.1340356609358224  0.8010327613302055  0.1429862902862169  1.0000
  H   H2        1.0  0.8685881610771133  0.20730983419466045  0.8422674814346323  1.0000
  H   H3        1.0  0.20551672831901868  0.9987558218322692  0.27206879918661286  1.0000
  H   H4        1.0  0.7927814005583257  1.9004606763001493e-05  0.7299930057051609  1.0000
  H   H5        1.0  0.1618073384883232  0.05967470659965811  0.4238166176669792  1.0000
  H   H6        1.0  0.8342706955001944  0.9354562520396429  0.5785723289460944  1.0000
  H   H7        1.0  0.08519009754271417  0.8938157290032652  0.35667416818653647  1.0000
  H   H8        1.0  0.9122774348652384  0.10218279873166841  0.6420404653445145  1.0000
  H   H9        1.0  0.3587985840802261  0.4435655063476673  0.0036972826831985018  1.0000
  H   H10       1.0  0.6473472185349889  0.5624541665854182  0.9896091002309428  1.0000
  H   H11       1.0  0.3810195616506248  0.9682514676933565  0.19375549159232713  1.0000
  H   H12       1.0  0.6185274401842662  0.03358633203690431  0.8095793463243764  1.0000
  H   H13       1.0  0.5467830264578736  0.8746168418246331  0.19342004847035096  1.0000
  H   H14       1.0  0.4541016537852443  0.1293854170529372  0.8103799753647394  1.0000
  H   H15       1.0  0.0886696903063182  0.8147835025865577  0.8801328567089967  1.0000
  H   H16       1.0  0.9149810439268149  0.19083284451090785  0.12356617020522975  1.0000
  H   H17       1.0  0.016994962515909203  0.4181831095793741  0.6714469661528426  1.0000
  H   H18       1.0  0.9869647193871313  0.5748345684292248  0.348967697321548  1.0000
  H   H19       1.0  0.38780478553975684  0.6463436088065537  0.7901311468309017  1.0000
  H   H20       1.0  0.611545050400636  0.3520783883490354  0.21272251769743628  1.0000
  H   H21       1.0  0.3799435326357425  0.8341965682605094  0.8273473755349627  1.0000
  H   H22       1.0  0.6190997907368043  0.16484865178197342  0.17366076623875407  1.0000
  H   H23       1.0  0.5510829991236009  0.7501188193374732  0.8164487589668423  1.0000
  H   H24       1.0  0.4478661267611699  0.24909370673869802  0.18408956078766178  1.0000
  H   H25       1.0  0.2005147444376405  0.951103662095875  0.7189086264492488  1.0000
  H   H26       1.0  0.7945365606119027  0.04674189019350911  0.2790459392776512  1.0000
  H   H27       1.0  0.0920348211899764  0.9282410314690638  0.5700626037480488  1.0000
  H   H28       1.0  0.9022412701406279  0.06150224700876092  0.42880714664354247  1.0000
  H   H29       1.0  0.6772164773815135  0.49141329169564335  0.5239411440678623  1.0000
  H   H30       1.0  0.3208838019507354  0.5097726724846298  0.4728816203426192  1.0000
  H   H31       1.0  0.5643471706002073  0.49285851023999094  0.656307249302344  1.0000
  H   H32       1.0  0.4370202395635161  0.5035296712491828  0.3428683925611153  1.0000
  H   H33       1.0  0.7593492665692166  0.4952868554796694  0.6863573567900331  1.0000
  H   H34       1.0  0.24253345480511967  0.5026583031887031  0.3088785044904583  1.0000
  H   H35       1.0  0.7782721595062866  0.7049375582600349  0.4359094713794818  1.0000
  H   H36       1.0  0.22053323927277546  0.2954176654052035  0.5658254353390717  1.0000
  H   H37       1.0  0.7285753717678671  0.8238539043072493  0.30775642159581906  1.0000
  H   H38       1.0  0.2694348679531231  0.17577507670307574  0.693726579058925  1.0000
  H   H39       1.0  0.664250298562017  0.644407883775557  0.29693587888758793  1.0000
  H   H40       1.0  0.3354174869890939  0.354704531688924  0.7046705982923241  1.0000
  C   C1        1.0  0.15581532642735138  0.21576372801320082  0.9564819694739555  1.0000
  C   C2        1.0  0.8450839537639679  0.7930725993923178  0.032782536065965914  1.0000
  C   C3        1.0  0.21841150007097096  0.7260900397546382  0.12104335804174578  1.0000
  C   C4        1.0  0.7847697997974875  0.2809476218657069  0.8680718177420772  1.0000
  C   C5        1.0  0.4327742819380731  0.7840196240936879  0.6323311146907428  1.0000
  C   C6        1.0  0.5646504950297526  0.2126531261886271  0.3685954633543814  1.0000
  C   C7        1.0  0.18535632597698992  0.9615038172892773  0.3679237315979265  1.0000
  C   C8        1.0  0.8118211897088514  0.034894144469241405  0.6331314832892403  1.0000
  C   C9        1.0  0.3351393636005183  0.5455128055741768  0.050880893157589896  1.0000
  C   C10       1.0  0.6698180281196998  0.4601472269680329  0.9425349287541706  1.0000
  C   C11       1.0  0.4362945304591292  0.8690254787406959  0.2248834089072886  1.0000
  C   C12       1.0  0.5638121430923347  0.13260174233692373  0.7770708825126957  1.0000
  C   C13       1.0  0.5537529207093782  0.7504651022279136  0.5642773452352399  1.0000
  C   C14       1.0  0.4440369807176268  0.24734726693456827  0.4367841495957734  1.0000
  C   C15       1.0  0.3130423856838149  0.8821669471144209  0.433729541670985  1.0000
  C   C16       1.0  0.6839315928274488  0.11378782764656141  0.5671003497365062  1.0000
  C   C17       1.0  0.0796688308225981  0.7294357963371639  0.8059724605829925  1.0000
  C   C18       1.0  0.9230824121275631  0.27229916189264713  0.20123418766623757  1.0000
  C   C19       1.0  0.4358102382934987  0.845533464649897  0.36816174934104134  1.0000
  C   C20       1.0  0.5620839640930839  0.15244133233142074  0.6330759624990278  1.0000
  C   C21       1.0  0.311223924884402  0.8473009730013461  0.5647981028500908  1.0000
  C   C22       1.0  0.6852877007658336  0.14745660851999534  0.4357767484211904  1.0000
  C   C23       1.0  0.557427478148746  0.77876408299516  0.4328478038222059  1.0000
  C   C24       1.0  0.44055830004296576  0.21937807131048712  0.5683336272633426  1.0000
  C   C25       1.0  0.04539059601476231  0.5299413040980455  0.6973872198100819  1.0000
  C   C26       1.0  0.957260038689739  0.4647315523098713  0.31769428696966157  1.0000
  C   C27       1.0  0.43776793641831085  0.7524139923412748  0.7737616898523284  1.0000
  C   C28       1.0  0.560841818613433  0.24594359966567236  0.22757289326541744  1.0000
  C   C29       1.0  0.17668817606264747  0.8779303431775891  0.6339313885583451  1.0000
  C   C30       1.0  0.8193578191532038  0.11606765415432822  0.36631196437595287  1.0000
  C   C31       1.0  0.6671724213895942  0.5327965633616571  0.6228308476099612  1.0000
  C   C32       1.0  0.3327818688011915  0.4657602823077553  0.37508483799207676  1.0000
  C   C33       1.0  0.6892627944936578  0.7360771786120495  0.36537131858852934  1.0000
  C   C34       1.0  0.30937300372394816  0.26332465844589603  0.6361478025584119  1.0000
  S   S1        1.0  0.23575523351933464  0.05965343716188442  0.9636940886005332  1.0000
  S   S2        1.0  0.7592202150937624  0.9458035938776492  0.0349796598477994  1.0000
  N   N1        1.0  0.19711214906824637  0.597473711976889  0.058589961483924896  1.0000
  N   N2        1.0  0.8074385087416828  0.4113136870655296  0.927020192694833  1.0000
  N   N3        1.0  0.36259956530994225  0.7487131722863725  0.14911673255116398  1.0000
  N   N4        1.0  0.6401388890800134  0.25444860806144487  0.848961836696013  1.0000
  N   N5        1.0  0.0375551451622655  0.5910428473153999  0.8182217317723611  1.0000
  N   N6        1.0  0.9680484299205075  0.40961110078374935  0.19603696831637754  1.0000
  N   N7        1.0  0.1132274019379835  0.7474042430932927  0.684655568770033  1.0000
  N   N8        1.0  0.8857661787938865  0.24768148763972422  0.3208760293954497  1.0000
  N   N9        1.0  0.4386371040046697  0.6346482863973365  0.10565907897700548  1.0000
  N   N10       1.0  0.5652605343431034  0.36766770511410846  0.8954811551546199  1.0000
  N   N11       1.0  0.09854489936997618  0.33020257898124333  0.9532316087107017  1.0000
  N   N12       1.0  0.9065877256681816  0.6809476222800301  0.030067016324970622  1.0000
  N   N13       1.0  0.091055558313343  0.6222628700940905  0.6132926739725305  1.0000
  N   N14       1.0  0.9078435933463636  0.3691835096827135  0.3975345324399199  1.0000
  O   O1        1.0  0.6743044167745395  0.6885142619711787  0.6303851496332766  1.0000
  O   O2        1.0  0.3238597389537929  0.3100274952563212  0.3707311873013239  1.0000
