data_image0
_chemical_formula_structural       Zn4H22C58N16O8
_chemical_formula_sum              "Zn4 H22 C58 N16 O8"
_cell_length_a       19.155633317253276
_cell_length_b       18.677586300013818
_cell_length_c       19.505534333754238
_cell_angle_alpha    103.02250269261427
_cell_angle_beta     111.19240149261053
_cell_angle_gamma    109.40483627257403

_space_group_name_H-M_alt    "P 1"
_space_group_IT_number       1

loop_
  _space_group_symop_operation_xyz
  'x, y, z'

loop_
  _atom_site_type_symbol
  _atom_site_label
  _atom_site_symmetry_multiplicity
  _atom_site_fract_x
  _atom_site_fract_y
  _atom_site_fract_z
  _atom_site_occupancy
  Zn  Zn1       1.0  0.8735748896488503  0.9931158708223508  0.36693034106716044  1.0000
  Zn  Zn2       1.0  0.1011512835733299  0.9959725548473559  0.6057074479321544  1.0000
  Zn  Zn3       1.0  0.1068102713499712  0.1081958405771957  0.48729748980028387  1.0000
  Zn  Zn4       1.0  0.8775597341500899  0.882114293064568  0.49718615564403024  1.0000
  H   H1        1.0  0.6015091476785771  0.3379748908514487  0.9742510743790904  1.0000
  H   H2        1.0  0.8681612591614963  0.166819127307363  0.34811391484225856  1.0000
  H   H3        1.0  0.7204633910794698  0.7040068489270367  0.3531799983103454  1.0000
  H   H4        1.0  0.2856524508069711  0.266992390576192  0.6433441306667832  1.0000
  H   H5        1.0  0.26775279392983725  0.9704084605287946  0.7436372239029012  1.0000
  H   H6        1.0  0.6589399650087343  0.06353008815848686  0.3151810096064692  1.0000
  H   H7        1.0  0.8187375249670125  0.8261519673588394  0.22110984033762537  1.0000
  H   H8        1.0  0.18998236508549837  0.13261006862110486  0.7693127495700267  1.0000
  H   H9        1.0  0.8687146017700513  0.7106685889713374  0.4006678701930896  1.0000
  H   H10       1.0  0.11209860888601503  0.27785453898737694  0.5582036846837113  1.0000
  H   H11       1.0  0.2423394565628527  0.23253426278665043  0.46066137700245957  1.0000
  H   H12       1.0  0.5140204373523434  0.5527224103308229  0.03481754188766933  1.0000
  H   H13       1.0  0.7294023023436793  0.7878087257988466  0.5271157205275615  1.0000
  H   H14       1.0  0.6783359804110917  0.4990545175451048  0.980662952404636  1.0000
  H   H15       1.0  0.43695165081285137  0.39040621004586035  0.028342611473640075  1.0000
  H   H16       1.0  0.245456545788393  0.06613159039867607  0.4415018574994605  1.0000
  H   H17       1.0  0.8303615620735982  0.9980886384217625  0.6175142408125184  1.0000
  H   H18       1.0  0.8753403729317242  0.9449884289409739  0.19266267328735867  1.0000
  H   H19       1.0  0.11546280048553113  0.03107186808414751  0.7914422762976657  1.0000
  H   H20       1.0  0.5171365736330955  0.4854283470183703  0.8903274727262628  1.0000
  H   H21       1.0  0.598632274780293  0.40436118006599747  0.11801344539571804  1.0000
  H   H22       1.0  0.1395005135407388  0.8558687752389175  0.5351816602607117  1.0000
  C   C1        1.0  0.9380057678155965  0.9879821092675625  0.24132430019850665  1.0000
  C   C2        1.0  0.5319757281045341  0.5038673231994081  0.02013304392845329  1.0000
  C   C3        1.0  0.6242991746428785  0.47509391913926186  0.9910226152250061  1.0000
  C   C4        1.0  0.4910629414006209  0.41559764164606605  0.018406207382142326  1.0000
  C   C5        1.0  0.7179982593842027  0.6536399689456687  0.19645192791988098  1.0000
  C   C6        1.0  0.34989184852710054  0.2710259739928134  0.8076600701437827  1.0000
  C   C7        1.0  0.579655558163708  0.4221531253755089  0.06710068299840806  1.0000
  C   C8        1.0  0.5358310654837127  0.46863898672496873  0.941919849265169  1.0000
  C   C9        1.0  0.6225906808761293  0.512979187205779  0.07158064362011622  1.0000
  C   C10       1.0  0.49147334861871883  0.37810676736938836  0.9371977020902308  1.0000
  C   C11       1.0  0.6818510716731438  0.5867090362276526  0.14058147844405514  1.0000
  C   C12       1.0  0.052256081708542  0.9896657829504887  0.7431561221779077  1.0000
  C   C13       1.0  0.4183035574565181  0.31507188329911173  0.8671323248827322  1.0000
  C   C14       1.0  0.0155969674420859  0.6777526293328293  0.4468364169006449  1.0000
  C   C15       1.0  0.003366642993192699  0.3356254956975705  0.45576577880090247  1.0000
  C   C16       1.0  0.07186055151129271  0.8330604456775459  0.506505182592541  1.0000
  C   C17       1.0  0.9263842871798076  0.18028386251534567  0.3981853402649947  1.0000
  C   C18       1.0  0.0174431874733969  0.6117252750480233  0.44283513868101926  1.0000
  C   C19       1.0  0.009495760089457399  0.4021710172240134  0.4518696962430724  1.0000
  C   C20       1.0  0.017465693717483098  0.5401270447322729  0.4434302258618317  1.0000
  C   C21       1.0  0.014621810366328704  0.4740922268326956  0.4473294745854303  1.0000
  C   C22       1.0  0.7055902779639638  0.04808300655322738  0.5328715995550227  1.0000
  C   C23       1.0  0.008218759278463501  0.7511207822821078  0.4596372268473417  1.0000
  C   C24       1.0  0.38101807712034486  0.045254456487029346  0.5535708178007893  1.0000
  C   C25       1.0  0.6480261630675272  0.05516356684684354  0.5430403766778583  1.0000
  C   C26       1.0  0.4476321274113388  0.05184243381538782  0.5548526115538053  1.0000
  C   C27       1.0  0.5823145307991879  0.058320890333611396  0.5506359465936868  1.0000
  C   C28       1.0  0.518570939853298  0.05660122807765334  0.5541375256439238  1.0000
  C   C29       1.0  0.0062440018156380015  0.04877233070279629  0.1670625714058929  1.0000
  C   C30       1.0  0.971570052115318  0.9720149386334853  0.8191952159142489  1.0000
  C   C31       1.0  0.9979416421203455  0.04285428842050734  0.10011480324420334  1.0000
  C   C32       1.0  0.9748043740188591  0.9925549931505699  0.8852725775747816  1.0000
  C   C33       1.0  0.9891926995263418  0.03057099536946586  0.026637998389546235  1.0000
  C   C34       1.0  0.9943425246346821  0.2579821754941279  0.45488003265118254  1.0000
  C   C35       1.0  0.980565797560047  0.013298207514111541  0.9580569729997493  1.0000
  C   C36       1.0  0.2438464311405752  0.050673496634544846  0.49146453808930357  1.0000
  C   C37       1.0  0.8210882057842781  0.0054779805108679715  0.5617658408006322  1.0000
  C   C38       1.0  0.7500145228804554  0.7475741674348271  0.33159198687890523  1.0000
  C   C39       1.0  0.2489817701511186  0.22439005558273808  0.6612479943616735  1.0000
  C   C40       1.0  0.2688266602462477  0.020081892483247484  0.5988206012952021  1.0000
  C   C41       1.0  0.7808248697492317  0.029326653098053164  0.45081555842140386  1.0000
  C   C42       1.0  0.8004911174361383  0.8098754294981063  0.2641884249520602  1.0000
  C   C43       1.0  0.2001306160208003  0.1559039201407302  0.7258090565440655  1.0000
  C   C44       1.0  0.9330423731007614  0.7586723629246848  0.43788242918294173  1.0000
  C   C45       1.0  0.304575381936786  0.038743898238870096  0.5486757622072319  1.0000
  C   C46       1.0  0.05124566533400811  0.23735941340405725  0.5058570161107242  1.0000
  C   C47       1.0  0.0701797065193119  0.08444271267536152  0.3181100829077224  1.0000
  C   C48       1.0  0.9158580448849847  0.9054244251406017  0.6678138500223129  1.0000
  C   C49       1.0  0.006171078381171899  0.042776982580996  0.23696780964851882  1.0000
  C   C50       1.0  0.9779181407178684  0.9556148979637841  0.7488860468393456  1.0000
  C   C51       1.0  0.3004421611130186  0.0011585744686471642  0.6690936956359721  1.0000
  C   C52       1.0  0.7411950625188622  0.037240425996692576  0.37581831626844314  1.0000
  C   C53       1.0  0.152528567772876  0.15501458597464793  0.35516234205105957  1.0000
  C   C54       1.0  0.8255663162666167  0.8540904416577604  0.6318524880036591  1.0000
  C   C55       1.0  0.7657501522287902  0.03190280152377057  0.517654697552544  1.0000
  C   C56       1.0  0.7545330145386018  0.7307155433922574  0.25951805694937496  1.0000
  C   C57       1.0  0.2723542321710609  0.22109274278305685  0.7375531055280647  1.0000
  C   C58       1.0  0.5820103389539355  0.38589760455100464  0.9878188444346423  1.0000
  N   N1        1.0  0.9598202543705909  0.9959352354544251  0.31764372554486187  1.0000
  N   N2        1.0  0.8400512524200678  0.003796699518325449  0.45748188255711864  1.0000
  N   N3        1.0  0.8207866965591323  0.8679923498108195  0.3327427185549043  1.0000
  N   N4        1.0  0.1392654417181092  0.12197125686618902  0.6484902114662675  1.0000
  N   N5        1.0  0.951403838791478  0.8381638928179528  0.47108694991712957  1.0000
  N   N6        1.0  0.019895963399925203  0.1545632797275474  0.4803400652099583  1.0000
  N   N7        1.0  0.04053435828149791  0.05383860021979809  0.36405737304929187  1.0000
  N   N8        1.0  0.9521007515619856  0.9116086588548598  0.6200298755686974  1.0000
  N   N9        1.0  0.035112073903690096  0.9628213152111796  0.665908172180707  1.0000
  N   N10       1.0  0.03660702915674821  0.8840460435663503  0.5134796233906159  1.0000
  N   N11       1.0  0.9430948602549947  0.12000279514305828  0.4141151826790975  1.0000
  N   N12       1.0  0.1787603133041742  0.04056237316216741  0.5069243985183505  1.0000
  N   N13       1.0  0.8638961570413386  0.9880702806809725  0.523499752094658  1.0000
  N   N14       1.0  0.7896511408252708  0.829565289299346  0.37522612622750273  1.0000
  N   N15       1.0  0.17037100305231687  0.165489657981162  0.6093757470408788  1.0000
  N   N16       1.0  0.1942830658553589  0.021833249919296794  0.5719873540278472  1.0000
  O   O1        1.0  0.367570730918409  0.00015661707985255272  0.7005915525857915  1.0000
  O   O2        1.0  0.24243208440302771  0.9828937781755939  0.6973422380312685  1.0000
  O   O3        1.0  0.7589739898394184  0.01918739617855885  0.3208632432762997  1.0000
  O   O4        1.0  0.6826345646813863  0.06347223695804873  0.3688966251296223  1.0000
  O   O5        1.0  0.1889985632578473  0.1887476647373703  0.32316609412582414  1.0000
  O   O6        1.0  0.18802958186305568  0.1844495673005326  0.4390180910551252  1.0000
  O   O7        1.0  0.7823661313075262  0.8431945376316962  0.6648986940411206  1.0000
  O   O8        1.0  0.7904119171434587  0.8166766962758274  0.5483548792103009  1.0000
