data_image0
_chemical_formula_structural       Zn4H21C70S6N4Cl3O16F6
_chemical_formula_sum              "Zn4 H21 C70 S6 N4 Cl3 O16 F6"
_cell_length_a       12.767588379948092
_cell_length_b       13.84690693922398
_cell_length_c       28.07165657434186
_cell_angle_alpha    90.03401466544992
_cell_angle_beta     89.80931617777912
_cell_angle_gamma    89.91376327460482

_space_group_name_H-M_alt    "P 1"
_space_group_IT_number       1

loop_
  _space_group_symop_operation_xyz
  'x, y, z'

loop_
  _atom_site_type_symbol
  _atom_site_label
  _atom_site_symmetry_multiplicity
  _atom_site_fract_x
  _atom_site_fract_y
  _atom_site_fract_z
  _atom_site_occupancy
  Zn  Zn1       1.0  0.5024369202701493  0.3995391634943387  0.49842999992579723  1.0000
  Zn  Zn2       1.0  0.4988462377802918  0.6004746551357057  0.4999430762232252  1.0000
  Zn  Zn3       1.0  0.5026858161950115  0.6007608828332351  0.044246042126658815  1.0000
  Zn  Zn4       1.0  0.49969910446715465  0.4000366378935141  0.044253656958233016  1.0000
  H   H1        1.0  0.38520074586772773  0.24930990424901714  0.5510040145542591  1.0000
  H   H2        1.0  0.31037938162163664  0.08983393232217196  0.5858816445903869  1.0000
  H   H3        1.0  0.6162661642612974  0.24758702415377337  0.447235388683204  1.0000
  H   H4        1.0  0.6132643768940298  0.7510669113402813  0.44740149068591967  1.0000
  H   H5        1.0  0.6895858996370021  0.9102341662313831  0.41345111428180564  1.0000
  H   H6        1.0  0.3839275254491952  0.7522024197044598  0.5519088214709029  1.0000
  H   H7        1.0  0.5003306663229665  0.3473593890134197  0.2071743343706132  1.0000
  H   H8        1.0  0.4998048142597682  0.6545916890987088  0.6507260764047303  1.0000
  H   H9        1.0  0.500291065174217  0.7469573524683708  0.7283906919740135  1.0000
  H   H10       1.0  0.49940861507639767  0.3447889352944601  0.6504544796030984  1.0000
  H   H11       1.0  0.49949960524946146  0.34496603481191107  0.8926609799944246  1.0000
  H   H12       1.0  0.49889898303412394  0.2525996165427457  0.8149509501561383  1.0000
  H   H13       1.0  0.5009937593853095  0.6548312839415685  0.8928934308492488  1.0000
  H   H14       1.0  0.8587047775394081  0.6527889970490148  0.500245542057023  1.0000
  H   H15       1.0  0.3856914585468941  0.7515572485595781  0.9922745260602142  1.0000
  H   H16       1.0  0.31155488431064526  0.9115252465541344  0.9576044437168605  1.0000
  H   H17       1.0  0.6165870301114394  0.7519240722106773  0.09541435499262721  1.0000
  H   H18       1.0  0.6156324869182938  0.24850710805138476  0.0950993071986161  1.0000
  H   H19       1.0  0.6914969128778948  0.08870956582528318  0.1288490208884667  1.0000
  H   H20       1.0  0.38553378472877137  0.24868874447573558  0.9916662707572144  1.0000
  H   H21       1.0  0.8597428501991401  0.348222948166331  0.044169125213606705  1.0000
  C   C1        1.0  0.49912215430092016  0.5000443145142199  0.5925545180357192  1.0000
  C   C2        1.0  0.2955697012016572  0.4998254420184621  0.4997947425850101  1.0000
  C   C3        1.0  0.5023755726574279  0.500002067097391  0.4058823460842974  1.0000
  C   C4        1.0  0.7060648630239044  0.5007864075347824  0.49896554658226233  1.0000
  C   C5        1.0  0.5000163692024344  0.4998238904443966  0.9508364694867809  1.0000
  C   C6        1.0  0.2961164220806083  0.5017491310077274  0.0442994617243073  1.0000
  C   C7        1.0  0.5025029397893449  0.4996521241457188  0.1376830277821668  1.0000
  C   C8        1.0  0.7066188920959462  0.5005404736726503  0.0446579248084049  1.0000
  C   C9        1.0  0.4356066222782786  0.2043409409778221  0.5286940361217419  1.0000
  C   C10       1.0  0.43181199506777546  0.10311867788968947  0.5306580312566922  1.0000
  C   C11       1.0  0.36311965221541  0.05123281664710079  0.5618946668171318  1.0000
  C   C12       1.0  0.5660593251726027  0.20367604041934578  0.4699435292758594  1.0000
  C   C13       1.0  0.5687113492566738  0.10263632183213638  0.4687937509729637  1.0000
  C   C14       1.0  0.6359766199090159  0.047350147364738894  0.43819907122408364  1.0000
  C   C15       1.0  0.5639633459060249  0.7959235102657375  0.4702771349627002  1.0000
  C   C16       1.0  0.5682712303357461  0.897108342222829  0.46867459078828233  1.0000
  C   C17       1.0  0.6370859452726307  0.9489162404103766  0.437500429756959  1.0000
  C   C18       1.0  0.4342248744475157  0.7963112928864645  0.5293334751960401  1.0000
  C   C19       1.0  0.43179374399255005  0.8973943811298567  0.5307301377297975  1.0000
  C   C20       1.0  0.3645995359104219  0.9527881830176169  0.5613425505212533  1.0000
  C   C21       1.0  0.5003328848754194  0.0511730893242017  0.49975964281353674  1.0000
  C   C22       1.0  0.5001438024117064  0.9489644839093642  0.4997846319554355  1.0000
  C   C23       1.0  0.501942656718029  0.5811016871568169  0.3223383376064746  1.0000
  C   C24       1.0  0.5011710566868784  0.4211403249328213  0.2204174476640191  1.0000
  C   C25       1.0  0.5019784512094034  0.5028352302897118  0.3533526397554852  1.0000
  C   C26       1.0  0.5018822891104903  0.5000713137236303  0.1902913190366959  1.0000
  C   C27       1.0  0.5013164582828792  0.45048755163469417  0.2686541999013556  1.0000
  C   C28       1.0  0.5017686038119108  0.5515854652458287  0.2740634588075963  1.0000
  C   C29       1.0  0.49942870572568404  0.5873552427985305  0.6708931671195162  1.0000
  C   C30       1.0  0.4995918529574225  0.5892238183975351  0.7208357132710931  1.0000
  C   C31       1.0  0.5000274265516252  0.6780305346070533  0.7471143075238658  1.0000
  C   C32       1.0  0.49902643726625934  0.4119741192829947  0.6705687208520461  1.0000
  C   C33       1.0  0.4989847619027686  0.4109538983871914  0.7204322708870592  1.0000
  C   C34       1.0  0.498774761865505  0.3237884357524904  0.7478361190045606  1.0000
  C   C35       1.0  0.4994206018393966  0.41222976419637547  0.8725056719494904  1.0000
  C   C36       1.0  0.4993013264884779  0.4103547051254494  0.8225569973081974  1.0000
  C   C37       1.0  0.49899964078173287  0.32156537146248343  0.7962550388660503  1.0000
  C   C38       1.0  0.5001337581788619  0.5876333875213715  0.8728036217682418  1.0000
  C   C39       1.0  0.4998613414410968  0.5886614424837049  0.8229455657010833  1.0000
  C   C40       1.0  0.5000956124601359  0.6758298035041789  0.7955338424971714  1.0000
  C   C41       1.0  0.4990906190066511  0.4998215557401976  0.6460112631514507  1.0000
  C   C42       1.0  0.4992907362553325  0.49987039076771095  0.7463926387071071  1.0000
  C   C43       1.0  0.4997821962748716  0.49975696070340797  0.8973814801116691  1.0000
  C   C44       1.0  0.4994441924635353  0.4997254106608295  0.7969971255026778  1.0000
  C   C45       1.0  0.11198148083400382  0.41881989491864136  0.5002236817528356  1.0000
  C   C46       1.0  0.8879065561926963  0.5790099798711738  0.500063874052458  1.0000
  C   C47       1.0  0.1801333302421355  0.49703808284129997  0.5002359496806009  1.0000
  C   C48       1.0  0.8217178157186351  0.5001548565652598  0.4995890627972416  1.0000
  C   C49       1.0  0.9939429784131304  0.5495303710110448  0.5003677033720422  1.0000
  C   C50       1.0  0.005839977683855599  0.4484272470413585  0.5002232160442476  1.0000
  C   C51       1.0  0.4362133056853139  0.7962405955608105  0.014456109682214401  1.0000
  C   C52       1.0  0.432837341066353  0.8974842005941711  0.012486531888697503  1.0000
  C   C53       1.0  0.3643737913144065  0.9498048495953028  0.9814589321686428  1.0000
  C   C54       1.0  0.5665552407116933  0.7961562463747497  0.07286436189100703  1.0000
  C   C55       1.0  0.5696083765113471  0.8971632869188182  0.07398252958351041  1.0000
  C   C56       1.0  0.6371109703091588  0.9520276144156622  0.10436040024644912  1.0000
  C   C57       1.0  0.5658597470840476  0.2039135850082232  0.0725259763249682  1.0000
  C   C58       1.0  0.5700335658853105  0.10270498983044969  0.0740564768995142  1.0000
  C   C59       1.0  0.6387053678543992  0.050453083626386785  0.1049852341424611  1.0000
  C   C60       1.0  0.4358593575612204  0.20433460531080525  0.0140235982823782  1.0000
  C   C61       1.0  0.43340068368562606  0.1032483931190384  0.0125033339393212  1.0000
  C   C62       1.0  0.36608172285456664  0.04824336067531479  0.9820636391923757  1.0000
  C   C63       1.0  0.5014982122144716  0.9490347754781041  0.043193456563727806  1.0000
  C   C64       1.0  0.5016622414043823  0.051240481904983384  0.043178481150953  1.0000
  C   C65       1.0  0.11216484431261621  0.5823236407218743  0.0441279481910257  1.0000
  C   C66       1.0  0.8887129797749864  0.42199400599423603  0.0443674953214384  1.0000
  C   C67       1.0  0.1806668464762993  0.5041579665226975  0.04420592182109571  1.0000
  C   C68       1.0  0.8222602025325471  0.5008406551831044  0.044513376685813504  1.0000
  C   C69       1.0  0.9946584256626918  0.45150389762006427  0.044237469251491704  1.0000
  C   C70       1.0  0.006164181686692399  0.5526108036384301  0.044209192190926706  1.0000
  S   S1        1.0  0.5013492682270239  0.3929369378877538  0.32313709194223617  1.0000
  S   S2        1.0  0.5021368821301948  0.6103631298323505  0.2200968634696352  1.0000
  S   S3        1.0  0.1136914532189763  0.6069740427337038  0.5004383906595748  1.0000
  S   S4        1.0  0.887194188584246  0.3897880934168967  0.499684057398774  1.0000
  S   S5        1.0  0.1146719931497486  0.39416584690997075  0.044273743631777114  1.0000
  S   S6        1.0  0.8873197934007279  0.611227503158801  0.0443264240244403  1.0000
  N   N1        1.0  0.5008483906978397  0.25145240769728616  0.49926460469640693  1.0000
  N   N2        1.0  0.4990093469372637  0.748661924178073  0.4997388281897913  1.0000
  N   N3        1.0  0.5012082437205905  0.7487808061289271  0.0437259015546161  1.0000
  N   N4        1.0  0.5006748014738349  0.25164553968879483  0.04346497457002841  1.0000
  Cl  Cl1       1.0  0.5019672141582276  0.7008417989025942  0.3378799552540315  1.0000
  Cl  Cl2       1.0  0.1462343180916932  0.29908353042966934  0.5001056496679368  1.0000
  Cl  Cl3       1.0  0.14574253255738506  0.702125497177114  0.043977180500029106  1.0000
  O   O1        1.0  0.5003620802152042  0.41845847074306153  0.5716564915665786  1.0000
  O   O2        1.0  0.4980192545457598  0.5823031622599115  0.5721567998572754  1.0000
  O   O3        1.0  0.33721969579633543  0.5836428130023492  0.5004178048984116  1.0000
  O   O4        1.0  0.34372193287850905  0.4193317785247145  0.49870339882646436  1.0000
  O   O5        1.0  0.5008265559511855  0.5805123170895354  0.4277761796976662  1.0000
  O   O6        1.0  0.5041060200480131  0.4162010710660906  0.4248589663341349  1.0000
  O   O7        1.0  0.6616789958150517  0.41809832691176035  0.4981987000961041  1.0000
  O   O8        1.0  0.6607799311557014  0.5827125557470153  0.4992854391276396  1.0000
  O   O9        1.0  0.5012225018435146  0.5817291109545266  0.9714517462636821  1.0000
  O   O10       1.0  0.4990697298949626  0.4179304226808823  0.9715934729893194  1.0000
  O   O11       1.0  0.33847668837111655  0.41801716793606386  0.044368396857741715  1.0000
  O   O12       1.0  0.3436007342666159  0.5823910039046395  0.04436315849098801  1.0000
  O   O13       1.0  0.5015841131990655  0.417456668619437  0.11717584452654252  1.0000
  O   O14       1.0  0.5038779467097498  0.5820468746278634  0.1173276872975961  1.0000
  O   O15       1.0  0.6623854069143318  0.583358227951159  0.04455535885046661  1.0000
  O   O16       1.0  0.661154655954455  0.41874666114726  0.0448214430571099  1.0000
  F   F1        1.0  0.30018407948289644  0.9026178265787478  0.5907960065778682  1.0000
  F   F2        1.0  0.7005542911733186  0.0975046538676878  0.4088636183271533  1.0000
  F   F3        1.0  0.5003330742944029  0.7608408805080982  0.8203188924729761  1.0000
  F   F4        1.0  0.4982325189131416  0.23882203185682016  0.7230280617206548  1.0000
  F   F5        1.0  0.3017822339888383  0.09881527460387927  0.9528560992885815  1.0000
  F   F6        1.0  0.7014462987608212  0.9015358843252695  0.13351019964870403  1.0000
