data_image0
_chemical_formula_structural       Zn2H32C38N6O10
_chemical_formula_sum              "Zn2 H32 C38 N6 O10"
_cell_length_a       9.719260241314297
_cell_length_b       10.987851704468385
_cell_length_c       18.93834826053292
_cell_angle_alpha    90.14143485579163
_cell_angle_beta     90.06804893784197
_cell_angle_gamma    90.09798531893905

_space_group_name_H-M_alt    "P 1"
_space_group_IT_number       1

loop_
  _space_group_symop_operation_xyz
  'x, y, z'

loop_
  _atom_site_type_symbol
  _atom_site_label
  _atom_site_symmetry_multiplicity
  _atom_site_fract_x
  _atom_site_fract_y
  _atom_site_fract_z
  _atom_site_occupancy
  Zn  Zn1       1.0  0.6358481460830773  0.5103961477195683  0.5020263840321064  1.0000
  Zn  Zn2       1.0  0.3520630036741536  0.509443849265196  0.5018964766419671  1.0000
  H   H1        1.0  0.7098615892716963  0.4359031961775985  0.28377725155901606  1.0000
  H   H2        1.0  0.7030727571885292  0.14739036555429413  0.3837308259020062  1.0000
  H   H3        1.0  0.813371739135192  0.1335015187774857  0.45877816226919793  1.0000
  H   H4        1.0  0.7025972065861126  0.9191971381617425  0.3698267538912533  1.0000
  H   H5        1.0  0.813747282609064  0.9066571518188554  0.44475086595529945  1.0000
  H   H6        1.0  0.12512590009995958  0.42710856049034623  0.5998531280785286  1.0000
  H   H7        1.0  0.8653375987685763  0.42608691523284414  0.6004470647525367  1.0000
  H   H8        1.0  0.856546097415368  0.5713020517440911  0.34038972985229793  1.0000
  H   H9        1.0  0.8629081285350538  0.7153013802830446  0.3841606721307897  1.0000
  H   H10       1.0  0.11256211571360097  0.5560839494236662  0.33996768563703483  1.0000
  H   H11       1.0  0.7214965161134187  0.3830694831234993  0.15533429125303405  1.0000
  H   H12       1.0  0.6944794237032212  0.31519068526398547  0.8303608975933301  1.0000
  H   H13       1.0  0.6842713139934418  0.3858266771449551  0.7047595291678805  1.0000
  H   H14       1.0  0.3227531427831636  0.5150004807421313  0.8729499532531619  1.0000
  H   H15       1.0  0.32686414694089183  0.8859930873318619  0.5751569490848141  1.0000
  H   H16       1.0  0.0715898678542501  0.17264541015529744  0.5990543517234245  1.0000
  H   H17       1.0  0.1590128667347344  0.19290358596240506  0.517019379642889  1.0000
  H   H18       1.0  0.1126507789487476  0.04434252516075081  0.545859483168016  1.0000
  H   H19       1.0  0.2776299295602627  0.06598729080440792  0.6482965374322447  1.0000
  H   H20       1.0  0.32223181041347  0.21369142553204065  0.6195794141473386  1.0000
  H   H21       1.0  0.1791541371186085  0.9221887649870907  0.41584808750401697  1.0000
  H   H22       1.0  0.0128283766618438  0.8610283096285374  0.43002795329790905  1.0000
  H   H23       1.0  0.15680094770910807  0.8059810024977524  0.47912280202387353  1.0000
  H   H24       1.0  0.26202839796750504  0.7206615850683421  0.3696303569050131  1.0000
  H   H25       1.0  0.12606787849636444  0.7777465918744255  0.3176975132196348  1.0000
  H   H26       1.0  0.2672559524459004  0.3467224839332276  0.09590642571540542  1.0000
  H   H27       1.0  0.17703399295294983  0.39138640339864844  0.24258150358703295  1.0000
  H   H28       1.0  0.4117035793663816  0.7432307710164994  0.6835513219602805  1.0000
  H   H29       1.0  0.255740816791743  0.8071506411165503  0.7149399125674735  1.0000
  H   H30       1.0  0.39547877766652556  0.7836249630149725  0.7740901254708916  1.0000
  H   H31       1.0  0.2300019645964753  0.5823493193141048  0.6983430538833915  1.0000
  H   H32       1.0  0.20922684991604967  0.6232901854787941  0.7883128371791415  1.0000
  C   C1        1.0  0.4972728873257494  0.7441314213553273  0.49843114556940565  1.0000
  C   C2        1.0  0.48977336097375  0.433648162521614  0.28927868493051534  1.0000
  C   C3        1.0  0.5044303706892991  0.36735354651442254  0.9319160606631343  1.0000
  C   C4        1.0  0.503213765125402  0.3496068503551157  0.0680749355539945  1.0000
  C   C5        1.0  0.6123096423736456  0.37479683067356734  0.812267364524793  1.0000
  C   C6        1.0  0.6065333525708425  0.41449359549402953  0.7427268367057495  1.0000
  C   C7        1.0  0.4989287721538388  0.4888252894897749  0.7188765748170312  1.0000
  C   C8        1.0  0.3958296267075667  0.5289992030996516  0.7661077170476389  1.0000
  C   C9        1.0  0.4019181933779805  0.4869949673188359  0.8354946450452871  1.0000
  C   C10       1.0  0.5072378218753356  0.40937967047743495  0.8588947695538212  1.0000
  C   C11       1.0  0.5987921118738981  0.9516813574369608  0.4726179162151568  1.0000
  C   C12       1.0  0.49251081209433784  0.4698621712322507  0.3657852751110157  1.0000
  C   C13       1.0  0.5005944940334216  0.878908525840778  0.5054263910716942  1.0000
  C   C14       1.0  0.4029603271631643  0.9406686223091117  0.5471281772876538  1.0000
  C   C15       1.0  0.3993106165354803  0.06763712871325822  0.5546172528124418  1.0000
  C   C16       1.0  0.4984181868687755  0.1395349193584252  0.5188691309549256  1.0000
  C   C17       1.0  0.5978078627164791  0.07785251928530812  0.47989817797546414  1.0000
  C   C18       1.0  0.7219707911281859  0.09573627722371472  0.432401945237146  1.0000
  C   C19       1.0  0.7221486711987523  0.9524138550760741  0.42374193350852357  1.0000
  C   C20       1.0  0.0651635343165395  0.5620518229284317  0.45107297861579104  1.0000
  C   C21       1.0  0.06627342551426811  0.4661572098206366  0.5564804127844667  1.0000
  C   C22       1.0  0.9229163336173087  0.4655978815805498  0.5568362934198632  1.0000
  C   C23       1.0  0.49646282171462264  0.2752585816959155  0.5171998403350103  1.0000
  C   C24       1.0  0.9216069188644482  0.561987744392468  0.4518527558300463  1.0000
  C   C25       1.0  0.9093152084963876  0.6244122141386231  0.3814363046527092  1.0000
  C   C26       1.0  0.07378845013165859  0.6219616864814201  0.3789678312499661  1.0000
  C   C27       1.0  0.4934190661666449  0.513984698420515  0.6409519343877079  1.0000
  C   C28       1.0  0.6164469248434087  0.4211847045845191  0.2531589828213257  1.0000
  C   C29       1.0  0.6231890911465641  0.39141920605587194  0.18244195493076631  1.0000
  C   C30       1.0  0.500697024250023  0.37234037063103637  0.14347995368009953  1.0000
  C   C31       1.0  0.3736304810770078  0.3814190706274801  0.17897816250015813  1.0000
  C   C32       1.0  0.36792170910064215  0.41112481080781293  0.2517905460692589  1.0000
  C   C33       1.0  0.2892800303078998  0.12334803125360594  0.6010275918616516  1.0000
  C   C34       1.0  0.149723668648754  0.13400488338947275  0.5635153701392639  1.0000
  C   C35       1.0  0.15161388541594786  0.7421101385243672  0.37042974794881195  1.0000
  C   C36       1.0  0.1226221526084714  0.8377947322254901  0.42705186073939677  1.0000
  C   C37       1.0  0.28433739788744816  0.6174693519221678  0.7450233614750916  1.0000
  C   C38       1.0  0.34032405817151806  0.7451244401456307  0.7284784730433886  1.0000
  N   N1        1.0  0.38173784586310683  0.34264800182380384  0.0329566546424118  1.0000
  N   N2        1.0  0.38114476389082336  0.3532602741794407  0.9637065171718291  1.0000
  N   N3        1.0  0.6234301518876181  0.3338805705834532  0.9646133474624392  1.0000
  N   N4        1.0  0.6234255264754226  0.32622880414889727  0.033613159734322606  1.0000
  N   N5        1.0  0.14076032735333396  0.5142016504716552  0.5024783666563623  1.0000
  N   N6        1.0  0.8471493671832063  0.5135099336777956  0.5033267331420888  1.0000
  O   O1        1.0  0.6084752316607477  0.690782101239421  0.4803213424562784  1.0000
  O   O2        1.0  0.3830903401643653  0.6912679605978128  0.5113677449218557  1.0000
  O   O3        1.0  0.6084744971415361  0.46117415643246334  0.397027270265653  1.0000
  O   O4        1.0  0.3813851960878479  0.5073566194034385  0.39382178932161344  1.0000
  O   O5        1.0  0.6105237219288355  0.32985758872111864  0.5276000173369867  1.0000
  O   O6        1.0  0.3820929170441048  0.3254840091914702  0.5021480603675101  1.0000
  O   O7        1.0  0.6051185010007956  0.5428346318043183  0.6102621919208886  1.0000
  O   O8        1.0  0.377068697491886  0.49787412611843956  0.6113604908685347  1.0000
  O   O9        1.0  0.2491434212048489  0.36303308582397165  0.14815547781918786  1.0000
  O   O10       1.0  0.24001207378506706  0.4147594250229432  0.2810100974527998  1.0000
