data_image0
_chemical_formula_structural       Cd2H46C64N10O8
_chemical_formula_sum              "Cd2 H46 C64 N10 O8"
_cell_length_a       9.669031594375278
_cell_length_b       10.132706617891545
_cell_length_c       15.295510065730527
_cell_angle_alpha    72.88581179032059
_cell_angle_beta     84.87316251971461
_cell_angle_gamma    63.86253306704931

_space_group_name_H-M_alt    "P 1"
_space_group_IT_number       1

loop_
  _space_group_symop_operation_xyz
  'x, y, z'

loop_
  _atom_site_type_symbol
  _atom_site_label
  _atom_site_symmetry_multiplicity
  _atom_site_fract_x
  _atom_site_fract_y
  _atom_site_fract_z
  _atom_site_occupancy
  Cd  Cd1       1.0  0.24839601274145204  0.2066667376978585  0.6575755268734652  1.0000
  Cd  Cd2       1.0  0.7516017676218779  0.7933343486512711  0.34242453090013913  1.0000
  H   H1        1.0  0.006072923903666085  0.9530648722196559  0.20618674361534756  1.0000
  H   H2        1.0  0.9939279268034369  0.046933915500424896  0.7938129251788906  1.0000
  H   H3        1.0  0.4254721645326496  0.9945735256739071  0.3966376844662987  1.0000
  H   H4        1.0  0.5745266071500837  0.005425267336533998  0.6033621100867989  1.0000
  H   H5        1.0  0.3832885554808457  0.9411812626379114  0.25621536231621883  1.0000
  H   H6        1.0  0.6167122623031743  0.05881523341668068  0.7437854130035999  1.0000
  H   H7        1.0  0.902715139856767  0.07386007678660178  0.31641085210454617  1.0000
  H   H8        1.0  0.09728575904311759  0.9261410016269803  0.683589017030769  1.0000
  H   H9        1.0  0.9448227651262188  0.1452101613494179  0.45051551401526513  1.0000
  H   H10       1.0  0.055177626661688635  0.8547920644625004  0.5494835065803227  1.0000
  H   H11       1.0  0.2889224250951515  0.10775735175382546  0.12288606741198285  1.0000
  H   H12       1.0  0.7110794474707519  0.8922391406836067  0.8771159518950566  1.0000
  H   H13       1.0  0.3686489282992369  0.13030048626779228  0.9638350410082592  1.0000
  H   H14       1.0  0.6313514534701382  0.8696994464206751  0.0361670464128778  1.0000
  H   H15       1.0  0.171133682291405  0.8366530868661427  0.9384674941748583  1.0000
  H   H16       1.0  0.8288687555977886  0.16334684198992017  0.06153250718744367  1.0000
  H   H17       1.0  0.09757957735509849  0.8062403019074081  0.09949205041358765  1.0000
  H   H18       1.0  0.9024228199761595  0.19375733576916326  0.9005084040409627  1.0000
  H   H19       1.0  0.4803596258048659  0.21132322178362262  0.47113930609054927  1.0000
  H   H20       1.0  0.5196391458778606  0.7886755712268181  0.5288604884625555  1.0000
  H   H21       1.0  0.20106314209672857  0.5743233441105884  0.5824005271137905  1.0000
  H   H22       1.0  0.7989356854136389  0.42567773910737117  0.41760012121370954  1.0000
  H   H23       1.0  0.28696450799667167  0.6974527416644632  0.4129682038068267  1.0000
  H   H24       1.0  0.7130384370044994  0.3025460397932703  0.5870326460952099  1.0000
  H   H25       1.0  0.37159833672995296  0.7138023777906638  0.28555153870934186  1.0000
  H   H26       1.0  0.6283999354756561  0.2861975621321164  0.7144480607373465  1.0000
  H   H27       1.0  0.4988866849261059  0.7331987940972268  0.14017127445845284  1.0000
  H   H28       1.0  0.5011126344265336  0.26680114269438343  0.8598289155421381  1.0000
  H   H29       1.0  0.727592299167732  0.23921717888825358  0.20649276736205732  1.0000
  H   H30       1.0  0.27240702018490737  0.7607827579033567  0.7935074226385337  1.0000
  H   H31       1.0  0.6066586387813473  0.21859800115148423  0.3536546673775901  1.0000
  H   H32       1.0  0.39334068057129207  0.7814019356401257  0.646345522623001  1.0000
  H   H33       1.0  0.49437107774681976  0.6818480269734051  0.9946010616111207  1.0000
  H   H34       1.0  0.5056282492406651  0.3181519093322151  0.0053997818227883914  1.0000
  H   H35       1.0  0.6093719869645825  0.6842081351577531  0.8450279865332176  1.0000
  H   H36       1.0  0.3906268329109325  0.3157929485461962  0.1549720083609571  1.0000
  H   H37       1.0  0.04128607961147419  0.32230671946932427  0.9796937812614458  1.0000
  H   H38       1.0  0.9587137721413723  0.6776943620754279  0.020305497319974115  1.0000
  H   H39       1.0  0.9234623122074057  0.31743012208621474  0.12768953247575607  1.0000
  H   H40       1.0  0.07653858669247886  0.6825709563273746  0.8723103366595665  1.0000
  H   H41       1.0  0.727136561991685  0.6963835912554613  0.7195309373459151  1.0000
  H   H42       1.0  0.27286072652937315  0.30361864152001766  0.28046957875460515  1.0000
  H   H43       1.0  0.9242958035881372  0.5770627406204839  0.591449444870811  1.0000
  H   H44       1.0  0.07570048597866477  0.4229417859796739  0.4085506810168907  1.0000
  H   H45       1.0  0.11094745275747198  0.2878591299730002  0.8548474699374891  1.0000
  H   H46       1.0  0.8890508041784316  0.7121408109217524  0.14515082264254886  1.0000
  C   C1        1.0  0.18841033551229464  0.07087691804518666  0.433602540236393  1.0000
  C   C2        1.0  0.8115925865843252  0.9291218648705165  0.566396349365668  1.0000
  C   C3        1.0  0.31060956229265463  0.013271357533817297  0.37799227102321703  1.0000
  C   C4        1.0  0.6893928274037575  0.9867262806287441  0.6220075299980079  1.0000
  C   C5        1.0  0.2864568987557733  0.9834634964208602  0.29881305913534817  1.0000
  C   C6        1.0  0.7135439595861754  0.016535290813223493  0.7011872630922225  1.0000
  C   C7        1.0  0.138694512500777  0.003596271358141199  0.2763555727944436  1.0000
  C   C8        1.0  0.8613063382063257  0.9964025163619394  0.7236440959998018  1.0000
  C   C9        1.0  0.016087791046125205  0.06092749076749729  0.33263895846571495  1.0000
  C   C10       1.0  0.9839125525489935  0.9390724443509053  0.6673598617887889  1.0000
  C   C11       1.0  0.040210542047134416  0.09820308672060207  0.40818369913625924  1.0000
  C   C12       1.0  0.95978930207086  0.90179799531014  0.5918149260118353  1.0000
  C   C13       1.0  0.18026974815995803  0.9604202265892989  0.12153390821372766  1.0000
  C   C14       1.0  0.8197331562832845  0.039576263688943  0.878467394780557  1.0000
  C   C15       1.0  0.2648619986769276  0.04559861094153209  0.0838578593465371  1.0000
  C   C16       1.0  0.7351404062891835  0.954399026249049  0.9161432485413386  1.0000
  C   C17       1.0  0.3097555698665033  0.05854332766399037  0.9939568382672304  1.0000
  C   C18       1.0  0.6902468832923957  0.9414566002200927  0.006044469961714954  1.0000
  C   C19       1.0  0.27232955836524303  0.9884282134908132  0.938952216125422  1.0000
  C   C20       1.0  0.727673386635928  0.011570567966920499  0.06104863377661468  1.0000
  C   C21       1.0  0.19876302675345422  0.8941826994694463  0.9793385103119048  1.0000
  C   C22       1.0  0.8012394035008937  0.10581722987260626  0.020660837617072002  1.0000
  C   C23       1.0  0.15680236054116384  0.8776152571112944  0.06923834382866538  1.0000
  C   C24       1.0  0.8432005768251541  0.1223835248324363  0.930761852640046  1.0000
  C   C25       1.0  0.28688890843789494  0.032217536662592694  0.8381831870438174  1.0000
  C   C26       1.0  0.7131130376090199  0.9677835386198194  0.16181727264540058  1.0000
  C   C27       1.0  0.4171836162715153  0.3257436760836325  0.47936068558571054  1.0000
  C   C28       1.0  0.5828146635689321  0.6742562633531574  0.5206395672943032  1.0000
  C   C29       1.0  0.2731576123959628  0.5169407540033218  0.534080775064389  1.0000
  C   C30       1.0  0.7268427464688614  0.4830591801431082  0.4659193520567653  1.0000
  C   C31       1.0  0.3146455142733231  0.5793199074569344  0.4498284561606025  1.0000
  C   C32       1.0  0.6853558841036858  0.42068002404430865  0.550171608081129  1.0000
  C   C33       1.0  0.47977377238147056  0.46593845013370583  0.3302485830306806  1.0000
  C   C34       1.0  0.5202245074589841  0.5340614893030845  0.6697516698493401  1.0000
  C   C35       1.0  0.4499257035734774  0.609320233958364  0.268765985103222  1.0000
  C   C36       1.0  0.5500725686321246  0.39067970596441615  0.7312336143434661  1.0000
  C   C37       1.0  0.5216022609438584  0.6199008300417004  0.18569297407173474  1.0000
  C   C38       1.0  0.47839705077392847  0.3800991072358925  0.8143065624955311  1.0000
  C   C39       1.0  0.6245244022203879  0.48783429929861893  0.16167867362263166  1.0000
  C   C40       1.0  0.375476456121561  0.5121644879354719  0.8383216486049319  1.0000
  C   C41       1.0  0.6524671902730219  0.3445152422887999  0.2240346640701602  1.0000
  C   C42       1.0  0.34753212144476464  0.655484694988793  0.7759648724970987  1.0000
  C   C43       1.0  0.5817503226625079  0.3323991890490134  0.3075570784944118  1.0000
  C   C44       1.0  0.4182479571779467  0.667600750387777  0.6924431743856017  1.0000
  C   C45       1.0  0.6986050139600052  0.4977461418673169  0.07280702227861724  1.0000
  C   C46       1.0  0.30139534490481895  0.5022537922791057  0.9271931048425439  1.0000
  C   C47       1.0  0.6149664499094031  0.6036052443001053  0.9917067305264521  1.0000
  C   C48       1.0  0.3850339089554212  0.39639468984632487  0.008293396594709167  1.0000
  C   C49       1.0  0.6803354253992708  0.6056170597333829  0.9066448746795713  1.0000
  C   C50       1.0  0.3196638939533686  0.3943828770582271  0.09335531532101266  1.0000
  C   C51       1.0  0.8333085788319183  0.5022866050757031  0.9010087903929928  1.0000
  C   C52       1.0  0.16669074815556675  0.49771333122991723  0.09899205304091649  1.0000
  C   C53       1.0  0.9206440897068261  0.40078392821034464  0.9814898309146042  1.0000
  C   C54       1.0  0.0793562615231522  0.5992160064220754  0.018509642773231895  1.0000
  C   C55       1.0  0.8534949819523733  0.3980829120690784  0.06588165456905407  1.0000
  C   C56       1.0  0.1465059169475111  0.6019181663445038  0.9341182145662685  1.0000
  C   C57       1.0  0.833790417870034  0.5930835578511375  0.7284784142475614  1.0000
  C   C58       1.0  0.16620789489350332  0.40691867325113407  0.2715207321068788  1.0000
  C   C59       1.0  0.9327848526834897  0.5325672809853613  0.6655901659506113  1.0000
  C   C60       1.0  0.06721038210142169  0.4674372492319564  0.3344087159498698  1.0000
  C   C61       1.0  0.0343589729451779  0.3809306840640189  0.800145697551663  1.0000
  C   C62       1.0  0.9656387997832994  0.6190704027710933  0.19985370678861608  1.0000
  C   C63       1.0  0.21286370479010236  0.10472635692642027  0.5176152154841629  1.0000
  C   C64       1.0  0.7871371535518461  0.8952724303076633  0.48238510674340757  1.0000
  N   N1        1.0  0.3378907232646641  0.3592902465206719  0.5517821087819996  1.0000
  N   N2        1.0  0.6621086037228283  0.6407096897849482  0.44821873465191675  1.0000
  N   N3        1.0  0.4068607285034319  0.4570113394012265  0.41542026906726887  1.0000
  N   N4        1.0  0.5931385908492075  0.5429885973903834  0.584579920933315  1.0000
  N   N5        1.0  0.8988327388264425  0.495472088165023  0.814345532983303  1.0000
  N   N6        1.0  0.10116607341422683  0.5045289960249163  0.18565380847754645  1.0000
  N   N7        1.0  0.05720755841605303  0.3999624685227444  0.711381744458883  1.0000
  N   N8        1.0  0.9427886676882622  0.6000397683558772  0.28861687422109117  1.0000
  N   N9        1.0  0.10913717160710251  0.9610607807522409  0.204207928169339  1.0000
  N   N10       1.0  0.8908626472226616  0.0389380091270297  0.7957924569376543  1.0000
  O   O1        1.0  0.10051544862837153  0.2116545940097651  0.5431151837237491  1.0000
  O   O2        1.0  0.899485942113785  0.7883453379774747  0.45688422708465726  1.0000
  O   O3        1.0  0.34438688331412237  0.02798562602455229  0.5613218718975047  1.0000
  O   O4        1.0  0.6556139673929736  0.9720131616955212  0.43867779689674063  1.0000
  O   O5        1.0  0.3746489676700266  0.09737632143608718  0.8034704377695192  1.0000
  O   O6        1.0  0.6253513911947978  0.902623612710343  0.19652968935164233  1.0000
  O   O7        1.0  0.1989058201833842  0.017201834695470097  0.7874744942296417  1.0000
  O   O8        1.0  0.8010956340212589  0.9828003870132915  0.21252642378649256  1.0000
