data_image0
_chemical_formula_structural       Cd3H46C52N8O14
_chemical_formula_sum              "Cd3 H46 C52 N8 O14"
_cell_length_a       9.795277624238171
_cell_length_b       9.791530918695814
_cell_length_c       14.8149
_cell_angle_alpha    76.20372206950483
_cell_angle_beta     76.20910351133512
_cell_angle_gamma    83.06652859581786

_space_group_name_H-M_alt    "P 1"
_space_group_IT_number       1

loop_
  _space_group_symop_operation_xyz
  'x, y, z'

loop_
  _atom_site_type_symbol
  _atom_site_label
  _atom_site_symmetry_multiplicity
  _atom_site_fract_x
  _atom_site_fract_y
  _atom_site_fract_z
  _atom_site_occupancy
  Cd  Cd1       1.0  0.5388119476267831  0.4612376330023267  0.9999327858930442  1.0000
  Cd  Cd2       1.0  0.627748297079947  0.6224409161934616  0.721353548717758  1.0000
  Cd  Cd3       1.0  0.37757044589429983  0.3722473324865732  0.2786581742474397  1.0000
  H   H1        1.0  0.060642456637381804  0.47527442019088534  0.9713828275435361  1.0000
  H   H2        1.0  0.5247357886209301  0.9393706374731039  0.028635774533384516  1.0000
  H   H3        1.0  0.9105022746440883  0.5346385303102464  0.7136039171266546  1.0000
  H   H4        1.0  0.4654114096961166  0.0895521092993761  0.286398540171092  1.0000
  H   H5        1.0  0.3342800536919839  0.6243888010567531  0.6988078090874907  1.0000
  H   H6        1.0  0.37559376071796186  0.6656601386228687  0.3012117906687308  1.0000
  H   H7        1.0  0.11988100344540702  0.7330255441952858  0.5641348736963749  1.0000
  H   H8        1.0  0.2670664838024663  0.880146716037089  0.43585907771949906  1.0000
  H   H9        1.0  0.25895974409893807  0.5996892415321255  0.5546951518431625  1.0000
  H   H10       1.0  0.40032548834518883  0.7409910019398183  0.4453339143935792  1.0000
  H   H11       1.0  0.16054417963339773  0.3581304374789624  0.6085650227668609  1.0000
  H   H12       1.0  0.6418033823317303  0.839437187254596  0.39142944484414943  1.0000
  H   H13       1.0  0.9076886935090301  0.32531469102395494  0.6234743013553441  1.0000
  H   H14       1.0  0.674659337113617  0.0923864504235041  0.3765024236787724  1.0000
  H   H15       1.0  0.017350277154562804  0.21692354159383598  0.5492384677561546  1.0000
  H   H16       1.0  0.7829928713779495  0.9826594272190617  0.450749552092759  1.0000
  H   H17       1.0  0.9281051495263457  0.3757225361631242  0.49775600187594893  1.0000
  H   H18       1.0  0.6242807684694683  0.0719600106152143  0.5022210573979605  1.0000
  H   H19       1.0  0.5592704752175521  0.4615327670725192  0.5641303442672623  1.0000
  H   H20       1.0  0.5384961916215403  0.4407605987819991  0.43585546895190674  1.0000
  H   H21       1.0  0.44183505780748084  0.1993419834121752  0.6153094533559126  1.0000
  H   H22       1.0  0.800659540148864  0.5580922024385444  0.38469367114026193  1.0000
  H   H23       1.0  0.5697416250542275  0.280306745319109  0.8507594081405827  1.0000
  H   H24       1.0  0.7196215482867103  0.43022009627500774  0.1492444267841719  1.0000
  H   H25       1.0  0.48353648512645725  0.0536922657203505  0.8749958649103391  1.0000
  H   H26       1.0  0.9462574002908184  0.5163064883500893  0.12503141740155854  1.0000
  H   H27       1.0  0.5018796263324887  0.9818868083852976  0.7731034440055851  1.0000
  H   H28       1.0  0.01800151000063009  0.4979765544904353  0.2269483006428672  1.0000
  H   H29       1.0  0.3183244597427759  0.825574318357404  0.8590188116101912  1.0000
  H   H30       1.0  0.1743391313980993  0.6815857838606831  0.14099885129969894  1.0000
  H   H31       1.0  0.06279975408509839  0.7904649585568747  0.9004748887017869  1.0000
  H   H32       1.0  0.20943992215723745  0.9371940237054159  0.09953298387097931  1.0000
  H   H33       1.0  0.9717178690014878  0.2398997289585694  0.8444906833619682  1.0000
  H   H34       1.0  0.7601780652566461  0.0283581679448019  0.15548237118285613  1.0000
  H   H35       1.0  0.2266020703477452  0.2761179496228294  0.8062000945378571  1.0000
  H   H36       1.0  0.7239633522270025  0.773392506646303  0.19377714618994452  1.0000
  H   H37       1.0  0.8106816983422291  0.9163175044400731  0.962304445625378  1.0000
  H   H38       1.0  0.0836675855586648  0.18943707320635633  0.037693359579222416  1.0000
  H   H39       1.0  0.7807714782544083  0.0907336996304124  0.8981798138826917  1.0000
  H   H40       1.0  0.9093257745514977  0.2193699922257082  0.10181483989314437  1.0000
  H   H41       1.0  0.9419033060489711  0.05745311701484469  0.6947871903090928  1.0000
  H   H42       1.0  0.9425443056090687  0.0581709252355722  0.30521299118657896  1.0000
  H   H43       1.0  0.8363464468259567  0.8841626474922534  0.6054066156273734  1.0000
  H   H44       1.0  0.11585663709539061  0.1636413014210021  0.3946010508706479  1.0000
  H   H45       1.0  0.6770182235331319  0.77040216608507  0.9026019658887634  1.0000
  H   H46       1.0  0.22962941343117652  0.32300210477391994  0.09740267779777409  1.0000
  C   C1        1.0  0.32919321260650497  0.5361690112742608  0.8894780161095  1.0000
  C   C2        1.0  0.46376933269865367  0.6707606877860001  0.11052749242104201  1.0000
  C   C3        1.0  0.8240876578827924  0.4744069368345619  0.9083779240009023  1.0000
  C   C4        1.0  0.5256380171264964  0.1759873920074426  0.09162948693047923  1.0000
  C   C5        1.0  0.2109969329805921  0.5456565175808024  0.840108388141239  1.0000
  C   C6        1.0  0.4543524256637781  0.7889713693516356  0.15990329815772952  1.0000
  C   C7        1.0  0.07830347517707281  0.5065227939231036  0.8941495730591384  1.0000
  C   C8        1.0  0.4935060551813564  0.9217068633718952  0.10586652541072548  1.0000
  C   C9        1.0  0.9676686649041955  0.5077138707063966  0.849398681946866  1.0000
  C   C10       1.0  0.49232650328673355  0.0323730453497149  0.150606605574751  1.0000
  C   C11       1.0  0.9932247580490313  0.5410197505279796  0.7498258115085362  1.0000
  C   C12       1.0  0.45902035762714644  0.006809164619511399  0.2501807453205416  1.0000
  C   C13       1.0  0.12479082323262249  0.5812960646574297  0.6950464854737888  1.0000
  C   C14       1.0  0.4187360376685022  0.8751968960598048  0.3049611903606362  1.0000
  C   C15       1.0  0.23275227838650644  0.587575042000843  0.7407079298657918  1.0000
  C   C16       1.0  0.4124369044453502  0.7671967992726962  0.25930631311418745  1.0000
  C   C17       1.0  0.14686646694161  0.6195854940643172  0.587567404138454  1.0000
  C   C18       1.0  0.38045334043361834  0.8531293000111758  0.41244131721360594  1.0000
  C   C19       1.0  0.1092752772353336  0.4073514220358447  0.548616043541891  1.0000
  C   C20       1.0  0.5926214904270211  0.8907335967551049  0.4513726521934416  1.0000
  C   C21       1.0  0.2184769827142504  0.3984299407139318  0.455566254437386  1.0000
  C   C22       1.0  0.6015592823058142  0.7815108016771859  0.5444312944805958  1.0000
  C   C23       1.0  0.9826897794698863  0.3258459323503046  0.5552587056447891  1.0000
  C   C24       1.0  0.6741186058799756  0.0173559914280048  0.4447227946210787  1.0000
  C   C25       1.0  0.5439379250607104  0.3841001275556835  0.6306718524945295  1.0000
  C   C26       1.0  0.6159118127207749  0.45606119222114216  0.36931695476788207  1.0000
  C   C27       1.0  0.48678271572943305  0.2553668623373255  0.6550903588083584  1.0000
  C   C28       1.0  0.7446343798405621  0.5131538240502493  0.3449099974888128  1.0000
  C   C29       1.0  0.553136474583468  0.2964463627578127  0.7789328696539639  1.0000
  C   C30       1.0  0.7035061863584816  0.4468266579747748  0.22107096988911928  1.0000
  C   C31       1.0  0.4472993139646421  0.06624073395492049  0.8084333423450899  1.0000
  C   C32       1.0  0.9337046898705453  0.5525710872253882  0.19158826068611753  1.0000
  C   C33       1.0  0.2898885107805286  0.052937565740848  0.830431156442728  1.0000
  C   C34       1.0  0.9470455270365364  0.7100514649310553  0.1695627439082017  1.0000
  C   C35       1.0  0.2420462978393658  0.916631611414779  0.8574231799519862  1.0000
  C   C36       1.0  0.0833114443362106  0.7578916436595264  0.1425773512855883  1.0000
  C   C37       1.0  0.09859427330493988  0.8970104659980223  0.8805279070243442  1.0000
  C   C38       1.0  0.1029220358255998  0.9014058555434303  0.11946988619107658  1.0000
  C   C39       1.0  0.9999025510641815  0.013193546987999098  0.8759573633307767  1.0000
  C   C40       1.0  0.9868067557718022  0.0001475670350999  0.12401781488832606  1.0000
  C   C41       1.0  0.0476763750085354  0.1488297872981832  0.8489736735364701  1.0000
  C   C42       1.0  0.8512125999057433  0.9523660230139726  0.1509994634637195  1.0000
  C   C43       1.0  0.1918107860356386  0.1691940381416828  0.8269551158356946  1.0000
  C   C44       1.0  0.8308549941018202  0.8081782730198696  0.17302875561789227  1.0000
  C   C45       1.0  0.8451457688392523  0.9912868285210266  0.8945614381122836  1.0000
  C   C46       1.0  0.008728602628949  0.1549580354557492  0.105433269002063  1.0000
  C   C47       1.0  0.870004214960403  0.9741490254949168  0.7227912861422753  1.0000
  C   C48       1.0  0.025862864128377804  0.1300392334789748  0.2772101169166064  1.0000
  C   C49       1.0  0.8179843655456126  0.8882882001734841  0.6798048330917935  1.0000
  C   C50       1.0  0.11173710225813953  0.18201023513993417  0.32020080490917024  1.0000
  C   C51       1.0  0.7341865562664012  0.8228179769518249  0.8328993098151684  1.0000
  C   C52       1.0  0.1772116694290133  0.2658314732262639  0.167107350865102  1.0000
  N   N1        1.0  0.5850093136483281  0.4083285266182486  0.7080652637787566  1.0000
  N   N2        1.0  0.5916530726279278  0.4150038268559228  0.2919288153328239  1.0000
  N   N3        1.0  0.49370669201198336  0.201516489079367  0.74937197175705  1.0000
  N   N4        1.0  0.7984573241532189  0.5062086869483977  0.250635367821438  1.0000
  N   N5        1.0  0.733450028899455  0.7947359701727024  0.7491472081503402  1.0000
  N   N6        1.0  0.2053041872139971  0.2665282004419751  0.25085934384620867  1.0000
  N   N7        1.0  0.8157743151344619  0.9314652605928656  0.8194238950699957  1.0000
  N   N8        1.0  0.06855335369389338  0.18428171343018818  0.1805785153201143  1.0000
  O   O1        1.0  0.4353697228640883  0.6096268272957204  0.8507511697913799  1.0000
  O   O2        1.0  0.3902691984214428  0.5646030708371157  0.14922968092960084  1.0000
  O   O3        1.0  0.3193587050669606  0.4520241797609685  0.9708407534141728  1.0000
  O   O4        1.0  0.5479161554361626  0.6806055171275318  0.029173614386898767  1.0000
  O   O5        1.0  0.804188546248696  0.4464208486282502  0.998231481080282  1.0000
  O   O6        1.0  0.5536294370448617  0.19589629314263848  0.0017674716177254132  1.0000
  O   O7        1.0  0.7233713552977363  0.47843551689273056  0.8649692520033199  1.0000
  O   O8        1.0  0.5215899724116184  0.2767535419240019  0.1350279703178217  1.0000
  O   O9        1.0  0.057896776355328  0.548617344735014  0.5535403946294082  1.0000
  O   O10       1.0  0.4514122351442111  0.9421343572304366  0.4464561112306597  1.0000
  O   O11       1.0  0.2931494052803103  0.2827827093580026  0.45349305575067694  1.0000
  O   O12       1.0  0.7171688723067575  0.7068429359679271  0.5465232075678301  1.0000
  O   O13       1.0  0.22478042129111495  0.502453105905154  0.3844067112388174  1.0000
  O   O14       1.0  0.49756785391743097  0.7751907163739986  0.615586434329984  1.0000
