data_image0
_chemical_formula_structural       Cu6H66C102Br6N12O18
_chemical_formula_sum              "Cu6 H66 C102 Br6 N12 O18"
_cell_length_a       10.567208169375313
_cell_length_b       19.089774968882114
_cell_length_c       19.09034054693314
_cell_angle_alpha    116.67304938670368
_cell_angle_beta     100.63436527629334
_cell_angle_gamma    100.63436643016719

_space_group_name_H-M_alt    "P 1"
_space_group_IT_number       1

loop_
  _space_group_symop_operation_xyz
  'x, y, z'

loop_
  _atom_site_type_symbol
  _atom_site_label
  _atom_site_symmetry_multiplicity
  _atom_site_fract_x
  _atom_site_fract_y
  _atom_site_fract_z
  _atom_site_occupancy
  Cu  Cu1       1.0  0.04884993556228784  0.598151663715619  0.2309663199076794  1.0000
  Cu  Cu2       1.0  0.4508042877709856  0.6328313487585007  0.4018782605682603  1.0000
  Cu  Cu3       1.0  0.8180285374762734  0.769016937851596  0.3671327276613069  1.0000
  Cu  Cu4       1.0  0.9511498623488138  0.40184788824250006  0.7690334790671612  1.0000
  Cu  Cu5       1.0  0.549196433355931  0.3671700495248871  0.5981224615361213  1.0000
  Cu  Cu6       1.0  0.1819722230853742  0.2309826141038798  0.6328676935861708  1.0000
  H   H1        1.0  0.433431989629213  0.29111640104834896  0.9182207509999786  1.0000
  H   H2        1.0  0.14229375946515427  0.6270549206448663  0.7088480329989295  1.0000
  H   H3        1.0  0.5152431109458321  0.08177179402490249  0.37291103920352964  1.0000
  H   H4        1.0  0.5665668451995813  0.7088831508854766  0.08177947329624383  1.0000
  H   H5        1.0  0.8577063464004269  0.3729452467684666  0.29115154988873826  1.0000
  H   H6        1.0  0.4847566873970307  0.9182277579601388  0.6270877121772712  1.0000
  H   H7        1.0  0.5792332684886929  0.47523423780211255  0.8547376464285675  1.0000
  H   H8        1.0  0.10399272499562069  0.3794771313541431  0.52469299558323  1.0000
  H   H9        1.0  0.7245502901273541  0.14520229254201664  0.6204885583625597  1.0000
  H   H10       1.0  0.4207665292065243  0.5247653141425345  0.14526267634328588  1.0000
  H   H11       1.0  0.8960064177876603  0.6205230360349105  0.4753070126258264  1.0000
  H   H12       1.0  0.27545077838878035  0.8547978748686802  0.3795116467977521  1.0000
  H   H13       1.0  0.7317314528256845  0.48170553791722875  0.1748088454677584  1.0000
  H   H14       1.0  0.25011362620297456  0.6930875251739153  0.5183075798941842  1.0000
  H   H15       1.0  0.5570183870524942  0.8251791818855735  0.30688875174951835  1.0000
  H   H16       1.0  0.26826738243487097  0.518294014043526  0.8251903312344381  1.0000
  H   H17       1.0  0.7498855167961908  0.30691264222858905  0.4816919045178595  1.0000
  H   H18       1.0  0.44298141085860726  0.17482037007254547  0.6931110472253152  1.0000
  H   H19       1.0  0.5331289945761384  0.40313886754625367  0.04917747153628231  1.0000
  H   H20       1.0  0.13011118623699497  0.6460281178847965  0.5968714681388717  1.0000
  H   H21       1.0  0.4840837265849842  0.9508029065374828  0.35394955371853587  1.0000
  H   H22       1.0  0.466873037238173  0.5968612999021943  0.9508217845056137  1.0000
  H   H23       1.0  0.8698879567621702  0.353972049517715  0.4031280162731789  1.0000
  H   H24       1.0  0.5159163790647199  0.04919726086239249  0.6460505529661519  1.0000
  H   H25       1.0  0.7804255919722818  0.47867254776834045  0.9225707421021525  1.0000
  H   H26       1.0  0.3017974982342508  0.44387462866023947  0.5213273293998242  1.0000
  H   H27       1.0  0.8579162437250858  0.07740217740245471  0.5560948977358322  1.0000
  H   H28       1.0  0.21957355059512185  0.5213276196072483  0.07742978990393089  1.0000
  H   H29       1.0  0.698200989852964  0.5561261541866643  0.4786718404494295  1.0000
  H   H30       1.0  0.14208543983649224  0.9225992208648319  0.4439069704382062  1.0000
  H   H31       1.0  0.9664268116945394  0.5578664416690701  0.056085823071903455  1.0000
  H   H32       1.0  0.40864877523048193  0.49820228035572  0.44211511265752523  1.0000
  H   H33       1.0  0.9104201443665685  0.9438714128168468  0.5017934067526609  1.0000
  H   H34       1.0  0.03357202335013909  0.4421331102782204  0.9439138774273061  1.0000
  H   H35       1.0  0.5913503677686833  0.5017978870467912  0.5578843717545181  1.0000
  H   H36       1.0  0.08958061662684  0.05612813916555129  0.49820596690078395  1.0000
  H   H37       1.0  0.25375517932094743  0.2162970777105144  0.7827445437530756  1.0000
  H   H38       1.0  0.03745159410981805  0.5663532427744045  0.7836258586387927  1.0000
  H   H39       1.0  0.4711409636568079  0.2172531569552447  0.43361418529047313  1.0000
  H   H40       1.0  0.7462439632464566  0.7837030896650674  0.2172559882530009  1.0000
  H   H41       1.0  0.9625497823607958  0.43364754009151346  0.21637413043435316  1.0000
  H   H42       1.0  0.5288591419928964  0.7827470104446307  0.5663859213942146  1.0000
  H   H43       1.0  0.3972647995285499  0.39070496242295855  0.7207488504052577  1.0000
  H   H44       1.0  0.00648317995192824  0.3299653340888112  0.609173497677304  1.0000
  H   H45       1.0  0.6766342616919302  0.2792332854963178  0.6699942282871447  1.0000
  H   H46       1.0  0.6027349981666746  0.6092945895216958  0.279251472366596  1.0000
  H   H47       1.0  0.9935169259136603  0.6700348333245216  0.3908260852103708  1.0000
  H   H48       1.0  0.32336680704008086  0.7207668819278438  0.3300054530761469  1.0000
  H   H49       1.0  0.07250539866562612  0.9008315459235589  0.28607309832722166  1.0000
  H   H50       1.0  0.1717212713273638  0.38525695780970876  0.09921257298051231  1.0000
  H   H51       1.0  0.7864182243162006  0.7139573164897113  0.6146973045879489  1.0000
  H   H52       1.0  0.9274956698505009  0.0991686214871379  0.7139271068330828  1.0000
  H   H53       1.0  0.8282788343223404  0.6147432095901592  0.9007875337041751  1.0000
  H   H54       1.0  0.21358442297532323  0.28604408184224883  0.3853025668736477  1.0000
  H   H55       1.0  0.3668133906046549  0.8572876299650218  0.15452007584168828  1.0000
  H   H56       1.0  0.5095754584560126  0.29722537016559875  0.1427014655575078  1.0000
  H   H57       1.0  0.212321531659235  0.8454610032062461  0.7027482375854887  1.0000
  H   H58       1.0  0.6331876781273564  0.14271253745913265  0.8454796055216035  1.0000
  H   H59       1.0  0.49042337637278155  0.7027741817682338  0.8572987587387217  1.0000
  H   H60       1.0  0.7876795366410221  0.15453916419098587  0.29725249137183596  1.0000
  H   H61       1.0  0.3188274817287819  0.7160076870312508  0.13421522992717155  1.0000
  H   H62       1.0  0.6029995112469704  0.4182282162704211  0.2840127576808554  1.0000
  H   H63       1.0  0.1847508705670506  0.865778351179955  0.5817657959767928  1.0000
  H   H64       1.0  0.6811726241368065  0.2839924803820821  0.8657843529604959  1.0000
  H   H65       1.0  0.39699866888576457  0.5817719511212688  0.715986628255564  1.0000
  H   H66       1.0  0.8152498899945968  0.13422120077552077  0.4182346252706779  1.0000
  C   C1        1.0  0.4296900101884874  0.3162534305467942  0.8769498054834913  1.0000
  C   C2        1.0  0.11343177969680342  0.560644300134868  0.6836952825606062  1.0000
  C   C3        1.0  0.552785569061946  0.12301221973803678  0.439324648235619  1.0000
  C   C4        1.0  0.5703097875067372  0.6837461213978598  0.1230505172883552  1.0000
  C   C5        1.0  0.8865676710409574  0.43935648270939953  0.3163045095612843  1.0000
  C   C6        1.0  0.44721808031485477  0.8769873322633686  0.5606755446417111  1.0000
  C   C7        1.0  0.5253821906165329  0.38953469086190035  0.8977677406516662  1.0000
  C   C8        1.0  0.13592812637966037  0.5082031611428449  0.6104437417804932  1.0000
  C   C9        1.0  0.6277029010661367  0.1022049330932902  0.49177392626175026  1.0000
  C   C10       1.0  0.4746176072945686  0.6104648610962112  0.10223205832317445  1.0000
  C   C11       1.0  0.8640713245739847  0.49179762171488767  0.3895555265443775  1.0000
  C   C12       1.0  0.37229404746454264  0.8977927724909734  0.5082258002263274  1.0000
  C   C13       1.0  0.5113082505799156  0.4174100884369025  0.841132087846745  1.0000
  C   C14       1.0  0.0938909578721763  0.42368294826084707  0.5825206728865097  1.0000
  C   C15       1.0  0.6702184488846753  0.15881817324527245  0.576288977685401  1.0000
  C   C16       1.0  0.4886905840330016  0.5825894634834655  0.15886866024650453  1.0000
  C   C17       1.0  0.9061101104280738  0.5763172191363848  0.4174800560708148  1.0000
  C   C18       1.0  0.32978104107194633  0.8411807632576184  0.4237110373765986  1.0000
  C   C19       1.0  0.7384703166478203  0.4799284627444748  0.11765582942286545  1.0000
  C   C20       1.0  0.2586897101673671  0.6377215144648432  0.5201071317452061  1.0000
  C   C21       1.0  0.6209593401467683  0.8823387527743305  0.36225612532842866  1.0000
  C   C22       1.0  0.2615301363911016  0.5200704737827023  0.8823437603177454  1.0000
  C   C23       1.0  0.7413094330476682  0.3622786529511259  0.4798918288698246  1.0000
  C   C24       1.0  0.37903949468202563  0.11766079915950198  0.6377440989677936  1.0000
  C   C25       1.0  0.6274433093290668  0.4355723577057872  0.04699956822626209  1.0000
  C   C26       1.0  0.19204390002168015  0.611434392149931  0.564492457496044  1.0000
  C   C27       1.0  0.5806118109420524  0.9530041890447337  0.3885480641837943  1.0000
  C   C28       1.0  0.3725565286644112  0.5644253479647929  0.952998358500622  1.0000
  C   C29       1.0  0.8079555509319649  0.38856639070779403  0.43550681082883347  1.0000
  C   C30       1.0  0.4193886418809926  0.046994747468986  0.6114520493538365  1.0000
  C   C31       1.0  0.638696003990141  0.43526433797349984  0.9747975894062505  1.0000
  C   C32       1.0  0.20359666537763835  0.53954436795064  0.5647856861977869  1.0000
  C   C33       1.0  0.6640206559693098  0.0251850963705564  0.4604550568585638  1.0000
  C   C34       1.0  0.36130441069344943  0.5647364449488989  0.025199682206185313  1.0000
  C   C35       1.0  0.7964037484424367  0.460456414917914  0.43521368060270754  1.0000
  C   C36       1.0  0.3359781786436002  0.9748144555498114  0.5395456912346785  1.0000
  C   C37       1.0  0.7631571509762622  0.47961191271241427  0.9775056050782283  1.0000
  C   C38       1.0  0.28365369361076626  0.4978797343658384  0.5204046358947139  1.0000
  C   C39       1.0  0.7857415272708721  0.0224592910525772  0.5021124551121829  1.0000
  C   C40       1.0  0.23684457288356967  0.5203876392808129  0.02249386705084081  1.0000
  C   C41       1.0  0.716345449604276  0.5021204330501378  0.47959432472030966  1.0000
  C   C42       1.0  0.21425761529653187  0.9775408763230047  0.4978880768938935  1.0000
  C   C43       1.0  0.8681808867888918  0.5222586144171117  0.051071844848969705  1.0000
  C   C44       1.0  0.3460554565913085  0.5288004414798948  0.477760375750428  1.0000
  C   C45       1.0  0.8172203500640763  0.9488966337535557  0.47118691441960425  1.0000
  C   C46       1.0  0.13181794782402534  0.47774093750325625  0.9489289032442798  1.0000
  C   C47       1.0  0.6539449572287594  0.4712003413886592  0.5222389910500737  1.0000
  C   C48       1.0  0.18277940754877153  0.05110476447862309  0.5288152806001989  1.0000
  C   C49       1.0  0.3293588193171501  0.2737180869816456  0.8014038056948394  1.0000
  C   C50       1.0  0.05562751850911935  0.5276034509180362  0.7262022596811945  1.0000
  C   C51       1.0  0.5280582465743962  0.19857049023867288  0.4723619185316322  1.0000
  C   C52       1.0  0.6706403232502468  0.7262820803939435  0.198596726311237  1.0000
  C   C53       1.0  0.9443745130893149  0.4723967165169469  0.27379752015772135  1.0000
  C   C54       1.0  0.4719422066804029  0.8014284463019691  0.5276371474119586  1.0000
  C   C55       1.0  0.4088571276203865  0.3714577336401916  0.7667139969671908  1.0000
  C   C56       1.0  0.037361222266078235  0.3951907857293193  0.628449495480595  1.0000
  C   C57       1.0  0.6422271462945234  0.233260712832525  0.604778259524764  1.0000
  C   C58       1.0  0.5911432855520431  0.6285430491879751  0.2332869412243568  1.0000
  C   C59       1.0  0.9626379207330871  0.604809381673192  0.3715499889314485  1.0000
  C   C60       1.0  0.3577748850880269  0.7667394545890006  0.39522204411116474  1.0000
  C   C61       1.0  0.004904717593085119  0.7597349308196043  0.2820474911834693  1.0000
  C   C62       1.0  0.24541240102693235  0.522382358854557  0.2403081769794325  1.0000
  C   C63       1.0  0.722957597154938  0.7179369676501962  0.47758416198923453  1.0000
  C   C64       1.0  0.9950956957952215  0.24026585202201997  0.7179529232110653  1.0000
  C   C65       1.0  0.7545880121454971  0.47761842397360965  0.7596927612121148  1.0000
  C   C66       1.0  0.2770425084947661  0.28206319974967187  0.522415944695453  1.0000
  C   C67       1.0  0.10021369486479158  0.7812317075633359  0.2421819179451318  1.0000
  C   C68       1.0  0.31910572876876125  0.4609557128483316  0.21880639810240862  1.0000
  C   C69       1.0  0.8580997499584698  0.7578396662916163  0.538998127731304  1.0000
  C   C70       1.0  0.8997841775293409  0.21876784438659055  0.7578171602814407  1.0000
  C   C71       1.0  0.6808959550087009  0.5390456854324198  0.78119494627461  1.0000
  C   C72       1.0  0.1418968513988688  0.24215927017880284  0.4610015919038304  1.0000
  C   C73       1.0  0.12730175753998188  0.8610581654463372  0.2524214556288057  1.0000
  C   C74       1.0  0.2662862875463007  0.39138400631779996  0.1389857297446539  1.0000
  C   C75       1.0  0.8748769597488462  0.7476192554064623  0.6085903995790573  1.0000
  C   C76       1.0  0.87269869549894  0.13894077108083988  0.7475781341118051  1.0000
  C   C77       1.0  0.7337112755980683  0.6086149300961308  0.861016707351183  1.0000
  C   C78       1.0  0.1251237613780632  0.2523821428769325  0.3914103225253243  1.0000
  C   C79       1.0  0.2219238239287549  0.8880186233546752  0.22164503590747126  1.0000
  C   C80       1.0  0.33395004988961574  0.33364331913796974  0.11203678596427118  1.0000
  C   C81       1.0  0.0002663321875929014  0.778399452024054  0.6663268250726019  1.0000
  C   C82       1.0  0.7780769366328928  0.11198092860080068  0.7783553853399996  1.0000
  C   C83       1.0  0.6660484375499607  0.666357463668554  0.8879639552760351  1.0000
  C   C84       1.0  0.9997360069335671  0.22160133083922057  0.3336737862731737  1.0000
  C   C85       1.0  0.2921512572594409  0.8359484785322238  0.17880395914807676  1.0000
  C   C86       1.0  0.4562999109922146  0.3428722829633273  0.16406297115512555  1.0000
  C   C87       1.0  0.11340689854530694  0.8211845607191038  0.6570937361899567  1.0000
  C   C88       1.0  0.7078488882567628  0.16404984256665506  0.8211947990856672  1.0000
  C   C89       1.0  0.5437014656942765  0.6571284999160554  0.8359364941209932  1.0000
  C   C90       1.0  0.886593515058884  0.17881622213599252  0.34290615440755795  1.0000
  C   C91       1.0  0.2655598795182996  0.7572218566567415  0.167467204480161  1.0000
  C   C92       1.0  0.5085315116577789  0.41027087147451624  0.24280046088239254  1.0000
  C   C93       1.0  0.09821636680257466  0.8325170468229357  0.5897050218469813  1.0000
  C   C94       1.0  0.7344386475718921  0.24277707983532784  0.8325327121062216  1.0000
  C   C95       1.0  0.4914679386482278  0.5897299113428289  0.757200378833538  1.0000
  C   C96       1.0  0.901781197637071  0.1674818896717696  0.4102942724667571  1.0000
  C   C97       1.0  0.16919332180331986  0.7263736065942511  0.19821959199872183  1.0000
  C   C98       1.0  0.4429653192901455  0.47185371306485985  0.27365279557236016  1.0000
  C   C99       1.0  0.9710757245003736  0.801784314212199  0.5281157383341436  1.0000
  C   C100      1.0  0.8308061681532949  0.2736253299086401  0.8017804230632777  1.0000
  C   C101      1.0  0.5570360569645912  0.5281470697875931  0.7263477172977985  1.0000
  C   C102      1.0  0.028923537666514728  0.19821031426041463  0.4718807483191156  1.0000
  Br  Br1       1.0  0.25655603103894714  0.9966319054017134  0.23669075197407347  1.0000
  Br  Br2       1.0  0.2601301113956751  0.24013985299590246  0.003363210739273335  1.0000
  Br  Br3       1.0  0.019702904083672475  0.7632622859844388  0.7598224034407862  1.0000
  Br  Br4       1.0  0.743445037261303  0.003368261995518699  0.7633099769832512  1.0000
  Br  Br5       1.0  0.7398699942540291  0.759860314403973  0.9966368959454144  1.0000
  Br  Br6       1.0  0.9802975093046343  0.23673849685718545  0.24017801095374838  1.0000
  N   N1        1.0  0.8570198291045087  0.5226370283500826  0.12021007491174622  1.0000
  N   N2        1.0  0.3345084511220477  0.5975720056248122  0.4774011660164915  1.0000
  N   N3        1.0  0.7369052015336877  0.8797686131926168  0.4024289543475843  1.0000
  N   N4        1.0  0.14298027632931107  0.47736313903632777  0.8797905555699544  1.0000
  N   N5        1.0  0.6654906920929876  0.40242816179115687  0.5225977945985392  1.0000
  N   N6        1.0  0.2630971373715881  0.12023216965719999  0.5975721807952112  1.0000
  N   N7        1.0  0.3198926190243867  0.2999687313401864  0.7463744102317023  1.0000
  N   N8        1.0  0.01991437175085761  0.4463236027173636  0.6999544895872347  1.0000
  N   N9        1.0  0.5736254904852133  0.2536070849661201  0.5536328314612505  1.0000
  N   N10       1.0  0.6801071786708305  0.7000308206044605  0.25362591254014416  1.0000
  N   N11       1.0  0.9800860418533331  0.5536771801377326  0.3000454010102799  1.0000
  N   N12       1.0  0.42637399968728573  0.7463918515502286  0.44636665980374335  1.0000
  O   O1        1.0  0.15253561541595664  0.6510413670017455  0.18442552094212047  1.0000
  O   O2        1.0  0.5015703587918239  0.5333651260356619  0.34901466371289996  1.0000
  O   O3        1.0  0.9682268285332258  0.815668456763987  0.46661687040517535  1.0000
  O   O4        1.0  0.8474638749724264  0.3489575695280677  0.8155734465258462  1.0000
  O   O5        1.0  0.4984310172470289  0.46663565680332647  0.6509863729542715  1.0000
  O   O6        1.0  0.03177296959376007  0.18433109520758956  0.5333824047726381  1.0000
  O   O7        1.0  0.9811546675429241  0.6915737274610194  0.282448389267003  1.0000
  O   O8        1.0  0.2901099289017708  0.5909806194963779  0.30839999254895634  1.0000
  O   O9        1.0  0.6990375360587109  0.7174497344968883  0.4090015732259217  1.0000
  O   O10       1.0  0.018843204851208384  0.3084258244889071  0.7175506889595694  1.0000
  O   O11       1.0  0.7098895216201131  0.40902016333443203  0.6916003233699541  1.0000
  O   O12       1.0  0.3009625698068703  0.2825504329164445  0.590998009661746  1.0000
  O   O13       1.0  0.9459902484651865  0.8123620834379323  0.3187130457879588  1.0000
  O   O14       1.0  0.13381791532830783  0.5064692052848085  0.18775470718530568  1.0000
  O   O15       1.0  0.6273115586695822  0.6813180764618635  0.4935332702801175  1.0000
  O   O16       1.0  0.05400889453397178  0.18763808396457898  0.6812864386240847  1.0000
  O   O17       1.0  0.8661824980600059  0.4935315775568155  0.8122457072092217  1.0000
  O   O18       1.0  0.37268854698012177  0.31868209093801164  0.506466836404563  1.0000
