data_image0
_chemical_formula_structural       Zn8H54C78N6O32
_chemical_formula_sum              "Zn8 H54 C78 N6 O32"
_cell_length_a       21.57507263364226
_cell_length_b       21.255477630296387
_cell_length_c       21.885082651237145
_cell_angle_alpha    90.07453381228098
_cell_angle_beta     120.81397848917976
_cell_angle_gamma    119.13731334800839

_space_group_name_H-M_alt    "P 1"
_space_group_IT_number       1

loop_
  _space_group_symop_operation_xyz
  'x, y, z'

loop_
  _atom_site_type_symbol
  _atom_site_label
  _atom_site_symmetry_multiplicity
  _atom_site_fract_x
  _atom_site_fract_y
  _atom_site_fract_z
  _atom_site_occupancy
  Zn  Zn1       1.0  0.09465063188230259  0.12148939934569818  0.03479261663601108  1.0000
  Zn  Zn2       1.0  0.09591001270653265  0.9738281582468532  0.03830235280656777  1.0000
  Zn  Zn3       1.0  0.9469258261058111  0.974328104464973  0.8887042608614306  1.0000
  Zn  Zn4       1.0  0.9475371508532291  0.9766468185560057  0.038431959415504445  1.0000
  Zn  Zn5       1.0  0.9565552293146453  0.40623762290078247  0.464075286830024  1.0000
  Zn  Zn6       1.0  0.9381274200728807  0.5391900827009765  0.4571302359841808  1.0000
  Zn  Zn7       1.0  0.10385071001426384  0.5565495469988734  0.4679638878730401  1.0000
  Zn  Zn8       1.0  0.08807553601707233  0.5465730816188454  0.6123398665887407  1.0000
  H   H1        1.0  0.5807865151092811  0.4210861101579865  0.1845792916755045  1.0000
  H   H2        1.0  0.5479101419147552  0.48205468323368444  0.1891300662894082  1.0000
  H   H3        1.0  0.4691500548548644  0.38870503932347583  0.12066908402678676  1.0000
  H   H4        1.0  0.4561086305138388  0.39289176939684  0.22806930065583936  1.0000
  H   H5        1.0  0.5666740285516738  0.4253580353059191  0.2932741949529287  1.0000
  H   H6        1.0  0.35068599880396073  0.275517129425495  0.16017227646869966  1.0000
  H   H7        1.0  0.5390503141997981  0.13051202954993357  0.24323306762385488  1.0000
  H   H8        1.0  0.7027356747069219  0.2299633899547686  0.3321682585965532  1.0000
  H   H9        1.0  0.6589556946664104  0.40725955490588456  0.31294571143857297  1.0000
  H   H10       1.0  0.06913261560183055  0.4284508561379425  0.8498989227159227  1.0000
  H   H11       1.0  0.1668767611416299  0.4875984028489029  0.9424829394225894  1.0000
  H   H12       1.0  0.08274398610881654  0.3952642121850758  0.927516046989247  1.0000
  H   H13       1.0  0.2077801274932226  0.3948132822632288  0.9469249945170616  1.0000
  H   H14       1.0  0.19669588728126533  0.42798330408336227  0.8705857667807279  1.0000
  H   H15       1.0  0.1261369593301254  0.27767767740220967  0.9349320234570512  1.0000
  H   H16       1.0  0.8869224944364617  0.13669839998059527  0.6076228537063031  1.0000
  H   H17       1.0  0.9119107028218352  0.2374307542920916  0.5448812673375371  1.0000
  H   H18       1.0  0.10516109060643684  0.4127387310957075  0.7617802678656815  1.0000
  H   H19       1.0  0.2578788063803684  0.4303118126719028  0.37430356534615333  1.0000
  H   H20       1.0  0.3167999543342502  0.49005663358107643  0.3404822683406792  1.0000
  H   H21       1.0  0.2871482362851409  0.39437083151599944  0.3275211357253339  1.0000
  H   H22       1.0  0.1881315901746844  0.4054444190872103  0.20676686971674474  1.0000
  H   H23       1.0  0.15791024818607716  0.4418824425748227  0.2511524270817063  1.0000
  H   H24       1.0  0.13457239464632656  0.2863877150196288  0.1672540229710151  1.0000
  H   H25       1.0  0.8986623405376761  0.15127893518359767  0.2561876683003205  1.0000
  H   H26       1.0  0.9171287577762043  0.2539110220140444  0.33561984131407735  1.0000
  H   H27       1.0  0.12081662194852773  0.426374463191216  0.3229847591470119  1.0000
  H   H28       1.0  0.23265808127164408  0.815444710780241  0.8420139888561876  1.0000
  H   H29       1.0  0.295371992146748  0.8127547833831699  0.9338930074402468  1.0000
  H   H30       1.0  0.2686397001909737  0.8809207059362689  0.922224255180488  1.0000
  H   H31       1.0  0.17353198550731003  0.773463847319128  0.9466297359597319  1.0000
  H   H32       1.0  0.1372666920838766  0.705964511537388  0.8687658149155054  1.0000
  H   H33       1.0  0.12465268047422715  0.8438570821875756  0.9370999216097927  1.0000
  H   H34       1.0  0.8634055784080343  0.7332279635137836  0.6114707529793647  1.0000
  H   H35       1.0  0.8821316380366893  0.6541026887246345  0.5445238381447337  1.0000
  H   H36       1.0  0.09563060184307647  0.686615227390419  0.7579485086552253  1.0000
  H   H37       1.0  0.07617864251456984  0.6478081480251274  0.19933586967826486  1.0000
  H   H38       1.0  0.17581734813341388  0.6867972624272268  0.20853024371811557  1.0000
  H   H39       1.0  0.09332611626686553  0.6974408273546188  0.13831586631877701  1.0000
  H   H40       1.0  0.21654712546030885  0.8194777113173399  0.24817863642979165  1.0000
  H   H41       1.0  0.20229103901228015  0.7724234424842251  0.3106798578730475  1.0000
  H   H42       1.0  0.13467887374117252  0.8555631712337542  0.17632336022600004  1.0000
  H   H43       1.0  0.8891622546776788  0.7549145200730292  0.2548545126907484  1.0000
  H   H44       1.0  0.9054384076567384  0.670702885133778  0.33517522764681457  1.0000
  H   H45       1.0  0.10872261150360865  0.6956322309972405  0.3246054295205595  1.0000
  H   H46       1.0  0.46206014892076275  0.8251832891711074  0.5909862455191471  1.0000
  H   H47       1.0  0.4927868302302869  0.8165563731361871  0.5314985597759048  1.0000
  H   H48       1.0  0.5733557526477211  0.8860582758666239  0.6233629601414562  1.0000
  H   H49       1.0  0.5833869876220631  0.7735899701455152  0.6203196781545658  1.0000
  H   H50       1.0  0.47318203067671727  0.7110589814715522  0.5877182619926484  1.0000
  H   H51       1.0  0.6905801952869622  0.8460519261728974  0.7361316962465237  1.0000
  H   H52       1.0  0.508657758876879  0.7615146739694155  0.8779557919647588  1.0000
  H   H53       1.0  0.34418419175065645  0.6778162140402983  0.7792601035357477  1.0000
  H   H54       1.0  0.38213937568150386  0.6958434725018349  0.6044797420893033  1.0000
  C   C1        1.0  0.5280157499309225  0.4225633407318624  0.17898833387759785  1.0000
  C   C2        1.0  0.5091899353009096  0.39126452671011686  0.2345057598540237  1.0000
  C   C3        1.0  0.3935677414122337  0.25584386993304525  0.1789896820596013  1.0000
  C   C4        1.0  0.3559611986182318  0.1784241378111346  0.1576870547938682  1.0000
  C   C5        1.0  0.2585045180788512  0.1284532223968426  0.11213525385853271  1.0000
  C   C6        1.0  0.4117481326025185  0.15035181030238218  0.18046974977272606  1.0000
  C   C7        1.0  0.5074785465533722  0.2123831179993019  0.2306872970668721  1.0000
  C   C8        1.0  0.5669270808248328  0.19145361767493796  0.2600117209277428  1.0000
  C   C9        1.0  0.6563298606962391  0.24585173917969164  0.3083068896870103  1.0000
  C   C10       1.0  0.6885173685911425  0.3237887553546416  0.3272212200603661  1.0000
  C   C11       1.0  0.6311917827196324  0.3464100813656756  0.2976379233152642  1.0000
  C   C12       1.0  0.5403040293009196  0.29089164671508166  0.25020578675987076  1.0000
  C   C13       1.0  0.7849382608080546  0.3821717296988751  0.380047209508355  1.0000
  C   C14       1.0  0.11695228588447282  0.4284237525855089  0.9035839143421995  1.0000
  C   C15       1.0  0.16025765670842415  0.3945541129253485  0.8927691032609105  1.0000
  C   C16       1.0  0.08422868075523837  0.2587272203109379  0.8734745331343491  1.0000
  C   C17       1.0  0.023730168506474986  0.18159840988798948  0.8344522025029875  1.0000
  C   C18       1.0  0.022595769671191618  0.13076503523318192  0.8812741207352631  1.0000
  C   C19       1.0  0.9655469708218617  0.1546533661596072  0.7518914039351472  1.0000
  C   C20       1.0  0.9834975233429191  0.2174257600868045  0.7189432788115369  1.0000
  C   C21       1.0  0.9349792993831156  0.19748362416288495  0.640137583205238  1.0000
  C   C22       1.0  0.9485032866431808  0.2526063572293111  0.6059515974938634  1.0000
  C   C23       1.0  0.010376318722165849  0.33040492048156983  0.6507909114728108  1.0000
  C   C24       1.0  0.05859370059238239  0.35203504754380077  0.7291797305004835  1.0000
  C   C25       1.0  0.04681849886450345  0.29566175862711214  0.763813440352493  1.0000
  C   C26       1.0  0.02319025877731914  0.3890315024333049  0.6126873394285255  1.0000
  C   C27       1.0  0.26536746186412313  0.4313599358829164  0.3282670343073946  1.0000
  C   C28       1.0  0.1796768868432109  0.4044499051425631  0.2522472768607997  1.0000
  C   C29       1.0  0.09429735392062356  0.2684650060623142  0.18797509998974243  1.0000
  C   C30       1.0  0.03415455640132586  0.19162979327741428  0.1674828320802391  1.0000
  C   C31       1.0  0.029114430678546875  0.13881820251206986  0.11762661119615808  1.0000
  C   C32       1.0  0.9793168260754541  0.1662833953365137  0.1946047937210764  1.0000
  C   C33       1.0  0.9966758784929012  0.23056757095188368  0.24336823480447123  1.0000
  C   C34       1.0  0.9463837140158234  0.21189318836891857  0.27116459378903107  1.0000
  C   C35       1.0  0.9568233734409759  0.2681421764177969  0.31474161378746857  1.0000
  C   C36       1.0  0.019704948523653242  0.34568943670516455  0.33268344335390754  1.0000
  C   C37       1.0  0.07209641040995496  0.36598330944451607  0.30723973513817526  1.0000
  C   C38       1.0  0.06015116832651291  0.3084446750831375  0.2616295617847583  1.0000
  C   C39       1.0  0.026576283764768338  0.40400260687162154  0.3786789896473621  1.0000
  C   C40       1.0  0.24407871751412785  0.8219210482470058  0.8973023277793712  1.0000
  C   C41       1.0  0.1608380818393085  0.7653438201419219  0.8908527942321596  1.0000
  C   C42       1.0  0.07886717563312816  0.8189785005009895  0.8757529814116793  1.0000
  C   C43       1.0  0.01646744514052758  0.8344432352817465  0.8384112678967455  1.0000
  C   C44       1.0  0.018064094614864013  0.8864219748132243  0.8856432784344931  1.0000
  C   C45       1.0  0.9521341391470481  0.7991117730942462  0.7564858761558354  1.0000
  C   C46       1.0  0.9681155581232872  0.7540652805563183  0.7211613227800485  1.0000
  C   C47       1.0  0.9137103029961294  0.7220804786240365  0.6422041891343824  1.0000
  C   C48       1.0  0.9238714337492836  0.6786430833438217  0.6057709636602764  1.0000
  C   C49       1.0  0.9896187684126119  0.6656932224679863  0.648529158205143  1.0000
  C   C50       1.0  0.04501431204313626  0.697203291993965  0.7270566101188081  1.0000
  C   C51       1.0  0.034905257872374126  0.7417600886684709  0.7640156233511632  1.0000
  C   C52       1.0  0.9995421249653016  0.6180412868879512  0.6086159210948804  1.0000
  C   C53       1.0  0.12550489532347334  0.6963090916676862  0.19629145365428968  1.0000
  C   C54       1.0  0.16763327315640444  0.7717204924489777  0.25220505874682425  1.0000
  C   C55       1.0  0.0921398084101453  0.8327552167479266  0.19479110464907715  1.0000
  C   C56       1.0  0.032164063174945724  0.8506139629968598  0.1729424867769892  1.0000
  C   C57       1.0  0.03005507391427618  0.8996259412176784  0.1243152860972358  1.0000
  C   C58       1.0  0.9749065345630182  0.8212321105487346  0.19764930860547014  1.0000
  C   C59       1.0  0.9888381041870317  0.7721577119706069  0.24484330339728183  1.0000
  C   C60       1.0  0.9365924836838246  0.7408822839146296  0.27084262913013657  1.0000
  C   C61       1.0  0.9457276147734459  0.6950516178052908  0.3147852868083517  1.0000
  C   C62       1.0  0.00851054226462358  0.6792258169215443  0.33407300922084454  1.0000
  C   C63       1.0  0.061219972243009096  0.7093774577039725  0.3088159343863666  1.0000
  C   C64       1.0  0.05193173066682271  0.7562451743658938  0.2641923941951204  1.0000
  C   C65       1.0  0.01691948767862765  0.6297000480822914  0.3820875086960313  1.0000
  C   C66       1.0  0.5136592350699797  0.8278170701907043  0.590084765201105  1.0000
  C   C67       1.0  0.5314919568366958  0.7699037695530179  0.62150741530926  1.0000
  C   C68       1.0  0.6488623164464468  0.8268297483475562  0.7554622684257309  1.0000
  C   C69       1.0  0.6878916124438561  0.8481584904741271  0.8318660952605442  1.0000
  C   C70       1.0  0.7856005576266794  0.8962825937478199  0.8821016356842077  1.0000
  C   C71       1.0  0.633213620552844  0.8231883249139073  0.8591348382923343  1.0000
  C   C72       1.0  0.5370344872020494  0.7742149744969209  0.7972034027503054  1.0000
  C   C73       1.0  0.4790907155488566  0.7457891708218796  0.8176355257251514  1.0000
  C   C74       1.0  0.38935470804481287  0.7003409822523992  0.763633794581324  1.0000
  C   C75       1.0  0.3550241214377506  0.6825953245782654  0.6865233366784835  1.0000
  C   C76       1.0  0.4111508554013028  0.7103047690056954  0.6645737891717332  1.0000
  C   C77       1.0  0.5025537439751062  0.7556630205707648  0.7197020387139403  1.0000
  C   C78       1.0  0.25765813719625186  0.6334284085329145  0.6289493920915774  1.0000
  N   N1        1.0  0.4805379541657828  0.3111193130998302  0.22233646432420778  1.0000
  N   N2        1.0  0.09696657562527375  0.31472801559070956  0.8423496380774367  1.0000
  N   N3        1.0  0.10865014100225062  0.3257153312622164  0.23224041364973397  1.0000
  N   N4        1.0  0.08898441245203491  0.7742879705572248  0.8426633793606938  1.0000
  N   N5        1.0  0.10394514500151059  0.7885471563068333  0.23820565776744457  1.0000
  N   N6        1.0  0.5613866885394144  0.7829704846410549  0.700456603325918  1.0000
  O   O1        1.0  0.02001373350167771  0.0105619758752624  0.9997810200605174  1.0000
  O   O2        1.0  0.22056100493063724  0.05666655380645838  0.08919704866058711  1.0000
  O   O3        1.0  0.22053877217562254  0.16315042174171168  0.10015733492851102  1.0000
  O   O4        1.0  0.3863693236142112  0.082647954888948  0.16235296184932937  1.0000
  O   O5        1.0  0.8139971669297024  0.45235926671499255  0.38679196448037345  1.0000
  O   O6        1.0  0.8314873495275633  0.3567999962311816  0.41521927628749483  1.0000
  O   O7        1.0  0.9656334947335593  0.059369712895175994  0.8480877923293305  1.0000
  O   O8        1.0  0.08100339283480197  0.16463555767385427  0.9529708373218497  1.0000
  O   O9        1.0  0.9061865799737632  0.08745258378225877  0.7101515613941132  1.0000
  O   O10       1.0  0.06252083765957649  0.45847676066538406  0.6501693463794638  1.0000
  O   O11       1.0  0.9924910650272523  0.36374257972103397  0.5437418275522035  1.0000
  O   O12       1.0  0.980662171807772  0.067653027183681  0.10355184410447302  1.0000
  O   O13       1.0  0.07599667710107377  0.17104394829323155  0.09313017636063135  1.0000
  O   O14       1.0  0.9223664998587323  0.09941110185873468  0.1799652960925826  1.0000
  O   O15       1.0  0.09114384575043726  0.47415551212628765  0.40730008776455406  1.0000
  O   O16       1.0  0.9637591669463317  0.3772230458950147  0.3852716218717659  1.0000
  O   O17       1.0  0.975898836593977  0.9155469577164437  0.8524343116884552  1.0000
  O   O18       1.0  0.06385468153518288  0.8984165729579628  0.9569874045479452  1.0000
  O   O19       1.0  0.8881803304747039  0.8026848901632135  0.7173196294424642  1.0000
  O   O20       1.0  0.059048991855014644  0.6063001091920909  0.6485288832267955  1.0000
  O   O21       1.0  0.9463987502109247  0.5923676639473426  0.5367039909945389  1.0000
  O   O22       1.0  0.971335847448422  0.9126062208825728  0.0986442496384752  1.0000
  O   O23       1.0  0.08885239643070963  0.9244952229452537  0.1120526294256763  1.0000
  O   O24       1.0  0.9194811172205203  0.8338472465137697  0.18331872513714842  1.0000
  O   O25       1.0  0.07638640395668951  0.6176775938598736  0.4028655176643666  1.0000
  O   O26       1.0  0.9621905976529775  0.6033017852506077  0.3984351534695136  1.0000
  O   O27       1.0  0.8237545328485539  0.9183381786466144  0.9528800236849834  1.0000
  O   O28       1.0  0.8230319615528855  0.9114321355930599  0.8485122678905058  1.0000
  O   O29       1.0  0.6594533116906544  0.8387224249151115  0.925828503590857  1.0000
  O   O30       1.0  0.22721814233676682  0.6199625002693094  0.5590624006312696  1.0000
  O   O31       1.0  0.21292899362637735  0.6087654070220481  0.6555872837101546  1.0000
  O   O32       1.0  0.027772997492789216  0.5176158549385546  0.5026150127985217  1.0000
