data_image0
_chemical_formula_structural       Al4H52C64O36
_chemical_formula_sum              "Al4 H52 C64 O36"
_cell_length_a       6.642515860334658
_cell_length_b       20.803932376054796
_cell_length_c       23.647813874082445
_cell_angle_alpha    90.05256088763635
_cell_angle_beta     90.01481346926958
_cell_angle_gamma    90.43157194779852

_space_group_name_H-M_alt    "P 1"
_space_group_IT_number       1

loop_
  _space_group_symop_operation_xyz
  'x, y, z'

loop_
  _atom_site_type_symbol
  _atom_site_label
  _atom_site_symmetry_multiplicity
  _atom_site_fract_x
  _atom_site_fract_y
  _atom_site_fract_z
  _atom_site_occupancy
  Al  Al1       1.0  0.7630331167644898  0.7504888023801899  0.7487176862743038  1.0000
  Al  Al2       1.0  0.2341072841623202  0.24815409192748925  0.25172034487346906  1.0000
  Al  Al3       1.0  0.2627980727646389  0.747551367337387  0.7485593852034139  1.0000
  Al  Al4       1.0  0.7346672225409635  0.25071262011535117  0.2517303783712777  1.0000
  H   H1        1.0  0.7810698706481176  0.6711191656578707  0.5140423101823683  1.0000
  H   H2        1.0  0.6228434374659317  0.6391763915012022  0.569026307340607  1.0000
  H   H3        1.0  0.5138956094120672  0.6636940982948547  0.5033361030596877  1.0000
  H   H4        1.0  0.3764476104242648  0.3625697108253335  0.4292768326702187  1.0000
  H   H5        1.0  0.216715993951432  0.33155183668085914  0.4843884960779261  1.0000
  H   H6        1.0  0.4837287087120287  0.3384619715890765  0.49529535038602274  1.0000
  H   H7        1.0  0.41100909422551984  0.4071106052975822  0.07275408270944438  1.0000
  H   H8        1.0  0.5309115705310745  0.4444436813837244  0.012873317220098095  1.0000
  H   H9        1.0  0.5241095739801054  0.35826826892029845  0.019157625455221695  1.0000
  H   H10       1.0  0.8414484381362187  0.6835519271246258  0.964344086683688  1.0000
  H   H11       1.0  0.9349021321230636  0.6790002011385357  0.03560505995751839  1.0000
  H   H12       1.0  0.6770208410862112  0.7001432133669214  0.022511447750559892  1.0000
  H   H13       1.0  0.0893426206580017  0.9045432184714387  0.9257366215057484  1.0000
  H   H14       1.0  0.9670883449818036  0.9427897866973752  0.9845579625793446  1.0000
  H   H15       1.0  0.971979559891942  0.8565053373680983  0.9794985041165486  1.0000
  H   H16       1.0  0.6563391338071087  0.18477940825643915  0.035563409846190594  1.0000
  H   H17       1.0  0.5623195293376995  0.1790731861696103  0.9643778436407826  1.0000
  H   H18       1.0  0.820177435344391  0.20176769799176242  0.9771844282586667  1.0000
  H   H19       1.0  0.90266394675556  0.09666594664187764  0.4256528106336288  1.0000
  H   H20       1.0  0.030015500696578105  0.05705717678208092  0.48290638677001835  1.0000
  H   H21       1.0  0.023751847154990503  0.14342781921639872  0.4796491513847341  1.0000
  H   H22       1.0  0.340752678051075  0.8136347566451935  0.5358455764063235  1.0000
  H   H23       1.0  0.4455265318820095  0.8195233562782677  0.4658549953033243  1.0000
  H   H24       1.0  0.1866244535577337  0.7961690091122552  0.47544914236566865  1.0000
  H   H25       1.0  0.7336920091245176  0.5390826455553965  0.35961379606978017  1.0000
  H   H26       1.0  0.5396622814440378  0.5646081584043403  0.4077500966620632  1.0000
  H   H27       1.0  0.49657278903043084  0.49729114668956975  0.3613715105268013  1.0000
  H   H28       1.0  0.46439407335748223  0.43833934279987125  0.5891553667533171  1.0000
  H   H29       1.0  0.2663249841620329  0.4612644070626005  0.6369635886726355  1.0000
  H   H30       1.0  0.5003900979230735  0.5047836919193361  0.6369665820613475  1.0000
  H   H31       1.0  0.10070474363269004  0.456111013422465  0.8514137379695083  1.0000
  H   H32       1.0  0.24895404462309056  0.39991058060171286  0.891651052481748  1.0000
  H   H33       1.0  0.36877228334918044  0.45402997831523356  0.8425271712338043  1.0000
  H   H34       1.0  0.7979078714872544  0.6034471894386688  0.12377668955497964  1.0000
  H   H35       1.0  0.9290993306323262  0.5380466545568084  0.15722967720738976  1.0000
  H   H36       1.0  0.6648252310111716  0.5489053528130088  0.16950226188860273  1.0000
  H   H37       1.0  0.39848223703075564  0.9574922812778799  0.14787271804456734  1.0000
  H   H38       1.0  0.2512089970620508  0.8995771023531706  0.10837462979486648  1.0000
  H   H39       1.0  0.13075378813507402  0.9531751858693629  0.15742502869279204  1.0000
  H   H40       1.0  0.70255634008565  0.10322684934705961  0.8754168377675594  1.0000
  H   H41       1.0  0.5728550366356445  0.036407521512202806  0.8426204310699956  1.0000
  H   H42       1.0  0.8373032999678645  0.048570947032168015  0.8307004413410721  1.0000
  H   H43       1.0  0.6058386622654981  0.04319508517573211  0.648308020176479  1.0000
  H   H44       1.0  0.7548874265172644  0.09944108828791091  0.6075834526546939  1.0000
  H   H45       1.0  0.8742309778004013  0.04596255448327471  0.6569188491625011  1.0000
  H   H46       1.0  0.3117902151879549  0.8988786252189913  0.372231796605078  1.0000
  H   H47       1.0  0.4292950662029824  0.9694946154188604  0.34224734663798967  1.0000
  H   H48       1.0  0.16723981923369996  0.9532942036918687  0.3297367221867019  1.0000
  H   H49       1.0  0.5170384830892943  0.6702190166773152  0.7727501499140457  1.0000
  H   H50       1.0  0.4812155210456055  0.3278855957876844  0.2267887544131567  1.0000
  H   H51       1.0  0.020666532503682295  0.8295108023902314  0.7704717691383106  1.0000
  H   H52       1.0  0.977517219676436  0.17116429159113278  0.2264351956088787  1.0000
  C   C1        1.0  0.5062954451744731  0.8248998195418626  0.6728810778090517  1.0000
  C   C2        1.0  0.49003570542146957  0.17488174613630045  0.3287341337323681  1.0000
  C   C3        1.0  0.4795526628246449  0.17150273585201606  0.17462540100240884  1.0000
  C   C4        1.0  0.519002876537968  0.8260648993090748  0.8261944715530586  1.0000
  C   C5        1.0  0.015375791025590503  0.6713876469081301  0.825451559159745  1.0000
  C   C6        1.0  0.9823443892732088  0.3264234885154452  0.17392578613441853  1.0000
  C   C7        1.0  0.9932216610015489  0.325231200707883  0.3279471714498853  1.0000
  C   C8        1.0  0.0024341788854585007  0.6753363240272279  0.6711651801171425  1.0000
  C   C9        1.0  0.8361581840955028  0.4922151508977067  0.46180694145941437  1.0000
  C   C10       1.0  0.16348237631817847  0.5104396299064717  0.5358791732973456  1.0000
  C   C11       1.0  0.1406504074440562  0.4984567241053955  0.9583677446094183  1.0000
  C   C12       1.0  0.8675333260124704  0.509087379316668  0.04889475840825948  1.0000
  C   C13       1.0  0.3552576953247808  0.9982638521776296  0.04108571382534618  1.0000
  C   C14       1.0  0.6312452370649239  0.009646156435067603  0.9512829137596126  1.0000
  C   C15       1.0  0.6437015950487607  0.0005115376665685002  0.5415752300452252  1.0000
  C   C16       1.0  0.3674646151279007  0.989353090081714  0.451713334102564  1.0000
  C   C17       1.0  0.004683174324739502  0.45036445231050254  0.45961731101806425  1.0000
  C   C18       1.0  0.995014591383715  0.5523134459978323  0.5380011423819012  1.0000
  C   C19       1.0  0.006389743943039202  0.5513141633416155  0.9610098789459156  1.0000
  C   C20       1.0  0.9974775353642331  0.45574290055246547  0.045246097922401377  1.0000
  C   C21       1.0  0.4897153772688938  0.05170739667577351  0.03868439778761969  1.0000
  C   C22       1.0  0.5004982708057781  0.9558572759392875  0.9546185961371021  1.0000
  C   C23       1.0  0.5099006671335289  0.9468681835870001  0.5387889206756922  1.0000
  C   C24       1.0  0.4971892834538921  0.04336951204400211  0.45551312524289483  1.0000
  C   C25       1.0  0.16907907432010919  0.458743397155523  0.4976052217306729  1.0000
  C   C26       1.0  0.8307120775000884  0.5439480674273016  0.49998615298508736  1.0000
  C   C27       1.0  0.8719551402436352  0.5572696131340039  0.007359768868134597  1.0000
  C   C28       1.0  0.13494395365886905  0.4505443975752004  0.9997779938813803  1.0000
  C   C29       1.0  0.6257423733326349  0.0580217900470501  0.9926692346216011  1.0000
  C   C30       1.0  0.36140380313053566  0.9502880485524092  0.9997079625982717  1.0000
  C   C31       1.0  0.37452992322011613  0.9405073541718569  0.4925442215755707  1.0000
  C   C32       1.0  0.6369452457140171  0.04878556851800653  0.5005355126547497  1.0000
  C   C33       1.0  0.0037371812973817  0.4049188433596029  0.41535247470528686  1.0000
  C   C34       1.0  0.9951268621000297  0.5974360383251422  0.5825002828104144  1.0000
  C   C35       1.0  0.0055987833473736025  0.5942605122362751  0.9148921063116614  1.0000
  C   C36       1.0  0.9926955637047286  0.4089918622679393  0.08840317044951716  1.0000
  C   C37       1.0  0.48926901846634513  0.09478319729523582  0.08479253070021997  1.0000
  C   C38       1.0  0.506784527772453  0.908903821866723  0.9115967041448197  1.0000
  C   C39       1.0  0.5094000747438727  0.9036239876228577  0.5846332458694119  1.0000
  C   C40       1.0  0.49071060138925304  0.09073623681220515  0.4129763501481491  1.0000
  C   C41       1.0  0.003753260745057201  0.6332400478421862  0.6232732313783698  1.0000
  C   C42       1.0  0.9934597019673463  0.36862115573429594  0.37494629364763893  1.0000
  C   C43       1.0  0.988723920807445  0.3699976064821585  0.12675836786781494  1.0000
  C   C44       1.0  0.007981893227075402  0.6290325603110888  0.873466404455314  1.0000
  C   C45       1.0  0.512417506829209  0.869751026181419  0.873341629144846  1.0000
  C   C46       1.0  0.4854569388692483  0.12952119648107904  0.12628251428801457  1.0000
  C   C47       1.0  0.48812159228202745  0.13058289022431074  0.3753204050086578  1.0000
  C   C48       1.0  0.509717242191968  0.8682649229580266  0.6256694145816508  1.0000
  C   C49       1.0  0.646198867830755  0.64200067652844  0.5232155104208045  1.0000
  C   C50       1.0  0.35232343714981346  0.36020493825920147  0.47507069637379096  1.0000
  C   C51       1.0  0.44206193478810013  0.402817216692853  0.027246688193393688  1.0000
  C   C52       1.0  0.8033498422327982  0.6708233401222689  0.008070260281058896  1.0000
  C   C53       1.0  0.05559229953098571  0.9010783187903899  0.9711511557783649  1.0000
  C   C54       1.0  0.6941500907339632  0.17187626506530768  0.9918690374438409  1.0000
  C   C55       1.0  0.9401166209397048  0.09896798750720856  0.4708850314060838  1.0000
  C   C56       1.0  0.3094163641341368  0.826414132790909  0.49174296848057947  1.0000
  C   C57       1.0  0.6087414400598095  0.5230596382254051  0.3869488933435646  1.0000
  C   C58       1.0  0.3914570796735859  0.47883097167895283  0.6104601564522907  1.0000
  C   C59       1.0  0.2455605121078364  0.44826097099041834  0.8729589770537699  1.0000
  C   C60       1.0  0.785727758508358  0.5532458464392109  0.1381678736299037  1.0000
  C   C61       1.0  0.2532570395064226  0.9481658286595976  0.12672968493316006  1.0000
  C   C62       1.0  0.7155937769119732  0.052817168302283314  0.8617445172934947  1.0000
  C   C63       1.0  0.7506588404621013  0.05125326250203703  0.6266004424735951  1.0000
  C   C64       1.0  0.2896608509782582  0.949614472396519  0.36061480509777494  1.0000
  O   O1        1.0  0.35175984500449436  0.813767000764692  0.8018391086835447  1.0000
  O   O2        1.0  0.647633617778702  0.18452099511754486  0.19829418173890181  1.0000
  O   O3        1.0  0.6598254918067781  0.19910321327926545  0.3152591438309854  1.0000
  O   O4        1.0  0.3372577927449214  0.7990919954837139  0.6849372191542071  1.0000
  O   O5        1.0  0.8339499522281884  0.7003950367292191  0.6841610401504494  1.0000
  O   O6        1.0  0.162134237175259  0.3008265460230889  0.3144343628790195  1.0000
  O   O7        1.0  0.1502690325620861  0.31329258279541966  0.1972099395401016  1.0000
  O   O8        1.0  0.8486360901181557  0.6836793936217805  0.801119262710557  1.0000
  O   O9        1.0  0.6719859726308145  0.8162617612314098  0.6988253331875568  1.0000
  O   O10       1.0  0.32230318396671714  0.1849488482552105  0.3043582208730412  1.0000
  O   O11       1.0  0.30653608595243054  0.1915105342811714  0.18947237888367133  1.0000
  O   O12       1.0  0.6918092256025761  0.8046807326796215  0.8127419178884094  1.0000
  O   O13       1.0  0.18908093238530913  0.6924760239883203  0.8115863431256183  1.0000
  O   O14       1.0  0.8086748042621325  0.30586369646405853  0.18845431901515738  1.0000
  O   O15       1.0  0.825550950838718  0.31511773278334954  0.30308807724316  1.0000
  O   O16       1.0  0.16872906728621473  0.6835623534687303  0.6972428001620442  1.0000
  O   O17       1.0  0.5137450810581399  0.7095337741112006  0.7507513759620819  1.0000
  O   O18       1.0  0.4837257502754115  0.2886453499661457  0.248876549177126  1.0000
  O   O19       1.0  0.015564463191758209  0.788482260465415  0.751057631207878  1.0000
  O   O20       1.0  0.9819868169969439  0.20991788551430102  0.24927319842187493  1.0000
  O   O21       1.0  0.660073596722576  0.5794030426346171  0.4980441489770298  1.0000
  O   O22       1.0  0.3392867776063966  0.4232388829011884  0.4996352581509098  1.0000
  O   O23       1.0  0.25696804910542437  0.3978191829084779  0.9951525183240616  1.0000
  O   O24       1.0  0.7342578201943514  0.6052396890162159  0.012921906334128196  1.0000
  O   O25       1.0  0.23871702115800286  0.8971335556075318  0.0041564565958011985  1.0000
  O   O26       1.0  0.7636155498901473  0.10660651302544723  0.9873171554221183  1.0000
  O   O27       1.0  0.7596580141603512  0.10183225887305272  0.5052124814880015  1.0000
  O   O28       1.0  0.238971363280541  0.8914016887238677  0.48630246367152086  1.0000
  O   O29       1.0  0.6782140009515487  0.4767557701323499  0.4273577125601732  1.0000
  O   O30       1.0  0.3206214900295238  0.525689501595686  0.5706371813240593  1.0000
  O   O31       1.0  0.27839796731725397  0.497020600124131  0.9153460330205048  1.0000
  O   O32       1.0  0.7306549986881665  0.5112313868005318  0.09235936650279086  1.0000
  O   O33       1.0  0.2171954010772623  0.9960680101173554  0.08406130161394287  1.0000
  O   O34       1.0  0.7699602860100185  0.0120701710122262  0.9082671151677457  1.0000
  O   O35       1.0  0.7816665257433186  0.002246772667561501  0.5844945363630599  1.0000
  O   O36       1.0  0.22838949826470412  0.9867579428524286  0.40877144688408845  1.0000
