data_image0
_chemical_formula_structural       Na2Cu2H36C32N4Cl2O12
_chemical_formula_sum              "Na2 Cu2 H36 C32 N4 Cl2 O12"
_cell_length_a       7.354457692107064
_cell_length_b       11.046259213704822
_cell_length_c       11.127428103961998
_cell_angle_alpha    78.874120237744
_cell_angle_beta     88.97225760091688
_cell_angle_gamma    88.32045330969092

_space_group_name_H-M_alt    "P 1"
_space_group_IT_number       1

loop_
  _space_group_symop_operation_xyz
  'x, y, z'

loop_
  _atom_site_type_symbol
  _atom_site_label
  _atom_site_symmetry_multiplicity
  _atom_site_fract_x
  _atom_site_fract_y
  _atom_site_fract_z
  _atom_site_occupancy
  Na  Na1       1.0  5.008883789500144e-06  2.81763243489663e-06  0.999996300106396  1.0000
  Na  Na2       1.0  0.5000102959743558  4.410182690200019e-06  4.423873313900347e-06  1.0000
  Cu  Cu1       1.0  0.7545668734002647  0.8816943658204935  0.8361851906321505  1.0000
  Cu  Cu2       1.0  0.24543928388454359  0.11830644033374682  0.16381983314106918  1.0000
  H   H1        1.0  0.9183775025474076  0.9364401670934513  0.6372124408270565  1.0000
  H   H2        1.0  0.0816271882435657  0.063563401543  0.36279115366108516  1.0000
  H   H3        1.0  0.5874975026136723  0.6889810854827515  0.8234450960420077  1.0000
  H   H4        1.0  0.41250751211281766  0.31101417684035937  0.17656013991710037  1.0000
  H   H5        1.0  0.9035210938301717  0.25804366730832845  0.8855169243747554  1.0000
  H   H6        1.0  0.09649039893111679  0.741960657881016  0.11446217861062992  1.0000
  H   H7        1.0  0.9815019026065598  0.4360585979862889  0.7223549145409435  1.0000
  H   H8        1.0  0.018489275900471107  0.5639438241125345  0.2776167062489492  1.0000
  H   H9        1.0  0.9070077887976778  0.432622923376023  0.5028628520354701  1.0000
  H   H10       1.0  0.0929512135350876  0.5673675228694465  0.49711509848172847  1.0000
  H   H11       1.0  0.7732623018995638  0.24578897170541583  0.4526864397661043  1.0000
  H   H12       1.0  0.22669255769115887  0.754202514595086  0.5473084268144746  1.0000
  H   H13       1.0  0.5378767871246168  0.023932952482113003  0.6380057620912751  1.0000
  H   H14       1.0  0.4621178231311022  0.9760502800668222  0.361997480333997  1.0000
  H   H15       1.0  0.6751277593293068  0.049247281851030784  0.5023164537340888  1.0000
  H   H16       1.0  0.324862883358925  0.9507331630600929  0.4976846894639023  1.0000
  H   H17       1.0  0.5803351568887082  0.8115294834359047  0.601350510601236  1.0000
  H   H18       1.0  0.41968235060888753  0.18845931320407766  0.3986549662860881  1.0000
  H   H19       1.0  0.7856379584649957  0.8108831361240333  0.513713779500705  1.0000
  H   H20       1.0  0.2143821538297743  0.18910846041004703  0.4862956069630826  1.0000
  H   H21       1.0  0.9452314663403527  0.6929713248640751  0.7001331507473623  1.0000
  H   H22       1.0  0.054782940086646206  0.3070267935245353  0.2998839953983463  1.0000
  H   H23       1.0  0.7530169294365833  0.6108864209615987  0.6683263951353595  1.0000
  H   H24       1.0  0.24700711301451148  0.38910889231573254  0.3316858056624667  1.0000
  H   H25       1.0  0.9587305227741042  0.6430993241107641  0.917429479588293  1.0000
  H   H26       1.0  0.04127268592142029  0.3569070750069159  0.08258255803142589  1.0000
  H   H27       1.0  0.8077242531233537  0.5229250507612306  0.9058874159148544  1.0000
  H   H28       1.0  0.19228869106479612  0.4770758115644113  0.09412560846850941  1.0000
  H   H29       1.0  0.7065003333774555  0.4287488804725682  0.09351987157156572  1.0000
  H   H30       1.0  0.2934932563139228  0.5712602495756585  0.9064863414869532  1.0000
  H   H31       1.0  0.5852833281801892  0.429413538878336  0.3035977107322907  1.0000
  H   H32       1.0  0.41470353524689324  0.5705937386048988  0.6964080464267965  1.0000
  H   H33       1.0  0.5314410414320887  0.6306727178512829  0.37153506600063224  1.0000
  H   H34       1.0  0.46855121864515326  0.3693355138929845  0.6284749347775785  1.0000
  H   H35       1.0  0.6141245429851309  0.8261205897670721  0.23295796817586725  1.0000
  H   H36       1.0  0.3858853228256791  0.17388949539954976  0.7670523655871123  1.0000
  C   C1        1.0  0.7980267536419631  0.14948758581115837  0.7628210415891985  1.0000
  C   C2        1.0  0.20197017293361338  0.8505065984020135  0.23716203163099425  1.0000
  C   C3        1.0  0.8755581975978473  0.2563200976540969  0.7899561749579076  1.0000
  C   C4        1.0  0.12444119831352653  0.7436805410576212  0.21002469334155188  1.0000
  C   C5        1.0  0.9161428687493967  0.35674343895411903  0.6981233622123069  1.0000
  C   C6        1.0  0.08384427445946589  0.643258022809114  0.3018431021017136  1.0000
  C   C7        1.0  0.8782506053313596  0.3542968036316623  0.5759026577868623  1.0000
  C   C8        1.0  0.1217163392280156  0.645699186980785  0.42407500372278406  1.0000
  C   C9        1.0  0.802487823770413  0.2490035727104923  0.5477282370640992  1.0000
  C   C10       1.0  0.19748452169411473  0.7509933536178012  0.4522509755874039  1.0000
  C   C11       1.0  0.7616218258906997  0.14660242254592498  0.6384865674792195  1.0000
  C   C12       1.0  0.23836403415978674  0.8533964063370404  0.36150020418943274  1.0000
  C   C13       1.0  0.6781420897764292  0.0363861771446352  0.6027233566236488  1.0000
  C   C14       1.0  0.32185227420276163  0.9636034911433241  0.3972750191322874  1.0000
  C   C15       1.0  0.7295589739036855  0.8102223753810945  0.6062310974408476  1.0000
  C   C16       1.0  0.2704585681684151  0.18976550451691304  0.39377545932456576  1.0000
  C   C17       1.0  0.7957672426773783  0.696185561186297  0.6960063237814325  1.0000
  C   C18       1.0  0.20425409267134137  0.3038096962411387  0.30399783031325  1.0000
  C   C19       1.0  0.814468025646015  0.6182890634561244  0.9215767981738523  1.0000
  C   C20       1.0  0.1855381089455435  0.3817118416057638  0.07844258547814319  1.0000
  C   C21       1.0  0.730349144533882  0.6254829370227243  0.04452540569263155  1.0000
  C   C22       1.0  0.2696527818869682  0.3745215914134548  0.9554834220930528  1.0000
  C   C23       1.0  0.6848438709032508  0.5160774181163887  0.12452617698276207  1.0000
  C   C24       1.0  0.3151524125909048  0.48393259179778175  0.87547354051447  1.0000
  C   C25       1.0  0.615659240210711  0.5159651155742822  0.24222388361653197  1.0000
  C   C26       1.0  0.38433596845581514  0.4840375232065383  0.7577791033151796  1.0000
  C   C27       1.0  0.5886714294124078  0.6284106321206906  0.2807870089300692  1.0000
  C   C28       1.0  0.41132757111240886  0.3715993903712871  0.7192144728233386  1.0000
  C   C29       1.0  0.6322552536811942  0.7381515842460544  0.20310416521184035  1.0000
  C   C30       1.0  0.3677521167292781  0.2618529260736224  0.796901908639235  1.0000
  C   C31       1.0  0.7041304952224293  0.7396695971222583  0.08427538010821681  1.0000
  C   C32       1.0  0.29587412358286963  0.2603358173616073  0.9157278496086008  1.0000
  N   N1        1.0  0.7820037867694722  0.9209377382816654  0.6531737993224239  1.0000
  N   N2        1.0  0.21800402122833162  0.07905567222664439  0.3468308731869172  1.0000
  N   N3        1.0  0.7247068708889584  0.7047136220989427  0.819806540519984  1.0000
  N   N4        1.0  0.27530057434383787  0.2952890300098758  0.18019810311757564  1.0000
  Cl  Cl1       1.0  0.2455970818527859  0.8766326640182172  0.7834989391011575  1.0000
  Cl  Cl2       1.0  0.7544061396076955  0.12337367946390292  0.2165050210867534  1.0000
  O   O1        1.0  0.7626046600251258  0.05500025431575748  0.8550681561955357  1.0000
  O   O2        1.0  0.23740294336229792  0.9449986442809574  0.14492824206044472  1.0000
  O   O3        1.0  0.7455378805473387  0.8491812052502964  0.014939548731995014  1.0000
  O   O4        1.0  0.25447224430495646  0.150822388541755  0.9850675742685056  1.0000
  O   O5        1.0  0.40694148441205863  0.92261348238479  0.8332035220143793  1.0000
  O   O6        1.0  0.593058204766251  0.07737821763110728  0.166821352285595  1.0000
  O   O7        1.0  0.294440427996399  0.7630864857142114  0.7413591577104909  1.0000
  O   O8        1.0  0.7055638521554711  0.23692806528077168  0.25862878576334936  1.0000
  O   O9        1.0  0.17725050920429203  0.9698074180342999  0.6819044155069562  1.0000
  O   O10       1.0  0.8227655387232957  0.0302183820980702  0.3181063308477761  1.0000
  O   O11       1.0  0.10555346007267023  0.8512298483409918  0.8798391376682417  1.0000
  O   O12       1.0  0.8944312044067289  0.14876443381529464  0.12015843370971167  1.0000
