data_image0
_chemical_formula_structural       Na4H44C32O16
_chemical_formula_sum              "Na4 H44 C32 O16"
_cell_length_a       7.280439479771721
_cell_length_b       7.989851093010912
_cell_length_c       16.195883321207244
_cell_angle_alpha    90.00011757864364
_cell_angle_beta     92.60220864996018
_cell_angle_gamma    90.00014163300781

_space_group_name_H-M_alt    "P 1"
_space_group_IT_number       1

loop_
  _space_group_symop_operation_xyz
  'x, y, z'

loop_
  _atom_site_type_symbol
  _atom_site_label
  _atom_site_symmetry_multiplicity
  _atom_site_fract_x
  _atom_site_fract_y
  _atom_site_fract_z
  _atom_site_occupancy
  Na  Na1       1.0  0.7481173869543198  0.35461898655668733  0.985345448661725  1.0000
  Na  Na2       1.0  0.7518810682044973  0.8546225608767414  0.014653080600226099  1.0000
  Na  Na3       1.0  0.25187350319986734  0.6453815528652953  0.014653527186453597  1.0000
  Na  Na4       1.0  0.24811945179516212  0.14537923014302123  0.9853454906408813  1.0000
  H   H1        1.0  0.3629701098746311  0.580244252047791  0.7256088245938628  1.0000
  H   H2        1.0  0.13702677049305828  0.08024501678351469  0.2743920658714032  1.0000
  H   H3        1.0  0.637030368653356  0.4197525326309445  0.27439468529000516  1.0000
  H   H4        1.0  0.8629710151510253  0.9197555226414663  0.7256045925989909  1.0000
  H   H5        1.0  0.4093820319988382  0.7283445249695432  0.647004012512788  1.0000
  H   H6        1.0  0.09061801648478959  0.2283467597047775  0.352997099076255  1.0000
  H   H7        1.0  0.5906170715758634  0.2716510081198037  0.3529994669814157  1.0000
  H   H8        1.0  0.9093825086944135  0.7716525281381618  0.6470008548328179  1.0000
  H   H9        1.0  0.5183161534650509  0.74559423528801  0.7467722860558367  1.0000
  H   H10       1.0  0.9816833376758609  0.2455956889483701  0.25322985953930294  1.0000
  H   H11       1.0  0.48168570519752757  0.2544025493910809  0.253230636886336  1.0000
  H   H12       1.0  0.018311677329350597  0.7544023473028717  0.7467692074744932  1.0000
  H   H13       1.0  0.8425760496693683  0.0774172093878818  0.8773771105224737  1.0000
  H   H14       1.0  0.657414768688703  0.5774185113840815  0.12261849735014607  1.0000
  H   H15       1.0  0.15741485603228259  0.9225820784425237  0.12262001333298397  1.0000
  H   H16       1.0  0.3425816160867186  0.42258077645781356  0.8773812173839983  1.0000
  H   H17       1.0  0.6241009319512542  0.0750527192489443  0.8798527792402594  1.0000
  H   H18       1.0  0.875888494412898  0.5750545028873119  0.12014403034500987  1.0000
  H   H19       1.0  0.3758899737486274  0.9249453169936857  0.12014434461451627  1.0000
  H   H20       1.0  0.12410787481505987  0.424946036546153  0.8798575363818627  1.0000
  H   H21       1.0  0.46988381133002116  0.34719994162610845  0.0979540386313857  1.0000
  H   H22       1.0  0.030119364168115212  0.8472154229893576  0.9020423237795396  1.0000
  H   H23       1.0  0.5301180525156398  0.6527968430517176  0.9020482669801025  1.0000
  H   H24       1.0  0.9698825515348091  0.15280013549256208  0.09795380853527999  1.0000
  H   H25       1.0  0.5494755417375998  0.160719704604162  0.09543355611940288  1.0000
  H   H26       1.0  0.950526485569398  0.6607348911207112  0.9045654717159053  1.0000
  H   H27       1.0  0.4505235618371017  0.839275828485185  0.904569923374801  1.0000
  H   H28       1.0  0.04947540421991189  0.33928191895529375  0.09543374725301129  1.0000
  H   H29       1.0  0.9864559408644027  0.30214342085545093  0.735537258126669  1.0000
  H   H30       1.0  0.513542340188522  0.8021412268572092  0.2644643009714187  1.0000
  H   H31       1.0  0.013550058212565799  0.6978608733513665  0.2644639039944963  1.0000
  H   H32       1.0  0.4864636744200014  0.19785055146800803  0.7355350091509222  1.0000
  H   H33       1.0  0.5647929359621743  0.6141583778302858  0.5427909520891488  1.0000
  H   H34       1.0  0.9352048142580786  0.11416056475930249  0.4572104034839341  1.0000
  H   H35       1.0  0.4352034228961017  0.3858396584301432  0.45721184929774233  1.0000
  H   H36       1.0  0.0647929558385485  0.8858412262572413  0.5427881069791951  1.0000
  H   H37       1.0  0.029727135344778305  0.28606163408991137  0.5845498184462412  1.0000
  H   H38       1.0  0.4702717011670358  0.786061088449081  0.4154513252413777  1.0000
  H   H39       1.0  0.9702747440589407  0.713941408523027  0.4154506351765902  1.0000
  H   H40       1.0  0.5297343238111765  0.21393319304917918  0.5845467502209515  1.0000
  H   H41       1.0  0.8166809095306888  0.4460965916905976  0.4872816118256934  1.0000
  H   H42       1.0  0.6833164030763185  0.9460983028111086  0.5127200727405209  1.0000
  H   H43       1.0  0.18331820960207074  0.5539051993338686  0.5127200156798466  1.0000
  H   H44       1.0  0.3166813670185391  0.05390223661765249  0.48727843772192597  1.0000
  C   C1        1.0  0.7350957099227742  0.46951688552595516  0.8159832915492513  1.0000
  C   C2        1.0  0.7649030541335478  0.9695161785032835  0.1840172140999243  1.0000
  C   C3        1.0  0.26490891938397704  0.530486157090202  0.18401722285155833  1.0000
  C   C4        1.0  0.23509609609413928  0.030483109338049996  0.8159807094201523  1.0000
  C   C5        1.0  0.7486127381695908  0.46160167085479026  0.7240789414614139  1.0000
  C   C6        1.0  0.751385993169805  0.9616013109228589  0.2759227902796866  1.0000
  C   C7        1.0  0.2513932505323879  0.5383963654156431  0.27592345531773077  1.0000
  C   C8        1.0  0.24861865685688403  0.03839297057378838  0.7240752547936466  1.0000
  C   C9        1.0  0.625439387228674  0.5498208372800022  0.6699036791910088  1.0000
  C   C10       1.0  0.8745581761289287  0.049822365545999496  0.3300982240555257  1.0000
  C   C11       1.0  0.374558351769494  0.45018095374411615  0.3300985352562192  1.0000
  C   C12       1.0  0.1254450885871563  0.9501769223026882  0.6699010252928941  1.0000
  C   C13       1.0  0.8932349114650293  0.36881155378254965  0.6924581940847503  1.0000
  C   C14       1.0  0.6067635682179714  0.8688122497644529  0.307542202533682  1.0000
  C   C15       1.0  0.10676559298717342  0.631191488828783  0.3075422291490852  1.0000
  C   C16       1.0  0.3932451962971228  0.1311820317395487  0.6924571683679871  1.0000
  C   C17       1.0  0.6556498555317845  0.5429582412353395  0.5850657142848019  1.0000
  C   C18       1.0  0.8443476936304535  0.04296004998292349  0.4149355642012153  1.0000
  C   C19       1.0  0.3443478938272335  0.45703979502291486  0.4149352654990324  1.0000
  C   C20       1.0  0.15565556072301942  0.9570417410438451  0.5850649198099305  1.0000
  C   C21       1.0  0.4709221832694793  0.6563396039728671  0.6987921153842505  1.0000
  C   C22       1.0  0.029076281748999105  0.15634148744341303  0.3012095051881047  1.0000
  C   C23       1.0  0.5290783004398135  0.343655929116828  0.3012107771682578  1.0000
  C   C24       1.0  0.9709228632956125  0.8436578003991855  0.6987890356626565  1.0000
  C   C25       1.0  0.91751724748638  0.3602079927040478  0.6077380359506108  1.0000
  C   C26       1.0  0.5824825776669017  0.8602064788570443  0.3922629990714056  1.0000
  C   C27       1.0  0.08248324141835892  0.6397963014988548  0.3922642392759528  1.0000
  C   C28       1.0  0.4175220723597873  0.13978780263960291  0.6077350460019275  1.0000
  C   C29       1.0  0.7982602323311239  0.4489691014449092  0.5537567677477  1.0000
  C   C30       1.0  0.701739838284787  0.9489668262114748  0.4462449807043426  1.0000
  C   C31       1.0  0.20173888679987328  0.5510314379917743  0.4462448597571579  1.0000
  C   C32       1.0  0.29826204629140574  0.05102870687351669  0.5537548555837404  1.0000
  O   O1        1.0  0.577524752008145  0.4747984728091693  0.8472424736940736  1.0000
  O   O2        1.0  0.9224699072913581  0.9747979920856407  0.15275732917583434  1.0000
  O   O3        1.0  0.4224729973526422  0.5252008150368611  0.15275850609043565  1.0000
  O   O4        1.0  0.077530628262835  0.025207553693682896  0.8472393900752591  1.0000
  O   O5        1.0  0.8846628106431992  0.47101404512637396  0.8609079003206686  1.0000
  O   O6        1.0  0.6153359420855935  0.9710090621154704  0.1390944589391836  1.0000
  O   O7        1.0  0.11533904803528118  0.5289940038427403  0.1390950226276075  1.0000
  O   O8        1.0  0.384665937307524  0.028986470970785695  0.8609059946795766  1.0000
  O   O9        1.0  0.7390845069267159  0.09010200983976087  0.9137850541688833  1.0000
  O   O10       1.0  0.7609132271884036  0.5901008920843508  0.08621010205025927  1.0000
  O   O11       1.0  0.26091327872090636  0.9099010327607786  0.0862116043028749  1.0000
  O   O12       1.0  0.2390831524039427  0.4098983957588089  0.9137902300145695  1.0000
  O   O13       1.0  0.503469016129884  0.25490656782223203  0.06044061503715879  1.0000
  O   O14       1.0  0.9965332875100685  0.75492075005544  0.9395572801103282  1.0000
  O   O15       1.0  0.496534217477148  0.7450852105073407  0.9395623382912958  1.0000
  O   O16       1.0  0.0034686126418605997  0.24509355684248388  0.0604407041958623  1.0000
