data_image0
_chemical_formula_structural       Al2H24C48N6O24
_chemical_formula_sum              "Al2 H24 C48 N6 O24"
_cell_length_a       4.227467135507948
_cell_length_b       27.772675806486333
_cell_length_c       27.772839771574358
_cell_angle_alpha    120.00090206244263
_cell_angle_beta     90.00148869018122
_cell_angle_gamma    89.99841229653842

_space_group_name_H-M_alt    "P 1"
_space_group_IT_number       1

loop_
  _space_group_symop_operation_xyz
  'x, y, z'

loop_
  _atom_site_type_symbol
  _atom_site_label
  _atom_site_symmetry_multiplicity
  _atom_site_fract_x
  _atom_site_fract_y
  _atom_site_fract_z
  _atom_site_occupancy
  Al  Al1       1.0  0.9544622548199655  0.4999991065322151  0.50000139832337  1.0000
  Al  Al2       1.0  0.9544690852278774  0.1666675601080316  0.8333347699268288  1.0000
  H   H1        1.0  0.19624976305750147  0.1862057389733994  0.6956169871440849  1.0000
  H   H2        1.0  0.21789651227912538  0.24273773662540782  0.6477503242545595  1.0000
  H   H3        1.0  0.6985580752954375  0.37322696457028587  0.7897071345891504  1.0000
  H   H4        1.0  0.6985254068083933  0.29343060147435557  0.5436260243538128  1.0000
  H   H5        1.0  0.2179281656357048  0.42392771682413166  0.6855831177285623  1.0000
  H   H6        1.0  0.1962960450927582  0.4804587952276125  0.6377166651454118  1.0000
  H   H7        1.0  0.19626888301230136  0.009411277599213142  0.8137874337173372  1.0000
  H   H8        1.0  0.21790934179984586  0.9050112232714868  0.7572504961204628  1.0000
  H   H9        1.0  0.6985513889730157  0.9164773212679409  0.6267654200651263  1.0000
  H   H10       1.0  0.6985331563921874  0.7501917386394014  0.7065686620905396  1.0000
  H   H11       1.0  0.2178951105191018  0.7616553079099477  0.576078442103096  1.0000
  H   H12       1.0  0.1962485390466711  0.6572559999277419  0.5195456356930919  1.0000
  H   H13       1.0  0.19627364648631127  0.30438225177202605  0.990592367559202  1.0000
  H   H14       1.0  0.21791736818090607  0.35224571230550344  0.0949893107581659  1.0000
  H   H15       1.0  0.698503147051255  0.21028480079490217  0.08352422896464864  1.0000
  H   H16       1.0  0.6985256622731343  0.4563823817880248  0.24981814806908176  1.0000
  H   H17       1.0  0.21794015984293938  0.31441768310315155  0.23834125925598215  1.0000
  H   H18       1.0  0.19629345094026718  0.36228161795310854  0.3427397887856997  1.0000
  H   H19       1.0  0.3243906697590688  0.3343752830237249  0.8855535949314655  1.0000
  H   H20       1.0  0.32433690566100637  0.3322844780842402  0.44777972312217423  1.0000
  H   H21       1.0  0.32439061083922377  0.05117685207490312  0.6656244286497782  1.0000
  H   H22       1.0  0.3243961016884427  0.6154878942374045  0.6677147062787087  1.0000
  H   H23       1.0  0.3243333380452  0.1144409219539286  0.9488198356114239  1.0000
  H   H24       1.0  0.32433983117228843  0.5522242959926303  0.38451810758206756  1.0000
  C   C1        1.0  0.4498893890670316  0.460625462286636  0.4158599120362182  1.0000
  C   C2        1.0  0.44989570136030466  0.4552279675953842  0.5393740019653563  1.0000
  C   C3        1.0  0.44987967606018486  0.5841406432856004  0.5447724789734422  1.0000
  C   C4        1.0  0.44988527470098916  0.21143409219134685  0.7939627135274208  1.0000
  C   C5        1.0  0.4499036653140251  0.08252620881097532  0.7885673657582544  1.0000
  C   C6        1.0  0.4498915866617494  0.20603882852631736  0.9174752925923855  1.0000
  C   C7        1.0  0.4465752320709768  0.24703497477548103  0.7680099102594936  1.0000
  C   C8        1.0  0.3091214702888863  0.22694403127957244  0.715381348227659  1.0000
  C   C9        1.0  0.3215114996642257  0.25794240496433923  0.6887754450456567  1.0000
  C   C10       1.0  0.46566624661572575  0.31062573767122376  0.7158146006086027  1.0000
  C   C11       1.0  0.5935705173621812  0.331833504447829  0.7691936669123364  1.0000
  C   C12       1.0  0.588608120023018  0.30002619775380907  0.7951307731543197  1.0000
  C   C13       1.0  0.5935692866010598  0.33482138239712367  0.5641379047364906  1.0000
  C   C14       1.0  0.46569155664751344  0.3560324813884821  0.6175158654910433  1.0000
  C   C15       1.0  0.32155547553181657  0.40871959560263355  0.6445563551765898  1.0000
  C   C16       1.0  0.30916234338290133  0.4397208459809082  0.6179511824296782  1.0000
  C   C17       1.0  0.44657766113118674  0.41962898074574906  0.5653220306942757  1.0000
  C   C18       1.0  0.5885824639331787  0.3666343685543226  0.5382052035740585  1.0000
  C   C19       1.0  0.446596926358147  0.02097577494765119  0.7529621249462509  1.0000
  C   C20       1.0  0.3091492099804824  0.9884378302130516  0.7730487492899414  1.0000
  C   C21       1.0  0.32153275071146936  0.9308310436662526  0.7420457541224649  1.0000
  C   C22       1.0  0.46569492680825425  0.9051855055498025  0.6893639514514402  1.0000
  C   C23       1.0  0.5935941920008218  0.9373559482786293  0.6681579216401801  1.0000
  C   C24       1.0  0.5886406887725498  0.9951036690752848  0.6999741621126462  1.0000
  C   C25       1.0  0.5935561372560798  0.7293112490458499  0.6651766371545588  1.0000
  C   C26       1.0  0.46567576724786613  0.7614821434203878  0.6439666212428534  1.0000
  C   C27       1.0  0.321521095103776  0.7358354423498669  0.5912824554756212  1.0000
  C   C28       1.0  0.3091096472971627  0.6782299659321328  0.5602831975636491  1.0000
  C   C29       1.0  0.4465583324139429  0.6456915176957878  0.5803744004168931  1.0000
  C   C30       1.0  0.5885746138911472  0.6715655771745759  0.6333669919814752  1.0000
  C   C31       1.0  0.44655914810892466  0.23198609692121888  0.9790277006126047  1.0000
  C   C32       1.0  0.30912468739178683  0.28461774837419546  0.011566547330154716  1.0000
  C   C33       1.0  0.3215246764543664  0.3112224086610881  0.06917054695814778  1.0000
  C   C34       1.0  0.4656605538633655  0.28418272252731214  0.09481497363005079  1.0000
  C   C35       1.0  0.5935288362891525  0.23079902284025172  0.06264372724750436  1.0000
  C   C36       1.0  0.5885658515237678  0.20486216100799481  0.0048976341922255945  1.0000
  C   C37       1.0  0.593568121867129  0.43586797513274433  0.2706945679287215  1.0000
  C   C38       1.0  0.46570171310245456  0.3824877189843718  0.23852066439070535  1.0000
  C   C39       1.0  0.3215633211003065  0.3554467584386743  0.264164279683328  1.0000
  C   C40       1.0  0.309158859850001  0.3820504570501839  0.32177140780406427  1.0000
  C   C41       1.0  0.4465724563184778  0.4346777731247543  0.35431080704229595  1.0000
  C   C42       1.0  0.5885747908640724  0.4617961802909677  0.32843779796205297  1.0000
  C   C43       1.0  0.7350080943383474  0.32450563260768217  0.8519441089447638  1.0000
  C   C44       1.0  0.734963003391769  0.34215244850564386  0.4813885160658203  1.0000
  C   C45       1.0  0.7350366688960506  0.027438850863774338  0.6754922295030212  1.0000
  C   C46       1.0  0.7349935651214848  0.6392309493248832  0.6578437994051782  1.0000
  C   C47       1.0  0.7349540628112762  0.14804823438124284  0.9725637014268572  1.0000
  C   C48       1.0  0.7349697255859907  0.5186160495889214  0.3607792839336739  1.0000
  N   N1        1.0  0.48027266119348166  0.3459444362173159  0.6929777074228551  1.0000
  N   N2        1.0  0.48027046659235134  0.32071728437369995  0.6403571711238668  1.0000
  N   N3        1.0  0.4802780481087154  0.8470303084482327  0.6540498840301934  1.0000
  N   N4        1.0  0.4802779702663286  0.8196392087914504  0.6792809732680424  1.0000
  N   N5        1.0  0.48028212171023205  0.307023253875336  0.1529734123212521  1.0000
  N   N6        1.0  0.4802867593953123  0.35964635338279294  0.1803652127890628  1.0000
  O   O1        1.0  0.6888151072839932  0.5595468623647479  0.5508699420916159  1.0000
  O   O2        1.0  0.6888142623318245  0.4913188309373951  0.44045454286516866  1.0000
  O   O3        1.0  0.6888263031652783  0.4491295987611112  0.5086805035678736  1.0000
  O   O4        1.0  0.21963466398703696  0.5610594376590187  0.5112126377589234  1.0000
  O   O5        1.0  0.2196634788483252  0.4887874219778611  0.5498498617771119  1.0000
  O   O6        1.0  0.21966462443215556  0.4501493376099648  0.4389412280641379  1.0000
  O   O7        1.0  0.6888438760989146  0.17535077267786675  0.8928860273424489  1.0000
  O   O8        1.0  0.688815277069331  0.21753305214132032  0.8246547769677265  1.0000
  O   O9        1.0  0.6888359349683667  0.10711912564931962  0.7824699228620987  1.0000
  O   O10       1.0  0.21966333322336598  0.21651755090337607  0.8943936585080009  1.0000
  O   O11       1.0  0.2196743700195753  0.10560764386158895  0.8221249363559693  1.0000
  O   O12       1.0  0.21963372768424697  0.17787791490412275  0.7834851361446055  1.0000
  O   O13       1.0  0.5578242531924288  0.3365083117550329  0.8955901042976605  1.0000
  O   O14       1.0  0.0202722249686431  0.33538632579384864  0.8569189571750966  1.0000
  O   O15       1.0  0.5577667975931176  0.33015216824583865  0.43774021359872245  1.0000
  O   O16       1.0  0.020211710393510898  0.33126407745957215  0.4764087532401645  1.0000
  O   O17       1.0  0.5578510141415265  0.05908326906217815  0.6634928128290127  1.0000
  O   O18       1.0  0.0202915138232811  0.02152911052294125  0.6646063599640469  1.0000
  O   O19       1.0  0.5578110013274937  0.6075847574125607  0.6698479620569557  1.0000
  O   O20       1.0  0.0202610194263002  0.6451348827472431  0.668722883427037  1.0000
  O   O21       1.0  0.5577664984634367  0.10440535154682362  0.9409144861719767  1.0000
  O   O22       1.0  0.020205526675205497  0.14306863040491208  0.9784731268456922  1.0000
  O   O23       1.0  0.5577890699901501  0.5622650582994525  0.39242534566957216  1.0000
  O   O24       1.0  0.020231099798174095  0.5235910343450456  0.35487340748728247  1.0000
