data_image0
_chemical_formula_structural       Al2H18C30N4O10F2
_chemical_formula_sum              "Al2 H18 C30 N4 O10 F2"
_cell_length_a       6.641208428108364
_cell_length_b       16.95405366323989
_cell_length_c       17.696660617712258
_cell_angle_alpha    87.36513700493386
_cell_angle_beta     80.98582311368509
_cell_angle_gamma    82.54148182617341

_space_group_name_H-M_alt    "P 1"
_space_group_IT_number       1

loop_
  _space_group_symop_operation_xyz
  'x, y, z'

loop_
  _atom_site_type_symbol
  _atom_site_label
  _atom_site_symmetry_multiplicity
  _atom_site_fract_x
  _atom_site_fract_y
  _atom_site_fract_z
  _atom_site_occupancy
  Al  Al1       1.0  0.49820347884777044  0.49996600961607346  0.4983078904120077  1.0000
  Al  Al2       1.0  0.9989785147914672  0.4994888506378955  0.49564732796079614  1.0000
  H   H1        1.0  0.769947568680152  0.5446994057323876  0.4052305937121758  1.0000
  H   H2        1.0  0.21379903329325603  0.4661153035422954  0.5914607556037623  1.0000
  H   H3        1.0  0.14213007596082858  0.2631366601499678  0.4574110019510087  1.0000
  H   H4        1.0  0.20837952359448048  0.11365119798084318  0.45600367052912116  1.0000
  H   H5        1.0  0.5648286402895052  0.10371869078353767  0.5336457303796038  1.0000
  H   H6        1.0  0.39764682588236167  0.8939215955760528  0.5338019264845001  1.0000
  H   H7        1.0  0.8145053972165569  0.8895307744908434  0.4581343701354896  1.0000
  H   H8        1.0  0.8818664663269115  0.740008099237414  0.4558961214700473  1.0000
  H   H9        1.0  0.6819128362789756  0.44566226539102155  0.2725253783448025  1.0000
  H   H10       1.0  0.7675491083920106  0.44911393755216267  0.1303782173139609  1.0000
  H   H11       1.0  0.12572767494003054  0.5234145267778914  0.1161220558688498  1.0000
  H   H12       1.0  0.9004692802142384  0.4751156920705454  0.8743576664215597  1.0000
  H   H13       1.0  0.32737358503867847  0.5546926080345145  0.7261671886421652  1.0000
  H   H14       1.0  0.2550291774084457  0.5509826052684659  0.8686350190893534  1.0000
  H   H15       1.0  0.4228131845207627  0.31843167187518867  0.5378743489572102  1.0000
  H   H16       1.0  0.339290666132058  0.22408559208075465  0.552158956325357  1.0000
  H   H17       1.0  0.545224334684967  0.6799598376006273  0.5259068368508153  1.0000
  H   H18       1.0  0.6109047261654296  0.7712245280634489  0.5487211959294243  1.0000
  C   C1        1.0  0.31907651809972054  0.4831542584318383  0.3600663083018532  1.0000
  C   C2        1.0  0.19662222134214594  0.6448274214236702  0.492655448187037  1.0000
  C   C3        1.0  0.682562291344162  0.5165300435282559  0.6344548154620924  1.0000
  C   C4        1.0  0.8001871589779553  0.3554150603412225  0.5013660511091941  1.0000
  C   C5        1.0  0.8209240257664233  0.26807208039340213  0.49926120031488347  1.0000
  C   C6        1.0  0.01834790536008059  0.2269208703049586  0.47575241350891423  1.0000
  C   C7        1.0  0.05620403130159698  0.14500116981068353  0.47483775948135326  1.0000
  C   C8        1.0  0.8881387800200288  0.10130332238119169  0.4975590581459031  1.0000
  C   C9        1.0  0.6903669178370038  0.13989118103872036  0.5180852233500133  1.0000
  C   C10       1.0  0.6502307214055635  0.2239135149200421  0.52034900591903  1.0000
  C   C11       1.0  0.2847807477047581  0.8588402658923325  0.5178222178831078  1.0000
  C   C12       1.0  0.10257719075363525  0.8988579539722891  0.4983621175498456  1.0000
  C   C13       1.0  0.9524238807852398  0.8568252931394366  0.475753531346328  1.0000
  C   C14       1.0  0.9909004467913791  0.774843863742042  0.47460534434735274  1.0000
  C   C15       1.0  0.17216433977205264  0.7324259260129152  0.4952215331890244  1.0000
  C   C16       1.0  0.3250449462984832  0.7748696795030197  0.5172059520990473  1.0000
  C   C17       1.0  0.3592973846985998  0.480893352469195  0.2748751944534575  1.0000
  C   C18       1.0  0.5616668878927698  0.46163552964861043  0.2371942940010925  1.0000
  C   C19       1.0  0.6095499818384409  0.46401468913338556  0.1580907801815599  1.0000
  C   C20       1.0  0.453610405949931  0.4873388796120038  0.1127875518047077  1.0000
  C   C21       1.0  0.24952836457953256  0.5051659612443086  0.14925373068507503  1.0000
  C   C22       1.0  0.2061003546454429  0.5012366100007029  0.22836838062740844  1.0000
  C   C23       1.0  0.4983341527184564  0.49494738993871557  0.0321946538961839  1.0000
  C   C24       1.0  0.5319606078188102  0.5039547350074257  0.9627124746366817  1.0000
  C   C25       1.0  0.5714695363965772  0.511795586782668  0.8820373085190311  1.0000
  C   C26       1.0  0.7729237301777517  0.493787821305254  0.8431151553954237  1.0000
  C   C27       1.0  0.8088260344246263  0.4978967593058242  0.7638744880663637  1.0000
  C   C28       1.0  0.6507476367697577  0.5185719353442833  0.7195955148803107  1.0000
  C   C29       1.0  0.45127218627519744  0.5381918615520219  0.7597090905553685  1.0000
  C   C30       1.0  0.4108445066172309  0.5357044242672158  0.8389519279911326  1.0000
  N   N1        1.0  0.9044992548275345  0.017276216029230795  0.49919564883497003  1.0000
  N   N2        1.0  0.08507121158170608  0.9828696183034537  0.5004151524564264  1.0000
  N   N3        1.0  0.4551269705994443  0.2583484022767806  0.5435023712409972  1.0000
  N   N4        1.0  0.5015098133698784  0.7378505199151704  0.5396949553958237  1.0000
  O   O1        1.0  0.4754464597217166  0.47594991666920083  0.39460532454382496  1.0000
  O   O2        1.0  0.035028637327833755  0.610544204661984  0.4968131105191489  1.0000
  O   O3        1.0  0.8661242354684903  0.5055890667069745  0.5997993252815377  1.0000
  O   O4        1.0  0.6176152924154793  0.39331982206388005  0.5146580884775176  1.0000
  O   O5        1.0  0.5220089215256323  0.5244195551580759  0.602255024248791  1.0000
  O   O6        1.0  0.9635468788489588  0.3893723277700756  0.491381166759453  1.0000
  O   O7        1.0  0.13327928104284587  0.493697081647049  0.3923492129348887  1.0000
  O   O8        1.0  0.3802449855238876  0.607986448761018  0.48538370051145563  1.0000
  O   O9        1.0  0.7520976258095047  0.5322982004270356  0.45971698054788834  1.0000
  O   O10       1.0  0.24238759992254436  0.4680585862092386  0.5358937723017121  1.0000
  F   F1        1.0  0.005852592806867574  0.5204424666494205  0.25920310004600106  1.0000
  F   F2        1.0  0.007247625921976868  0.47862885149437057  0.730593227698833  1.0000
