data_image0
_chemical_formula_structural       Sr4H48C32O36
_chemical_formula_sum              "Sr4 H48 C32 O36"
_cell_length_a       7.072272730367143
_cell_length_b       9.422520010751189
_cell_length_c       18.7367769530311
_cell_angle_alpha    90.00016483442252
_cell_angle_beta     90.00009718553659
_cell_angle_gamma    99.44568359311235

_space_group_name_H-M_alt    "P 1"
_space_group_IT_number       1

loop_
  _space_group_symop_operation_xyz
  'x, y, z'

loop_
  _atom_site_type_symbol
  _atom_site_label
  _atom_site_symmetry_multiplicity
  _atom_site_fract_x
  _atom_site_fract_y
  _atom_site_fract_z
  _atom_site_occupancy
  Sr  Sr1       1.0  0.48584915589756145  0.2894819161328854  0.0378948199474038  1.0000
  Sr  Sr2       1.0  0.014150485560392726  0.7105181819929741  0.53789398727708  1.0000
  Sr  Sr3       1.0  0.5141509919602142  0.7105203749050372  0.9621063793000317  1.0000
  Sr  Sr4       1.0  0.985847202319114  0.2894798272919559  0.46210507712761023  1.0000
  H   H1        1.0  0.2042532602975839  0.43035737883418784  0.1253565125776248  1.0000
  H   H2        1.0  0.29574179091606106  0.5696455214991474  0.6253567231241846  1.0000
  H   H3        1.0  0.7957426601739924  0.5696449750074633  0.8746430855393541  1.0000
  H   H4        1.0  0.704253604133129  0.43035468100131874  0.374642874991082  1.0000
  H   H5        1.0  0.07008853547925038  0.3260633055496456  0.0769217041037962  1.0000
  H   H6        1.0  0.42990825742091215  0.6739360118364031  0.5769210823958488  1.0000
  H   H7        1.0  0.9299087941226459  0.673939027359161  0.923078961433063  1.0000
  H   H8        1.0  0.5700882840442317  0.3260630940571616  0.4230785157189914  1.0000
  H   H9        1.0  0.7571270517361697  0.08504275586115989  0.1117884708357408  1.0000
  H   H10       1.0  0.7428712536458236  0.9149583808886205  0.6117880774155111  1.0000
  H   H11       1.0  0.24287194970406023  0.9149606317819374  0.8882121947024045  1.0000
  H   H12       1.0  0.25712643423369025  0.08503962839630928  0.38821098698918627  1.0000
  H   H13       1.0  0.5558461195233664  0.9822658837581743  0.09518801179577  1.0000
  H   H14       1.0  0.9441490060378825  0.017734111554617  0.5951880558394862  1.0000
  H   H15       1.0  0.4441512100753542  0.017736449147172092  0.9048115863216424  1.0000
  H   H16       1.0  0.055848419133610626  0.9822628220631768  0.4048120759837914  1.0000
  H   H17       1.0  0.8584021484177312  0.4535919761583144  0.038674272341879104  1.0000
  H   H18       1.0  0.6415917568951173  0.5464098249848987  0.5386738180006319  1.0000
  H   H19       1.0  0.141592625637891  0.5464114742902381  0.961325325775526  1.0000
  H   H20       1.0  0.3584022290285275  0.45359039845359905  0.46132631382392475  1.0000
  H   H21       1.0  0.8590598708829235  0.3551205789464048  0.9723417179276055  1.0000
  H   H22       1.0  0.6409380260716232  0.644884013243228  0.4723423096908874  1.0000
  H   H23       1.0  0.14093772142698666  0.6448828296295372  0.0276578801906666  1.0000
  H   H24       1.0  0.359057631690355  0.3551172649295608  0.5276578221349553  1.0000
  H   H25       1.0  0.44446758075934406  0.8819266596808643  0.6833584326307758  1.0000
  H   H26       1.0  0.05553266423395798  0.11807330599089026  0.1833587457685084  1.0000
  H   H27       1.0  0.5555309908344624  0.11806917733695596  0.3166438340309554  1.0000
  H   H28       1.0  0.9444700391700849  0.8819278675072866  0.8166435208983742  1.0000
  H   H29       1.0  0.6491876342662694  0.18590945376709558  0.5846035521620436  1.0000
  H   H30       1.0  0.8508111302273846  0.8140882587687344  0.08460505422819152  1.0000
  H   H31       1.0  0.3508061845173671  0.8140842947115272  0.4153965796578021  1.0000
  H   H32       1.0  0.1491986188076098  0.18591281004271556  0.9153956113116876  1.0000
  H   H33       1.0  0.8196510302294513  0.44758256560020726  0.768641850175676  1.0000
  H   H34       1.0  0.680348209231269  0.5524195882254473  0.26864446869213054  1.0000
  H   H35       1.0  0.1803488549044161  0.5524186497532781  0.2313550793931398  1.0000
  H   H36       1.0  0.319656166004755  0.44758264000009274  0.7313556631371583  1.0000
  H   H37       1.0  0.5233510035848213  0.011776854942191096  0.7953237264270427  1.0000
  H   H38       1.0  0.976655177688407  0.988224291537243  0.2953250251865711  1.0000
  H   H39       1.0  0.47665169981763716  0.9882243185542521  0.20467800653012347  1.0000
  H   H40       1.0  0.023354571349763396  0.011776777277674498  0.7046767077727552  1.0000
  H   H41       1.0  0.13816813544149653  0.04070604287640829  0.0649856361429002  1.0000
  H   H42       1.0  0.36183166734375755  0.9592942309114317  0.5649848482478319  1.0000
  H   H43       1.0  0.8618317497050825  0.9592951724909252  0.9350155631036827  1.0000
  H   H44       1.0  0.6381660205373337  0.040703778375231495  0.43501474986658206  1.0000
  H   H45       1.0  0.25343754549545844  0.9874603725773525  9.15215755342e-05  1.0000
  H   H46       1.0  0.2465601034378295  0.0125438249858476  0.5000925002843175  1.0000
  H   H47       1.0  0.7465597841032618  0.012541960327993694  0.9999080765418782  1.0000
  H   H48       1.0  0.7534386352928023  0.9874584869883873  0.4999086989626846  1.0000
  C   C1        1.0  0.6822414962842701  0.25818040809457427  0.8698880055222773  1.0000
  C   C2        1.0  0.8177611643529802  0.7418223603530975  0.3698893826231142  1.0000
  C   C3        1.0  0.317758651568731  0.7418218829381544  0.1301115925960019  1.0000
  C   C4        1.0  0.1822396044967718  0.25817668273500516  0.6301112829124591  1.0000
  C   C5        1.0  0.8337464539534379  0.4520008044997753  0.6257795071261398  1.0000
  C   C6        1.0  0.6662530811707511  0.547999326373265  0.12578211034533376  1.0000
  C   C7        1.0  0.1662521176244738  0.5479950325007366  0.3742174224383845  1.0000
  C   C8        1.0  0.3337468039758278  0.4520018889940614  0.874219088901242  1.0000
  C   C9        1.0  0.7424596698967034  0.3301239069633581  0.6722142710491354  1.0000
  C   C10       1.0  0.757542171865481  0.6698732561123817  0.1722155064233135  1.0000
  C   C11       1.0  0.25754004810351455  0.6698708334371728  0.3277847933538496  1.0000
  C   C12       1.0  0.24246361249927154  0.33012895117857965  0.8277851591161252  1.0000
  C   C13       1.0  0.5794032083320957  0.08655273035505928  0.6869705841582672  1.0000
  C   C14       1.0  0.9205966911853166  0.9134477972891939  0.1869722734677737  1.0000
  C   C15       1.0  0.4206029343166263  0.9134451533189532  0.3130306150879036  1.0000
  C   C16       1.0  0.0794023102612726  0.08655559036081678  0.8130305269092515  1.0000
  C   C17       1.0  0.6557584922870988  0.19999869616572136  0.6423328100653334  1.0000
  C   C18       1.0  0.8442420251158396  0.7999993697625597  0.14233482139852072  1.0000
  C   C19       1.0  0.34424519038335427  0.799994905755298  0.357666254338092  1.0000
  C   C20       1.0  0.1557578600275633  0.20000184560130652  0.8576653104286223  1.0000
  C   C21       1.0  0.749340760864648  0.3462997279110239  0.7461640363928694  1.0000
  C   C22       1.0  0.7506628348327454  0.6537032930266449  0.2461668452577825  1.0000
  C   C23       1.0  0.25066115439310716  0.6536982185615229  0.2538339605936812  1.0000
  C   C24       1.0  0.24934383323994785  0.34629674199028665  0.7538348876998171  1.0000
  C   C25       1.0  0.5841459709317363  0.10135039882645458  0.7610639157473286  1.0000
  C   C26       1.0  0.9158577134917818  0.8986527187210667  0.2610655807559397  1.0000
  C   C27       1.0  0.4158576161723033  0.8986486023890377  0.23893674978911153  1.0000
  C   C28       1.0  0.08414780816178079  0.10134841289930557  0.7389350847826464  1.0000
  C   C29       1.0  0.669818257847595  0.2333024209458329  0.7907900681907093  1.0000
  C   C30       1.0  0.8301834063399766  0.7666976832804406  0.29079309009983934  1.0000
  C   C31       1.0  0.3301827737054026  0.7666976978042184  0.20920792879712016  1.0000
  C   C32       1.0  0.1698227363071538  0.23330020039183816  0.7092075754366078  1.0000
  O   O1        1.0  0.586179162945932  0.1687033719578679  0.9130025830719433  1.0000
  O   O2        1.0  0.9138271936876309  0.8312963862308249  0.413003616145609  1.0000
  O   O3        1.0  0.41382239403739607  0.8312988981420232  0.0869980824662093  1.0000
  O   O4        1.0  0.08617498429561721  0.1687026359278931  0.5869991842292848  1.0000
  O   O5        1.0  0.790877784737084  0.3715313001505934  0.8914510616777207  1.0000
  O   O6        1.0  0.7091224487670542  0.6284727256600817  0.391452740473099  1.0000
  O   O7        1.0  0.20912403495107407  0.6284720456129662  0.1085474690223975  1.0000
  O   O8        1.0  0.2908746181220608  0.3715285315763949  0.6085473913531771  1.0000
  O   O9        1.0  0.8979228959878256  0.571945623610297  0.6536173791215489  1.0000
  O   O10       1.0  0.6020762794908663  0.4280525364284671  0.153620302733259  1.0000
  O   O11       1.0  0.10207593829650818  0.4280512890556237  0.3463779493146717  1.0000
  O   O12       1.0  0.39792219653016037  0.5719486998768986  0.8463814302226069  1.0000
  O   O13       1.0  0.8411654856998111  0.42913401351658814  0.5575569805170916  1.0000
  O   O14       1.0  0.6588319713191453  0.5708646202566001  0.0575601456501786  1.0000
  O   O15       1.0  0.1588314140381755  0.5708607687479058  0.4424394153364232  1.0000
  O   O16       1.0  0.3411679138274408  0.4291365951107266  0.9424410535964042  1.0000
  O   O17       1.0  0.18179180619529228  0.32897360246337115  0.1097715749380868  1.0000
  O   O18       1.0  0.31820403590815255  0.671027024530467  0.6097698107976938  1.0000
  O   O19       1.0  0.818204114281052  0.6710287513834743  0.8902296243080555  1.0000
  O   O20       1.0  0.6817922428442172  0.328971005690775  0.3902292536065701  1.0000
  O   O21       1.0  0.6341450436659102  0.08066666614825378  0.0871587924938595  1.0000
  O   O22       1.0  0.8658491503767111  0.9193354493796946  0.5871590170572176  1.0000
  O   O23       1.0  0.36585140222804563  0.91933783903459  0.912840805624839  1.0000
  O   O24       1.0  0.13414765379644683  0.0806647321810061  0.4128395136390353  1.0000
  O   O25       1.0  0.8743184260655142  0.3548929225683608  0.026187533731309998  1.0000
  O   O26       1.0  0.625675667602934  0.6451098732830259  0.5261882787664476  1.0000
  O   O27       1.0  0.1256766107012979  0.6451116035507879  0.973812064386955  1.0000
  O   O28       1.0  0.37431999016062883  0.3548914048914894  0.4738123867691186  1.0000
  O   O29       1.0  0.5054239512662662  0.9591032275050035  0.6519998591247074  1.0000
  O   O30       1.0  0.9945780328317892  0.0408948801701214  0.15200194069253567  1.0000
  O   O31       1.0  0.4945743576099916  0.040891533835299795  0.3480002726972842  1.0000
  O   O32       1.0  0.005427488824949531  0.9591062514537115  0.8479997922654903  1.0000
  O   O33       1.0  0.21830687342760774  0.0728244058377925  0.0234993606284988  1.0000
  O   O34       1.0  0.2816932077268889  0.9271777502862906  0.5234984756983394  1.0000
  O   O35       1.0  0.7816916025902427  0.9271768304641126  0.9765013049079271  1.0000
  O   O36       1.0  0.7183066774133381  0.07282346507412289  0.4765005887093566  1.0000
