data_image0
_chemical_formula_structural       Zn2H26C46N8O16
_chemical_formula_sum              "Zn2 H26 C46 N8 O16"
_cell_length_a       8.171523053376955
_cell_length_b       11.568420038058186
_cell_length_c       14.404101784271218
_cell_angle_alpha    69.99632567777078
_cell_angle_beta     82.60043801578722
_cell_angle_gamma    74.86981621281134

_space_group_name_H-M_alt    "P 1"
_space_group_IT_number       1

loop_
  _space_group_symop_operation_xyz
  'x, y, z'

loop_
  _atom_site_type_symbol
  _atom_site_label
  _atom_site_symmetry_multiplicity
  _atom_site_fract_x
  _atom_site_fract_y
  _atom_site_fract_z
  _atom_site_occupancy
  Zn  Zn1       1.0  0.41417167435412944  0.8428531250066129  0.05413080026411168  1.0000
  Zn  Zn2       1.0  0.5858181662842057  0.1571355463971003  0.9458780533815555  1.0000
  H   H1        1.0  0.3570746217925985  0.4596224492864567  0.30160030854790415  1.0000
  H   H2        1.0  0.6429240514062472  0.5403767629998059  0.6984053743682778  1.0000
  H   H3        1.0  0.8351264992059058  0.3517873410803531  0.6229725835487442  1.0000
  H   H4        1.0  0.16487794036402895  0.6482128474157849  0.37703391977471046  1.0000
  H   H5        1.0  0.9953737565641986  0.7421790260776646  0.6495377524103602  1.0000
  H   H6        1.0  0.004627917257060699  0.25782322069127156  0.3504614344272524  1.0000
  H   H7        1.0  0.3685205780719302  0.14409669931620073  0.17748978398652326  1.0000
  H   H8        1.0  0.6314798065810832  0.8559093104147951  0.8225092128995468  1.0000
  H   H9        1.0  0.7056648153879761  0.8194231085502823  0.36289952576885276  1.0000
  H   H10       1.0  0.29434379605985583  0.1805812298571752  0.6370945749725506  1.0000
  H   H11       1.0  0.5942932280899528  0.1752798783182712  0.41946223707704167  1.0000
  H   H12       1.0  0.4057031514834931  0.8247232194294157  0.5805384175696985  1.0000
  H   H13       1.0  0.7595655665266535  0.16450788236183203  0.6260641752822947  1.0000
  H   H14       1.0  0.24044136947091493  0.8354934939406392  0.3739342452106698  1.0000
  H   H15       1.0  0.010363342316026116  0.1138156975513951  0.8890725723647461  1.0000
  H   H16       1.0  0.9896340338497469  0.8861796459928473  0.11093625022802187  1.0000
  H   H17       1.0  0.10694251236566284  0.811524808622444  0.7676243128078964  1.0000
  H   H18       1.0  0.8930569215999711  0.18847640624179723  0.232377345144279  1.0000
  H   H19       1.0  0.4944631918507694  0.5804040050181456  0.05442042262871636  1.0000
  H   H20       1.0  0.5055358751553313  0.4195939062475135  0.9455640325297806  1.0000
  H   H21       1.0  0.7510833728951312  0.4181122141530054  0.0375234856803033  1.0000
  H   H22       1.0  0.24891189969847705  0.5818954901012034  0.9624461865108173  1.0000
  H   H23       1.0  0.041122786382366924  0.7013503726840753  0.9846294364763111  1.0000
  H   H24       1.0  0.958874561644315  0.2986487672244991  0.015378422766886479  1.0000
  H   H25       1.0  0.7712537490612805  0.8506419449319083  0.006954468686103548  1.0000
  H   H26       1.0  0.2287398015722815  0.149348322576266  0.9930662778782278  1.0000
  C   C1        1.0  0.3706572788007705  0.30738697890012656  0.27316017601587106  1.0000
  C   C2        1.0  0.6293450595727775  0.6926172119836665  0.7268370902512016  1.0000
  C   C3        1.0  0.4712012309706921  0.1744936027402417  0.2957672674425993  1.0000
  C   C4        1.0  0.5288004107790698  0.8255086245409871  0.7042326208594999  1.0000
  C   C5        1.0  0.4518109973683906  0.10191334164360907  0.23946324638892946  1.0000
  C   C6        1.0  0.5481898579839068  0.8980880040614283  0.7605341308427496  1.0000
  C   C7        1.0  0.5386393627815733  0.9749317521024639  0.2631687272276792  1.0000
  C   C8        1.0  0.46136171063040626  0.025068589527016603  0.7368309772514862  1.0000
  C   C9        1.0  0.6424351885535343  0.9193271200648778  0.3446039364957939  1.0000
  C   C10       1.0  0.3575710868241657  0.08067612797477611  0.655394739753639  1.0000
  C   C11       1.0  0.6643759624731234  0.9918308448417221  0.40040822543249277  1.0000
  C   C12       1.0  0.3356300307018856  0.008173368298073996  0.5995895264984412  1.0000
  C   C13       1.0  0.578870523058697  0.11988955658762988  0.37494088460027797  1.0000
  C   C14       1.0  0.4211336086778771  0.8801127180104376  0.625058158370251  1.0000
  C   C15       1.0  0.5174907749631857  0.8959395041483376  0.2037437947513822  1.0000
  C   C16       1.0  0.482508755216948  0.10406176917901894  0.7962557588073123  1.0000
  C   C17       1.0  0.7713640810287711  0.9415072516938281  0.4860897259003065  1.0000
  C   C18       1.0  0.22864093331976681  0.05849596294354599  0.5139097237471617  1.0000
  C   C19       1.0  0.8840080200053605  0.9414749959646829  0.6116684147602524  1.0000
  C   C20       1.0  0.11599554732584492  0.058529208833682816  0.38832877957327827  1.0000
  C   C21       1.0  0.9276415860901894  0.9835097628857028  0.6879868496768892  1.0000
  C   C22       1.0  0.07236128854963651  0.0164962941621383  0.3120113018776037  1.0000
  C   C23       1.0  0.848674017517567  0.10839786445404796  0.6841110725339732  1.0000
  C   C24       1.0  0.1513276563036925  0.8916043823148883  0.3158881143036395  1.0000
  C   C25       1.0  0.8757223660555198  0.15411176095835094  0.7573835592164357  1.0000
  C   C26       1.0  0.12428081499366773  0.8458857187729621  0.2426181448201916  1.0000
  C   C27       1.0  0.9874088436989085  0.07841285450602699  0.8323317254178303  1.0000
  C   C28       1.0  0.01258888274496427  0.9215853787655136  0.16767495375039226  1.0000
  C   C29       1.0  0.07247859807820581  0.9566751409126084  0.8335580786068773  1.0000
  C   C30       1.0  0.9275190385919886  0.04332417438531881  0.1664434674558919  1.0000
  C   C31       1.0  0.03989065636614701  0.9080008256715218  0.7629970093273639  1.0000
  C   C32       1.0  0.9601076127848316  0.0920004142535547  0.23700331762936597  1.0000
  C   C33       1.0  0.7802362376263687  0.27977922665836275  0.7616467111385389  1.0000
  C   C34       1.0  0.2197657105327621  0.7202144233063379  0.23835672964568735  1.0000
  C   C35       1.0  0.2016646468481298  0.8798157204425011  0.9099100724396436  1.0000
  C   C36       1.0  0.7983342148473085  0.12017979291794488  0.09009306650364829  1.0000
  C   C37       1.0  0.6187695619050827  0.6024575262994745  0.038734524938789025  1.0000
  C   C38       1.0  0.3812257259459599  0.3975441006114124  0.9612505855997424  1.0000
  C   C39       1.0  0.7637074373602458  0.5128735239078849  0.028206438405916863  1.0000
  C   C40       1.0  0.23628668960855492  0.4871319439158769  0.9717756763231191  1.0000
  C   C41       1.0  0.9213066743540776  0.5458151094157062  0.007072825873585464  1.0000
  C   C42       1.0  0.07868498825858687  0.45418919008943  0.9929166702214473  1.0000
  C   C43       1.0  0.9235058352222083  0.6695098926581268  0.00017948030185264724  1.0000
  C   C44       1.0  0.07648540652852628  0.3304903376548083  0.9998207996456258  1.0000
  C   C45       1.0  0.7735932576199501  0.753911706062553  0.012210570111911049  1.0000
  C   C46       1.0  0.226396590883212  0.2460845970452468  0.9877949539056272  1.0000
  N   N1        1.0  0.7840274004400102  0.017448351532230802  0.5380407163933256  1.0000
  N   N2        1.0  0.2159770134992484  0.9825529579656878  0.46195925089569545  1.0000
  N   N3        1.0  0.8609621997937182  0.8214040912149161  0.522891133071617  1.0000
  N   N4        1.0  0.1390364517068647  0.1786000579251734  0.47710634899607374  1.0000
  N   N5        1.0  0.9314526202893635  0.8242929576234417  0.6021331029092991  1.0000
  N   N6        1.0  0.06854747822855237  0.17571020135566334  0.39786663447232923  1.0000
  N   N7        1.0  0.6228933743135344  0.7212909194451598  0.030269273941200905  1.0000
  N   N8        1.0  0.3770990924624442  0.27870550893030105  0.9697325988868072  1.0000
  O   O1        1.0  0.43392076881396946  0.37518887380984023  0.3138450144596375  1.0000
  O   O2        1.0  0.5660743137264105  0.6248103551958337  0.6861587798636889  1.0000
  O   O3        1.0  0.24246332758118427  0.35115930476529655  0.2247053136233744  1.0000
  O   O4        1.0  0.7575484921755091  0.6488421077077433  0.7752935205999164  1.0000
  O   O5        1.0  0.44098455823788635  0.9586526354503635  0.12037458026949101  1.0000
  O   O6        1.0  0.5590190051609057  0.041347753495962515  0.8796242788780971  1.0000
  O   O7        1.0  0.56739244610101  0.7785029450215294  0.23514890634049818  1.0000
  O   O8        1.0  0.4326049725095089  0.22149737435195502  0.7648503124747917  1.0000
  O   O9        1.0  0.7680640851220559  0.37858885091565503  0.6765873448818807  1.0000
  O   O10       1.0  0.23193609923712438  0.6214094101850307  0.3234191904192584  1.0000
  O   O11       1.0  0.7128887953354024  0.30055268225547144  0.8377547827511975  1.0000
  O   O12       1.0  0.2871055866487779  0.6994407672955846  0.1622532984212198  1.0000
  O   O13       1.0  0.23069072361514045  0.9395744115662624  0.9654928948126835  1.0000
  O   O14       1.0  0.7693040367862238  0.06041813134776671  0.034514006284759105  1.0000
  O   O15       1.0  0.27296774909906657  0.7679139551473855  0.9164812225781203  1.0000
  O   O16       1.0  0.7270344531236504  0.2320825260815056  0.0835221791750342  1.0000
