data_image0
_chemical_formula_structural       Na2H14C8O12
_chemical_formula_sum              "Na2 H14 C8 O12"
_cell_length_a       5.877066563901057
_cell_length_b       6.253153114179567
_cell_length_c       9.920917372695463
_cell_angle_alpha    89.9978001360935
_cell_angle_beta     106.65494323190076
_cell_angle_gamma    90.00030759265718

_space_group_name_H-M_alt    "P 1"
_space_group_IT_number       1

loop_
  _space_group_symop_operation_xyz
  'x, y, z'

loop_
  _atom_site_type_symbol
  _atom_site_label
  _atom_site_symmetry_multiplicity
  _atom_site_fract_x
  _atom_site_fract_y
  _atom_site_fract_z
  _atom_site_occupancy
  Na  Na1       1.0  0.9999985177048953  0.9999991086818268  0.9999994362277606  1.0000
  Na  Na2       1.0  0.9999980672674551  0.4999985578335001  0.9999996076495494  1.0000
  H   H1        1.0  0.5951979825395242  0.24999677651076985  0.4615859721344719  1.0000
  H   H2        1.0  0.4048009583804131  0.7500023325711782  0.5384085018185871  1.0000
  H   H3        1.0  0.9862768107820088  0.24997458956337942  0.27877021547548964  1.0000
  H   H4        1.0  0.013715877213485318  0.7500309155899175  0.7212341278576417  1.0000
  H   H5        1.0  0.013658940495062695  0.24998312279777224  0.5175670268717384  1.0000
  H   H6        1.0  0.9863461655306833  0.7500191835519631  0.4824397610808333  1.0000
  H   H7        1.0  0.11979197424503951  0.2500058400506617  0.7831586229092196  1.0000
  H   H8        1.0  0.8802154135035065  0.7499916691399945  0.2168425594848031  1.0000
  H   H9        1.0  0.8388670655811907  0.2500109982710868  0.7430237842234534  1.0000
  H   H10       1.0  0.16113702810977767  0.7499881104720387  0.2569737223525692  1.0000
  H   H11       1.0  0.5662751401245741  0.24998474436068824  0.0689660481639862  1.0000
  H   H12       1.0  0.433725151547911  0.7500127650683481  0.9310337372792644  1.0000
  H   H13       1.0  0.5737063127955295  0.24999364542770053  0.9132352125574953  1.0000
  H   H14       1.0  0.42629575284454546  0.7500022647485308  0.08676492210124562  1.0000
  C   C1        1.0  0.1648904439381482  0.24998448850936947  0.3519988172982309  1.0000
  C   C2        1.0  0.8351059612785433  0.7500178182983747  0.6480042395559948  1.0000
  C   C3        1.0  0.18080310697977353  0.24998883186994197  0.49047331572438685  1.0000
  C   C4        1.0  0.8191986202939603  0.7500134747590295  0.5095307888429232  1.0000
  C   C5        1.0  0.3532234363287118  0.2499872798749295  0.27804226684083494  1.0000
  C   C6        1.0  0.6467679006571173  0.7500118289652491  0.7219567648910896  1.0000
  C   C7        1.0  0.39430084961540507  0.2500003919732522  0.615983293324028  1.0000
  C   C8        1.0  0.6057065381331341  0.7499971172174115  0.3840178890700017  1.0000
  O   O1        1.0  0.5779779242104439  0.24999191053179007  0.34922739480999354  1.0000
  O   O2        1.0  0.4220137513474214  0.7500071986284811  0.6507676671021727  1.0000
  O   O3        1.0  0.2918468558261011  0.24998957762917945  0.14623978647429683  1.0000
  O   O4        1.0  0.7081408484786919  0.7500095312501572  0.8537595392371813  1.0000
  O   O5        1.0  0.6032665704266194  0.2500062458309317  0.5977261275337256  1.0000
  O   O6        1.0  0.39673743862133637  0.7499928628321728  0.4022723714972329  1.0000
  O   O7        1.0  0.3648056616421939  0.2500037916654705  0.7366364354889967  1.0000
  O   O8        1.0  0.6352051895013703  0.7499937173259851  0.26336643783535857  1.0000
  O   O9        1.0  0.9838833871436988  0.2500097679133191  0.8246052354055422  1.0000
  O   O10       1.0  0.016120537261244308  0.7499893406697566  0.1753942560803523  1.0000
  O   O11       1.0  0.6779082231085027  0.24999232175973415  0.011425930485913224  1.0000
  O   O12       1.0  0.3220920686154117  0.7500067868624993  0.988573854979542  1.0000
