data_image0
_chemical_formula_structural       Cu4H54C54S6I4N6
_chemical_formula_sum              "Cu4 H54 C54 S6 I4 N6"
_cell_length_a       9.091438953937388
_cell_length_b       14.42084437276606
_cell_length_c       16.574411517680375
_cell_angle_alpha    112.79209416309853
_cell_angle_beta     90.28638719213588
_cell_angle_gamma    98.82234177362055

_space_group_name_H-M_alt    "P 1"
_space_group_IT_number       1

loop_
  _space_group_symop_operation_xyz
  'x, y, z'

loop_
  _atom_site_type_symbol
  _atom_site_label
  _atom_site_symmetry_multiplicity
  _atom_site_fract_x
  _atom_site_fract_y
  _atom_site_fract_z
  _atom_site_occupancy
  Cu  Cu1       1.0  0.5222520387906897  0.5610245710236298  0.3270625660856227  1.0000
  Cu  Cu2       1.0  0.4777465410834906  0.4389747961596128  0.672937363894178  1.0000
  Cu  Cu3       1.0  0.3671361689627659  0.4933046858456008  0.42782556207032485  1.0000
  Cu  Cu4       1.0  0.6328622402251299  0.50669392047228  0.5721729034711132  1.0000
  H   H1        1.0  0.17181641030240513  0.3648945561285046  0.5795833938470382  1.0000
  H   H2        1.0  0.8281852932786861  0.6350994732480116  0.4204117419013046  1.0000
  H   H3        1.0  0.955712587523415  0.5347862415611642  0.5734967186061226  1.0000
  H   H4        1.0  0.04428887865196882  0.4652115936965869  0.4265051287781462  1.0000
  H   H5        1.0  0.24866373191201768  0.10994896342297976  0.6970161145259794  1.0000
  H   H6        1.0  0.751335575544992  0.8900534527532286  0.3029866585936746  1.0000
  H   H7        1.0  0.7909078392022337  0.1692940256927855  0.6141160397455252  1.0000
  H   H8        1.0  0.20909697624573198  0.8307083893491335  0.38588616861716923  1.0000
  H   H9        1.0  0.7391397141027481  0.047484697650247695  0.5285052674019184  1.0000
  H   H10       1.0  0.2608605135051222  0.9525169561061728  0.47149665183525263  1.0000
  H   H11       1.0  0.4474811148038497  0.2532762789997705  0.7072868421667877  1.0000
  H   H12       1.0  0.552514749455419  0.7467253809743325  0.29271263484690724  1.0000
  H   H13       1.0  0.8540532451828469  0.8832387966916498  0.6564146658791686  1.0000
  H   H14       1.0  0.1459429823307445  0.11675981273506855  0.34358257855053864  1.0000
  H   H15       1.0  0.16480863076837693  0.6687919948735157  0.5806416695792151  1.0000
  H   H16       1.0  0.8351921218125754  0.3312073680945815  0.41936008443503436  1.0000
  H   H17       1.0  0.3245252556529579  0.8095464717764215  0.690655947637609  1.0000
  H   H18       1.0  0.6754771894993539  0.19045518329637182  0.3093447810204211  1.0000
  H   H19       1.0  0.36707714168831984  0.7887402285376695  0.5817855225839708  1.0000
  H   H20       1.0  0.6329252855289197  0.21126142432251524  0.41821641191949516  1.0000
  H   H21       1.0  0.32586938036247665  0.44104482159418257  0.0061706006187236765  1.0000
  H   H22       1.0  0.6741301515860273  0.5589583620851926  0.993830019402992  1.0000
  H   H23       1.0  0.6536503284065419  0.7355245051872572  0.6360751662415822  1.0000
  H   H24       1.0  0.3463480807813468  0.2644741011306238  0.36392329929986295  1.0000
  H   H25       1.0  0.6846938911083739  0.2093061614014573  0.9213092011823464  1.0000
  H   H26       1.0  0.31530343226322083  0.7906970220678601  0.07869200649577825  1.0000
  H   H27       1.0  0.5301753225279527  0.1269371311535821  0.9359074878687963  1.0000
  H   H28       1.0  0.4698227323731531  0.8730645268179771  0.06409260733391876  1.0000
  H   H29       1.0  0.34968149841702  0.5484897996293296  0.16608074421640143  1.0000
  H   H30       1.0  0.6503193488601298  0.4515141499988005  0.8339183332632418  1.0000
  H   H31       1.0  0.9655531430865946  0.22268366243191196  0.5564563886717622  1.0000
  H   H32       1.0  0.03444836290560716  0.7773096027603327  0.44353909140636455  1.0000
  H   H33       1.0  0.5498711411653688  0.9309046658765469  0.4825853391576588  1.0000
  H   H34       1.0  0.45013222413780335  0.06909622677646607  0.5174145356178813  1.0000
  H   H35       1.0  0.4867179655440097  0.8241327664921768  0.5072431177174225  1.0000
  H   H36       1.0  0.5132860864509967  0.1758665951315734  0.49275865919628364  1.0000
  H   H37       1.0  0.6791791799278569  0.872458362047773  0.5173451761114479  1.0000
  H   H38       1.0  0.3208265467034437  0.1275432894680577  0.4826567812914746  1.0000
  H   H39       1.0  0.887872875815681  0.21278787812409655  0.7767575422929126  1.0000
  H   H40       1.0  0.11212938968280646  0.787213014977027  0.22324232484947265  1.0000
  H   H41       1.0  0.7533856427933544  0.277525204115328  0.8441931133498529  1.0000
  H   H42       1.0  0.24661681132648994  0.7224764520637664  0.15580701238546632  1.0000
  H   H43       1.0  0.7628535739399425  0.2691929743034933  0.7357009094496334  1.0000
  H   H44       1.0  0.23714884430975766  0.7308086774503904  0.2643016279765504  1.0000
  H   H45       1.0  0.6238221200056772  0.2607956072536979  0.060140758432474725  1.0000
  H   H46       1.0  0.3761610037768436  0.7391991839683598  0.9398593295269606  1.0000
  H   H47       1.0  0.26321957011603564  0.9231692934491988  0.7953402831986909  1.0000
  H   H48       1.0  0.7367828840038086  0.0768323627298955  0.20465984253662842  1.0000
  H   H49       1.0  0.31521899046592233  0.0483054983649183  0.8737496349404239  1.0000
  H   H50       1.0  0.6847810574881238  0.9516953934198396  0.1262514227810954  1.0000
  H   H51       1.0  0.41916904803343163  0.9524956650376524  0.8710146424770217  1.0000
  H   H52       1.0  0.5808321266279036  0.04750522961789018  0.1289846141095055  1.0000
  H   H53       1.0  0.6376339259677266  0.37741669414737794  0.2153675770914845  1.0000
  H   H54       1.0  0.3623595002022811  0.6225796225164683  0.7846312879840128  1.0000
  C   C1        1.0  0.028544002776058654  0.7892065060758283  0.6196857124181676  1.0000
  C   C2        1.0  0.971455317595158  0.2107913367159711  0.3803125021635055  1.0000
  C   C3        1.0  0.0870563879493247  0.15370075146319098  0.6264604423259286  1.0000
  C   C4        1.0  0.9129488176555751  0.8462986163502534  0.37353772468462415  1.0000
  C   C5        1.0  0.5609884580938314  0.9659368438106166  0.6225139390959527  1.0000
  C   C6        1.0  0.4390168912947487  0.034063281549286686  0.37748750112111656  1.0000
  C   C7        1.0  0.6635987472263166  0.12747124983518177  0.7444963768288061  1.0000
  C   C8        1.0  0.33640200535463555  0.8725281131329155  0.25550537718545036  1.0000
  C   C9        1.0  0.18495167278364016  0.3060262616015094  0.6038293482794188  1.0000
  C   C10       1.0  0.8150476475875833  0.6939715811902897  0.39616886630224707  1.0000
  C   C11       1.0  0.937060381056895  0.6128343800365882  0.5899583066067677  1.0000
  C   C12       1.0  0.06293850826639871  0.38716192996145776  0.41004300832535284  1.0000
  C   C13       1.0  0.22707478710261603  0.16379171774568846  0.6688300864456451  1.0000
  C   C14       1.0  0.7729285692330238  0.8362091738010233  0.3311703912526128  1.0000
  C   C15       1.0  0.7724622846912155  0.08704590813412949  0.598568567791375  1.0000
  C   C16       1.0  0.22754122439564387  0.9129557420653285  0.40143458019067435  1.0000
  C   C17       1.0  0.3377957008330624  0.24449900277615905  0.6757015564912835  1.0000
  C   C18       1.0  0.6622032562838384  0.7555018905630178  0.3242988906743707  1.0000
  C   C19       1.0  0.8813455057514261  0.8068655970888371  0.6358624474057706  1.0000
  C   C20       1.0  0.1186569483684181  0.19313605909025708  0.36413767832954147  1.0000
  C   C21       1.0  0.6611964679092992  0.0595384565218566  0.6560426065103684  1.0000
  C   C22       1.0  0.3388044822605423  0.9404616706305118  0.34395880317408983  1.0000
  C   C23       1.0  0.05485227309664251  0.6890322939855976  0.5957422816591703  1.0000
  C   C24       1.0  0.9451446411087828  0.31096478441186537  0.4042568649087031  1.0000
  C   C25       1.0  0.4600604414930132  0.9409815474331182  0.6785419112947721  1.0000
  C   C26       1.0  0.5399427262212624  0.0590185810356232  0.3214583078105591  1.0000
  C   C27       1.0  0.46323220783106217  0.007560595054883399  0.7677477276806357  1.0000
  C   C28       1.0  0.5367680377118802  0.9924410609141459  0.2322529857110993  1.0000
  C   C29       1.0  0.3423436557752525  0.8463492110564558  0.6438725971465971  1.0000
  C   C30       1.0  0.6576563921788007  0.15365168072829496  0.3561284605749293  1.0000
  C   C31       1.0  0.39559625666272064  0.42349481551745066  0.05028987277186299  1.0000
  C   C32       1.0  0.604402538735421  0.576505318062665  0.9497085070327175  1.0000
  C   C33       1.0  0.7696110976363145  0.7251436659656176  0.6257721583447449  1.0000
  C   C34       1.0  0.23038810190714534  0.27485799708934167  0.37422492987753486  1.0000
  C   C35       1.0  0.5711684187477317  0.16909846785631538  0.8956530961978545  1.0000
  C   C36       1.0  0.4288288956563307  0.830904714506694  0.10434871440298824  1.0000
  C   C37       1.0  0.40942070768787897  0.4841644338153514  0.1393642774051926  1.0000
  C   C38       1.0  0.5905823302311078  0.5158395138102492  0.8606354182634705  1.0000
  C   C39       1.0  0.06867916871816962  0.2263704041893888  0.5919737513221577  1.0000
  C   C40       1.0  0.9313232983158884  0.7736266786052965  0.40802181587517344  1.0000
  C   C41       1.0  0.5681583963792106  0.8946645946984474  0.5283332891489821  1.0000
  C   C42       1.0  0.4318449330538244  0.1053362935293478  0.4716689973174297  1.0000
  C   C43       1.0  0.7718907266415229  0.2265597904923168  0.7776327852433909  1.0000
  C   C44       1.0  0.22810877338351795  0.7734388142711452  0.2223662908539197  1.0000
  C   C45       1.0  0.472064427351853  0.33983574661947086  0.017998595248755585  1.0000
  C   C46       1.0  0.5279358540612265  0.6601659137747615  0.9819997064521077  1.0000
  C   C47       1.0  0.5610021860402767  0.32350757761469845  0.07913867058938712  1.0000
  C   C48       1.0  0.4389890136177571  0.6764887366264745  0.9208619879879549  1.0000
  C   C49       1.0  0.5663108324750256  0.0995339328775273  0.8001867530211584  1.0000
  C   C50       1.0  0.43368757276618913  0.9004692479310631  0.1998156681355567  1.0000
  C   C51       1.0  0.35968411412849116  0.981251807609034  0.8297375935316041  1.0000
  C   C52       1.0  0.6403172222515963  0.018749846805569296  0.1702637304159964  1.0000
  C   C53       1.0  0.5694056771164  0.38897065839756084  0.16679566069876015  1.0000
  C   C54       1.0  0.4305883149176779  0.6110279475001833  0.833203980155517  1.0000
  S   S1        1.0  0.9496075096774277  0.052254497309689917  0.6205960353998421  1.0000
  S   S2        1.0  0.05039418098945702  0.9477441054512281  0.3794036588864884  1.0000
  S   S3        1.0  0.16956972668503306  0.890226735284642  0.628123816781951  1.0000
  S   S4        1.0  0.8304308552096274  0.10977186681809308  0.3718764727939431  1.0000
  S   S5        1.0  0.45161716143330477  0.2635219684329612  0.905891789277888  1.0000
  S   S6        1.0  0.5483796229768245  0.7364789291213608  0.09410683385331706  1.0000
  I   I1        1.0  0.2713366300287205  0.6285092620076256  0.38180305539594184  1.0000
  I   I2        1.0  0.7286584887126465  0.3714893467609102  0.618194784323336  1.0000
  I   I3        1.0  0.6255162246941665  0.4367182289662208  0.3940331252616075  1.0000
  I   I4        1.0  0.3744873062744389  0.5632788489551358  0.6059648612597357  1.0000
  N   N1        1.0  0.3185580738683456  0.31666003790703456  0.6451552307210733  1.0000
  N   N2        1.0  0.6814403442870828  0.683338569517147  0.35484263189765397  1.0000
  N   N3        1.0  0.7952463657124368  0.6287929750202181  0.6031992753613622  1.0000
  N   N4        1.0  0.20475004145497883  0.37120639637816305  0.39679883058398974  1.0000
  N   N5        1.0  0.49496844316946925  0.46830207513163197  0.1983289461199149  1.0000
  N   N6        1.0  0.5050252125128907  0.5316995846323991  0.8016711185501961  1.0000
