data_image0
_chemical_formula_structural       Cu2H20C24O12
_chemical_formula_sum              "Cu2 H20 C24 O12"
_cell_length_a       6.527302745040832
_cell_length_b       6.774338488817951
_cell_length_c       12.55616328785281
_cell_angle_alpha    91.54737460097328
_cell_angle_beta     90.00036963352906
_cell_angle_gamma    90.00011984152869

_space_group_name_H-M_alt    "P 1"
_space_group_IT_number       1

loop_
  _space_group_symop_operation_xyz
  'x, y, z'

loop_
  _atom_site_type_symbol
  _atom_site_label
  _atom_site_symmetry_multiplicity
  _atom_site_fract_x
  _atom_site_fract_y
  _atom_site_fract_z
  _atom_site_occupancy
  Cu  Cu1       1.0  0.8696905439166754  0.6995730374642904  0.48412254069710753  1.0000
  Cu  Cu2       1.0  0.369692099739872  0.3004369121653808  0.5158770320752452  1.0000
  H   H1        1.0  0.6714763095087973  0.8666299217048987  0.8546295080385136  1.0000
  H   H2        1.0  0.1714546753713293  0.1333618371712859  0.14535796285139205  1.0000
  H   H3        1.0  0.6687460203010432  0.9271312424909153  0.050343748803051376  1.0000
  H   H4        1.0  0.16875699508442918  0.0728383602797606  0.949642585640724  1.0000
  H   H5        1.0  0.7314918980556226  0.15009316931568864  0.2059917685951831  1.0000
  H   H6        1.0  0.23151625048548394  0.8498706740444106  0.793999473825984  1.0000
  H   H7        1.0  0.856382863655952  0.49339285094709606  0.18109982407116113  1.0000
  H   H8        1.0  0.35640380206243083  0.5065816117836947  0.8189103232710193  1.0000
  H   H9        1.0  0.9124401805596777  0.6163540557906874  0.9984799580160553  1.0000
  H   H10       1.0  0.4124463874839321  0.38363383213576435  0.001532174962527198  1.0000
  H   H11       1.0  0.8981727075330637  0.5599496479523722  0.8020455923515185  1.0000
  H   H12       1.0  0.39816301688848194  0.4400603585028477  0.19796443250493206  1.0000
  H   H13       1.0  0.8698280238143069  0.9958893766976686  0.3712468416116578  1.0000
  H   H14       1.0  0.36983957675672485  0.004127956765259499  0.6287528418628483  1.0000
  H   H15       1.0  0.632066847754018  0.9632718513165842  0.3971697190423669  1.0000
  H   H16       1.0  0.1320766165511671  0.036741945183621304  0.6028314847291867  1.0000
  H   H17       1.0  0.6898649731492484  0.4668819550046166  0.3703008002221039  1.0000
  H   H18       1.0  0.1898744776759855  0.533134933102481  0.6297030373663333  1.0000
  H   H19       1.0  0.9127748013028876  0.37189937095313763  0.3834938054486655  1.0000
  H   H20       1.0  0.4127812622305028  0.6281210197989824  0.6165068674978116  1.0000
  C   C1        1.0  0.7344751265336882  0.9409765539692855  0.6495234293969077  1.0000
  C   C2        1.0  0.2344696242990523  0.05904193247457099  0.3504702316744783  1.0000
  C   C3        1.0  0.8193026789621811  0.36124015445442137  0.6168270974077358  1.0000
  C   C4        1.0  0.3192940772618229  0.6387785244685132  0.38317880404905214  1.0000
  C   C5        1.0  0.7547160053812831  0.08466890654169391  0.741813916641675  1.0000
  C   C6        1.0  0.2547094785041466  0.9153407681701963  0.2581804788051087  1.0000
  C   C7        1.0  0.7218408021180662  0.018050413827367603  0.8431923497350623  1.0000
  C   C8        1.0  0.22183164153348395  0.981944410692243  0.15680410046275026  1.0000
  C   C9        1.0  0.7537229407402605  0.14332003683140468  0.9341173016872586  1.0000
  C   C10       1.0  0.253701716678826  0.8566630519557138  0.0658790827621942  1.0000
  C   C11       1.0  0.7208554913990709  0.07798299904288801  0.0390685386617946  1.0000
  C   C12       1.0  0.22085289443132436  0.9220014842427133  0.9609293466525697  1.0000
  C   C13       1.0  0.7562153041112863  0.2030392605022726  0.1257684799184631  1.0000
  C   C14       1.0  0.2562359318663638  0.7969379256778739  0.8742294178981709  1.0000
  C   C15       1.0  0.8274561609133997  0.3979417308675863  0.11142090073159489  1.0000
  C   C16       1.0  0.32745974027149316  0.6020370981391852  0.8885836375025988  1.0000
  C   C17       1.0  0.8589310939443066  0.46599253878928676  0.010128354518812393  1.0000
  C   C18       1.0  0.3589281111157305  0.533981931113466  0.9898810052149684  1.0000
  C   C19       1.0  0.8235099051628935  0.34159142855131813  0.9193501165584904  1.0000
  C   C20       1.0  0.3235007399162484  0.6584006800981969  0.08065540274466089  1.0000
  C   C21       1.0  0.8526668570866462  0.4074081984852427  0.814248384757505  1.0000
  C   C22       1.0  0.3526557760907565  0.592594321179547  0.18575500076268978  1.0000
  C   C23       1.0  0.8181220795591599  0.2837453349161835  0.7268596313017779  1.0000
  C   C24       1.0  0.31810616384543516  0.7162630091262018  0.27314212971958085  1.0000
  O   O1        1.0  0.8998830619993682  0.9068667109685578  0.5959665173039709  1.0000
  O   O2        1.0  0.399884401442158  0.0931521764885233  0.4040301068321739  1.0000
  O   O3        1.0  0.5676280669542207  0.8517306535729787  0.6313857385157462  1.0000
  O   O4        1.0  0.0676367420717199  0.148280042927162  0.36860643714127406  1.0000
  O   O5        1.0  0.9319449684658209  0.5161639280304797  0.6007845909469933  1.0000
  O   O6        1.0  0.43194699121755054  0.48385355026805854  0.3992208828567739  1.0000
  O   O7        1.0  0.7090008751182778  0.27858179740616856  0.5471470449300354  1.0000
  O   O8        1.0  0.2089994025033306  0.7214292364998159  0.4528519924159012  1.0000
  O   O9        1.0  0.7612609211312035  0.8919865887573126  0.3787415334324677  1.0000
  O   O10       1.0  0.26127258050735236  0.108029001900924  0.6212585477681145  1.0000
  O   O11       1.0  0.8399438184197763  0.49558449571457425  0.36728814096751705  1.0000
  O   O12       1.0  0.33995483694194917  0.5044327686808288  0.6327082532033187  1.0000
