data_image0
_chemical_formula_structural       Zn2H28C54N4O8
_chemical_formula_sum              "Zn2 H28 C54 N4 O8"
_cell_length_a       14.706132786535926
_cell_length_b       16.099386120436787
_cell_length_c       17.30123412938017
_cell_angle_alpha    88.92099055776458
_cell_angle_beta     106.18695214101271
_cell_angle_gamma    101.63041035257915

_space_group_name_H-M_alt    "P 1"
_space_group_IT_number       1

loop_
  _space_group_symop_operation_xyz
  'x, y, z'

loop_
  _atom_site_type_symbol
  _atom_site_label
  _atom_site_symmetry_multiplicity
  _atom_site_fract_x
  _atom_site_fract_y
  _atom_site_fract_z
  _atom_site_occupancy
  Zn  Zn1       1.0  0.5984567357526417  0.4908081376242777  0.5269592260338243  1.0000
  Zn  Zn2       1.0  0.4015897290924356  0.5049740761642736  0.471165206830868  1.0000
  H   H1        1.0  0.3874965848429354  0.5763450270763143  0.22679327526653026  1.0000
  H   H2        1.0  0.31307629427923434  0.6385109192820124  0.37254510471385055  1.0000
  H   H3        1.0  0.15719510322888644  0.6905877407898159  0.3454418546873015  1.0000
  H   H4        1.0  0.8402391821475348  0.3017060045734326  0.6511634119941687  1.0000
  H   H5        1.0  0.8692524197814107  0.5991991765983684  0.4273765754074076  1.0000
  H   H6        1.0  0.13041478275121676  0.3955314984257754  0.572416501121829  1.0000
  H   H7        1.0  0.3513997855838084  0.5614006905976437  0.6946375325642292  1.0000
  H   H8        1.0  0.6622128994309905  0.5019692266938022  0.29924044991902576  1.0000
  H   H9        1.0  0.42664007723280406  0.6115573809981001  0.9730273228084058  1.0000
  H   H10       1.0  0.6293431799992958  0.5697892810155383  0.03174952258151358  1.0000
  H   H11       1.0  0.6853603769049669  0.5359199453509902  0.1638708470548451  1.0000
  H   H12       1.0  0.6501026504793472  0.5448775723901916  0.778574540659555  1.0000
  H   H13       1.0  0.35327118699144927  0.5985694921227703  0.8345048033964771  1.0000
  H   H14       1.0  0.6541374057522588  0.5823497945102858  0.9178965463580581  1.0000
  H   H15       1.0  0.40990192844694917  0.6124267735371516  0.09256614697992659  1.0000
  H   H16       1.0  0.7551125132688983  0.05149023753269691  0.5118189777968993  1.0000
  H   H17       1.0  0.25286417354681123  0.9458500751393968  0.5067753943943742  1.0000
  H   H18       1.0  0.2647012329723637  0.24250650247857655  0.504275383299678  1.0000
  H   H19       1.0  0.7420850192690408  0.7562037545175996  0.5004154109742841  1.0000
  H   H20       1.0  0.7893503082597846  0.9151490403824737  0.5010382029021513  1.0000
  H   H21       1.0  0.21761011878366082  0.0844339413901167  0.5107807774125561  1.0000
  H   H22       1.0  0.6450800256182488  0.14418902817344298  0.5150881483253613  1.0000
  H   H23       1.0  0.3619245367328928  0.8525578107684382  0.5038105952880727  1.0000
  H   H24       1.0  0.9921088973087321  0.6732363387525877  0.3658408041285098  1.0000
  H   H25       1.0  0.00683442577420828  0.3203813456378839  0.6326144507721309  1.0000
  H   H26       1.0  0.7737277637898147  0.5436479891119034  0.48227702420163604  1.0000
  H   H27       1.0  0.2272877870445456  0.45285643236220346  0.5191939999877491  1.0000
  H   H28       1.0  0.6840427425143856  0.3530362037132305  0.6227541018599893  1.0000
  C   C1        1.0  0.5784479882756344  0.6620059522180384  0.5121082765373401  1.0000
  C   C2        1.0  0.470566800147374  0.18815100561301523  0.48607874015299757  1.0000
  C   C3        1.0  0.5560851135436379  0.8973725386768193  0.5139457362201298  1.0000
  C   C4        1.0  0.4502791781796276  0.09834831828116107  0.49817273605548706  1.0000
  C   C5        1.0  0.6512665970742971  0.934656267501843  0.508950240646584  1.0000
  C   C6        1.0  0.3553474065573852  0.06234762296873699  0.5042430785641159  1.0000
  C   C7        1.0  0.4878794781549799  0.9529457381378915  0.5089058781794691  1.0000
  C   C8        1.0  0.5186557921729928  0.042790203523992376  0.505218357858169  1.0000
  C   C9        1.0  0.6178892199963356  0.07622344966640068  0.5111570868711866  1.0000
  C   C10       1.0  0.38905287696346846  0.9203897867885118  0.5053815257364178  1.0000
  C   C11       1.0  0.6804115760496285  0.024374719312554294  0.5104573186832724  1.0000
  C   C12       1.0  0.4307398589474757  0.3342079867362813  0.4908094337430667  1.0000
  C   C13       1.0  0.32690700668554473  0.9727656631259335  0.506026281646399  1.0000
  C   C14       1.0  0.16952726370046622  0.6372012027723953  0.3839109313246921  1.0000
  C   C15       1.0  0.828652747115001  0.355774773063267  0.6134499059104783  1.0000
  C   C16       1.0  0.5067327061279342  0.5122253138432382  0.35091238539201436  1.0000
  C   C17       1.0  0.49714919712458533  0.51894516850043  0.646342234923182  1.0000
  C   C18       1.0  0.2549809929682069  0.6092810030118726  0.3980815633736583  1.0000
  C   C19       1.0  0.7431178540287746  0.38361978921093953  0.5989385155353019  1.0000
  C   C20       1.0  0.20646686563389946  0.504274439598902  0.4808906770575305  1.0000
  C   C21       1.0  0.7934544606138941  0.4907563883575888  0.5188514936351963  1.0000
  C   C22       1.0  0.11647123051799468  0.5274724518446449  0.47028396442708936  1.0000
  C   C23       1.0  0.6021278914053526  0.7575461813864733  0.5140973884839681  1.0000
  C   C24       1.0  0.8830976442900677  0.46700286347044784  0.5291039870004396  1.0000
  C   C25       1.0  0.0974300677093112  0.5963353705279033  0.4192964085290071  1.0000
  C   C26       1.0  0.901534794812889  0.3974116496133674  0.579250321507885  1.0000
  C   C27       1.0  0.04461550024470277  0.48413963845177216  0.5076329574319729  1.0000
  C   C28       1.0  0.955113664443239  0.5105434002084764  0.49204300320563715  1.0000
  C   C29       1.0  0.9382973356909828  0.5793038995424312  0.4400997632931975  1.0000
  C   C30       1.0  0.0612255313439718  0.4152094255962595  0.5594107130770283  1.0000
  C   C31       1.0  0.006635409967131475  0.6209391726796339  0.4053071684077523  1.0000
  C   C32       1.0  0.9924680174301629  0.3729825336164438  0.5935027559861936  1.0000
  C   C33       1.0  0.5226493250891764  0.5357340529416348  0.27095281977772595  1.0000
  C   C34       1.0  0.4048939394204893  0.2388544121277931  0.49177912638919696  1.0000
  C   C35       1.0  0.4993958496302822  0.5469399544904403  0.7288079097557015  1.0000
  C   C36       1.0  0.4526761416927626  0.5680524228998963  0.21223294106584226  1.0000
  C   C37       1.0  0.5852709318943425  0.5558429659039207  0.792013843953647  1.0000
  C   C38       1.0  0.46573965039686255  0.5880233573525117  0.13716575643970685  1.0000
  C   C39       1.0  0.5868653939320793  0.5769626413282865  0.869754354899662  1.0000
  C   C40       1.0  0.5489277367521197  0.5751637674423762  0.11742901720061377  1.0000
  C   C41       1.0  0.5023836955410275  0.5897295100344309  0.8873122950981623  1.0000
  C   C42       1.0  0.6202213222411216  0.5456324152760529  0.17794522242759567  1.0000
  C   C43       1.0  0.4184988414680433  0.5863254983454951  0.8223845341471119  1.0000
  C   C44       1.0  0.6075913716995913  0.5263155943610868  0.2534025606815149  1.0000
  C   C45       1.0  0.7178077407830727  0.8837678499617352  0.5049596200741816  1.0000
  C   C46       1.0  0.4166848423041074  0.5648307261525146  0.7444205491712239  1.0000
  C   C47       1.0  0.5615979342485603  0.5840021903240139  0.037028191590657435  1.0000
  C   C48       1.0  0.49553900691451946  0.598869950100372  0.9689393291588999  1.0000
  C   C49       1.0  0.5517435228821341  0.2282972940184536  0.4589952741091493  1.0000
  C   C50       1.0  0.45414563491200965  0.7640867368442413  0.5475244967465115  1.0000
  C   C51       1.0  0.28911174188002786  0.11450730840716261  0.5057609428631622  1.0000
  C   C52       1.0  0.6928638331623986  0.7968332059502855  0.5051928616908583  1.0000
  C   C53       1.0  0.3141183435692483  0.20122854701170914  0.5016581887841268  1.0000
  C   C54       1.0  0.5359680518981731  0.8067014242867497  0.5223886885360045  1.0000
  N   N1        1.0  0.2722375159179861  0.5429146089663633  0.445672203913034  1.0000
  N   N2        1.0  0.726830407051338  0.4512445254132159  0.55281704991539  1.0000
  N   N3        1.0  0.6142499224173222  0.2588223611423786  0.4313733765989838  1.0000
  N   N4        1.0  0.3906340330418132  0.7326376953382835  0.5736621408654087  1.0000
  O   O1        1.0  0.6488245301157605  0.6238266187174942  0.5277700288004326  1.0000
  O   O2        1.0  0.3621900281768475  0.3733761837592978  0.4632064093956529  1.0000
  O   O3        1.0  0.4892426031248433  0.6275746840005211  0.4922176368659663  1.0000
  O   O4        1.0  0.5193973287463151  0.3673427919474007  0.5208939148247892  1.0000
  O   O5        1.0  0.5779199023909172  0.49387298070578817  0.40495579256512565  1.0000
  O   O6        1.0  0.4155249611037348  0.5040022863922289  0.5928875119900994  1.0000
  O   O7        1.0  0.42342732172388503  0.5126875403800071  0.3595897235544924  1.0000
  O   O8        1.0  0.5776807763922773  0.511877813066398  0.6354583050384051  1.0000
