data_image0
_chemical_formula_structural       Zn2H8C24Br6N4O12
_chemical_formula_sum              "Zn2 H8 C24 Br6 N4 O12"
_cell_length_a       10.299858998999255
_cell_length_b       10.868411419918493
_cell_length_c       11.260405233874607
_cell_angle_alpha    90.30518689670016
_cell_angle_beta     80.78974505928265
_cell_angle_gamma    80.5374570475186

_space_group_name_H-M_alt    "P 1"
_space_group_IT_number       1

loop_
  _space_group_symop_operation_xyz
  'x, y, z'

loop_
  _atom_site_type_symbol
  _atom_site_label
  _atom_site_symmetry_multiplicity
  _atom_site_fract_x
  _atom_site_fract_y
  _atom_site_fract_z
  _atom_site_occupancy
  Zn  Zn1       1.0  0.36547976886126315  0.5033494319404569  0.5097354444188794  1.0000
  Zn  Zn2       1.0  0.6465673353224517  0.4859366723604382  0.49384307705160063  1.0000
  H   H1        1.0  0.6616670850540346  0.8306871234947054  0.8455159138626128  1.0000
  H   H2        1.0  0.43665033156349864  0.13349218241095434  0.1003222903814631  1.0000
  H   H3        1.0  0.3312637520907201  0.9403565275246423  0.12913683764269018  1.0000
  H   H4        1.0  0.7823379505748278  0.013148160007645487  0.7969621287916338  1.0000
  H   H5        1.0  0.5167524044745377  0.22146547382501325  0.2716641021789812  1.0000
  H   H6        1.0  0.5394812236728299  0.7582034920934221  0.6962184450827991  1.0000
  H   H7        1.0  0.14730438713484523  0.6247226234342308  0.44281765236654985  1.0000
  H   H8        1.0  0.8684210149104743  0.3791445206443812  0.5652240097220868  1.0000
  C   C1        1.0  0.5405755438404327  0.4890349681407218  0.2709742763879177  1.0000
  C   C2        1.0  0.46280602775599533  0.5054252136313268  0.7332846182018286  1.0000
  C   C3        1.0  0.47891109680077903  0.7333511078337767  0.5027427274601449  1.0000
  C   C4        1.0  0.5384409291971367  0.2550798418766504  0.4892078340907772  1.0000
  C   C5        1.0  0.38101025435752695  0.9098425336969883  0.3036873036773713  1.0000
  C   C6        1.0  0.6901775579124347  0.06024266942941381  0.6433006685649048  1.0000
  C   C7        1.0  0.38062689101523256  0.9737494663759425  0.19851332647318995  1.0000
  C   C8        1.0  0.7102158152156266  0.9907916191430532  0.7426557562060052  1.0000
  C   C9        1.0  0.43549638899774124  0.08444903905759561  0.18453559631078056  1.0000
  C   C10       1.0  0.6471998988807215  0.8851028701737961  0.7662046981836211  1.0000
  C   C11       1.0  0.4801953844267147  0.13311959290199132  0.2800193599868023  1.0000
  C   C12       1.0  0.5776091596316348  0.8456776166927967  0.6831614073680469  1.0000
  C   C13       1.0  0.48839000996194676  0.06649050874912632  0.3882434568177898  1.0000
  C   C14       1.0  0.5523131994170286  0.9174821177342737  0.5807961110480804  1.0000
  C   C15       1.0  0.44752529391417545  0.9454109367629399  0.399004579998909  1.0000
  C   C16       1.0  0.5980670764476131  0.0358268463694102  0.5657863805565171  1.0000
  C   C17       1.0  0.5497716654668425  0.11537253563212599  0.4782714078004344  1.0000
  C   C18       1.0  0.4817934315888906  0.8722912885362676  0.49610618618329017  1.0000
  C   C19       1.0  0.5474608896720597  0.47913220540866064  0.13684926029786476  1.0000
  C   C20       1.0  0.44048163217953373  0.5229816300683652  0.8682243940762288  1.0000
  C   C21       1.0  0.45204337459443883  0.45041999083173323  0.07713248073837779  1.0000
  C   C22       1.0  0.4684820466987461  0.434189319330308  0.9464413012303151  1.0000
  C   C23       1.0  0.9409067413182014  0.5111917350791657  0.4755594748682341  1.0000
  C   C24       1.0  0.07927625537693218  0.47578115733387705  0.5059253505386749  1.0000
  Br  Br1       1.0  0.5353412790807041  0.2672880497353702  0.8845540253285903  1.0000
  Br  Br2       1.0  0.2828464749699506  0.41784102969607084  0.15570292160327875  1.0000
  Br  Br3       1.0  0.3689054099237126  0.6890514734002696  0.9234500542521857  1.0000
  Br  Br4       1.0  0.7124265229544094  0.5046276260378377  0.045682198346966595  1.0000
  Br  Br5       1.0  0.1100624465215247  0.32213943385756494  0.5817783478390479  1.0000
  Br  Br6       1.0  0.9189068857448319  0.6493469506561667  0.3760106591156642  1.0000
  N   N1        1.0  0.8438021085594156  0.4551721017577891  0.5130574223948087  1.0000
  N   N2        1.0  0.171096606087211  0.541513239080672  0.48515747863952896  1.0000
  N   N3        1.0  0.2906758937196726  0.8170681633955043  0.3162183143863189  1.0000
  N   N4        1.0  0.7933140286396778  0.1376329096284081  0.6045554516818399  1.0000
  O   O1        1.0  0.4278136773816286  0.534592439072874  0.3308286862788137  1.0000
  O   O2        1.0  0.5740036708961398  0.526415572572411  0.6784912237835101  1.0000
  O   O3        1.0  0.6469157839986366  0.45011273925302225  0.3125898350352827  1.0000
  O   O4        1.0  0.36688051803785976  0.4750589187005191  0.6882845974905649  1.0000
  O   O5        1.0  0.376762017581747  0.6904896578118243  0.5490528416940847  1.0000
  O   O6        1.0  0.6295771900783862  0.30331962536027396  0.525593647765227  1.0000
  O   O7        1.0  0.5930889201865881  0.6701698494305006  0.46099379566048526  1.0000
  O   O8        1.0  0.42858516420488973  0.31620071452439197  0.4671183355317083  1.0000
  O   O9        1.0  0.2860079654025895  0.7529506727249713  0.22610174222788965  1.0000
  O   O10       1.0  0.2161095184436447  0.8158473883608439  0.4147262132079418  1.0000
  O   O11       1.0  0.8518698017880058  0.12071394746780581  0.4994390384940315  1.0000
  O   O12       1.0  0.8229452206047726  0.20663345821856183  0.6808772392786152  1.0000
