data_image0
_chemical_formula_structural       Ag2H40C36N10O6
_chemical_formula_sum              "Ag2 H40 C36 N10 O6"
_cell_length_a       8.143792824139949
_cell_length_b       8.143785417610484
_cell_length_c       16.37520279376129
_cell_angle_alpha    75.67906786872919
_cell_angle_beta     75.67906317021298
_cell_angle_gamma    66.93830318878541

_space_group_name_H-M_alt    "P 1"
_space_group_IT_number       1

loop_
  _space_group_symop_operation_xyz
  'x, y, z'

loop_
  _atom_site_type_symbol
  _atom_site_label
  _atom_site_symmetry_multiplicity
  _atom_site_fract_x
  _atom_site_fract_y
  _atom_site_fract_z
  _atom_site_occupancy
  Ag  Ag1       1.0  0.9010955268514635  0.1972235422940045  0.6516785425145744  1.0000
  Ag  Ag2       1.0  0.8027756536074974  0.09890411259529938  0.3483213678256192  1.0000
  H   H1        1.0  0.004528408062277795  0.39988788437256056  0.7570933568311136  1.0000
  H   H2        1.0  0.6001112105674904  0.9954739252725348  0.24290631812883134  1.0000
  H   H3        1.0  0.2812104494334306  0.40859618751831317  0.7962112128695582  1.0000
  H   H4        1.0  0.5914023415755593  0.7187916865899098  0.20378853560564641  1.0000
  H   H5        1.0  0.5852430582413246  0.2577475242725384  0.7150104347458213  1.0000
  H   H6        1.0  0.742250841305946  0.41475813930933464  0.2849888040233779  1.0000
  H   H7        1.0  0.3185972092068923  0.1003242483151183  0.5665068379318968  1.0000
  H   H8        1.0  0.8996746040849786  0.6814028859973008  0.4334924849471805  1.0000
  H   H9        1.0  0.6245156892353022  0.9856202402569282  0.541725562449493  1.0000
  H   H10       1.0  0.01437904595633201  0.37548491228668  0.4582730781991274  1.0000
  H   H11       1.0  0.8958203668922521  0.8871860209728767  0.4907498788443476  1.0000
  H   H12       1.0  0.11281259016725897  0.10418014359084539  0.5092488279212334  1.0000
  H   H13       1.0  0.12046639383896007  0.8249991509725733  0.6280912695694456  1.0000
  H   H14       1.0  0.17500149709467636  0.8795343997056762  0.37190720597131155  1.0000
  H   H15       1.0  0.9886230001825779  0.6977352337067373  0.6263190458139293  1.0000
  H   H16       1.0  0.3022651558330979  0.011378128018222402  0.3736799551093172  1.0000
  H   H17       1.0  0.18772414455197856  0.5926224826410333  0.49223704582374245  1.0000
  H   H18       1.0  0.4073778163420769  0.8122770188752994  0.507762625661158  1.0000
  H   H19       1.0  0.320264231207929  0.5447416141631578  0.5712490087405586  1.0000
  H   H20       1.0  0.45525913173271704  0.6797348574059183  0.4287502387190969  1.0000
  H   H21       1.0  0.6810627456588778  0.9477738619161755  0.8041222823123492  1.0000
  H   H22       1.0  0.052224671790952464  0.3189417482994443  0.195877185929426  1.0000
  H   H23       1.0  0.7264008601839719  0.7036817990921734  0.9331117021626414  1.0000
  H   H24       1.0  0.2963157675438807  0.2736024214434778  0.06688801231587863  1.0000
  H   H25       1.0  0.042180373685049115  0.5455183521756909  0.969274712567767  1.0000
  H   H26       1.0  0.45447640174496917  0.9578239790239849  0.030723424414638625  1.0000
  H   H27       1.0  0.21840818585588526  0.907113805478396  0.7584772091056922  1.0000
  H   H28       1.0  0.09288427656397144  0.7815937242353072  0.241522665036591  1.0000
  H   H29       1.0  0.43800287091058726  0.6910047526835826  0.840930095380209  1.0000
  H   H30       1.0  0.30899189101726426  0.5620011706435477  0.15906966019714733  1.0000
  H   H31       1.0  0.650487028459679  0.5057962527691018  0.9103113461828088  1.0000
  H   H32       1.0  0.49420270145363077  0.3495131425230369  0.08968979248209051  1.0000
  H   H33       1.0  0.6684406960721104  0.2376299103779189  0.8641530556164839  1.0000
  H   H34       1.0  0.7623676054146314  0.33156223126552214  0.13584850965090575  1.0000
  H   H35       1.0  0.5855157646050627  0.14632371335972752  0.9688064196364508  1.0000
  H   H36       1.0  0.8536750256500907  0.4144853452843691  0.03119460746962934  1.0000
  H   H37       1.0  0.920197031226671  0.0042095354422074  0.9394714775469098  1.0000
  H   H38       1.0  0.9957882938548438  0.0798026011920498  0.06053163912387301  1.0000
  H   H39       1.0  0.9435484118162235  0.2184033898930551  0.9116726666715068  1.0000
  H   H40       1.0  0.7815949222722196  0.056451609131670515  0.08833035727521829  1.0000
  C   C1        1.0  0.1406132598134278  0.3347169722849869  0.7236981876416311  1.0000
  C   C2        1.0  0.66528194519163  0.8593875284127961  0.27630229471820666  1.0000
  C   C3        1.0  0.2943074550646543  0.3391139155664007  0.7447909420530012  1.0000
  C   C4        1.0  0.6608838015587537  0.7056935342382855  0.2552084305841618  1.0000
  C   C5        1.0  0.46401442763418277  0.2533362499817287  0.6996475809823368  1.0000
  C   C6        1.0  0.7466607332305414  0.5359862297113409  0.30035190339054213  1.0000
  C   C7        1.0  0.47574101115226597  0.16466274098343084  0.6340865566342516  1.0000
  C   C8        1.0  0.8353332491829805  0.5242597133844596  0.3659136447449853  1.0000
  C   C9        1.0  0.31375200268611536  0.1677877566438752  0.6173270668192716  1.0000
  C   C10       1.0  0.8322118273579946  0.6862469748776122  0.3826716984219019  1.0000
  C   C11       1.0  0.6429574048922075  0.0626192966643018  0.5830857298671505  1.0000
  C   C12       1.0  0.9373781156546246  0.3570437871972841  0.4169136076477926  1.0000
  C   C13       1.0  0.9523383535193943  0.9373420294619025  0.5304394763133545  1.0000
  C   C14       1.0  0.06265696055185538  0.0476629836078644  0.4695596922315489  1.0000
  C   C15       1.0  0.07227782473766092  0.7748038314153334  0.5853914581407056  1.0000
  C   C16       1.0  0.22519602480136997  0.9277226295838831  0.4146077671763565  1.0000
  C   C17       1.0  0.23382594931165804  0.6560432138939233  0.5300425356015313  1.0000
  C   C18       1.0  0.34395781581316937  0.7661741218136198  0.469955960360281  1.0000
  C   C19       1.0  0.8138302131302378  0.8803864844529059  0.8237308090780006  1.0000
  C   C20       1.0  0.11961063324687866  0.18617382310051775  0.17626887457834786  1.0000
  C   C21       1.0  0.840384333952869  0.7409855550335749  0.8943472862682785  1.0000
  C   C22       1.0  0.25901006768270207  0.1596208031476891  0.10565121189169703  1.0000
  C   C23       1.0  0.01309769697498798  0.6554859451005016  0.9151371260684729  1.0000
  C   C24       1.0  0.344509923372243  0.9869076071669695  0.08486137784968414  1.0000
  C   C25       1.0  0.15422660896391704  0.7128560241486852  0.8655924506449468  1.0000
  C   C26       1.0  0.2871428068178758  0.8457768819182049  0.13440590539877212  1.0000
  C   C27       1.0  0.11219316886011645  0.8577326742275273  0.7978490537568633  1.0000
  C   C28       1.0  0.14226354933612845  0.8878111922558104  0.20215014109092527  1.0000
  C   C29       1.0  0.34060591698643333  0.6298529776371639  0.8827545748218174  1.0000
  C   C30       1.0  0.3701443618499737  0.6593950808963881  0.11724486189564945  1.0000
  C   C31       1.0  0.5750870144805662  0.42120951749261326  0.9532728510276985  1.0000
  C   C32       1.0  0.5787902734171695  0.42491424656791565  0.04672866040765911  1.0000
  C   C33       1.0  0.6671699131896532  0.22927678303032908  0.9322628585955499  1.0000
  C   C34       1.0  0.7707216285442654  0.3328312128802439  0.06773881760859979  1.0000
  C   C35       1.0  0.8584610069249904  0.14268271006456248  0.9532702692294779  1.0000
  C   C36       1.0  0.8573148644834986  0.1415386705827189  0.04673227784443413  1.0000
  N   N1        1.0  0.1500717419756653  0.25018144109593277  0.6605218869613267  1.0000
  N   N2        1.0  0.749817684315289  0.8499287095278375  0.33947860408468966  1.0000
  N   N3        1.0  0.8030097859502517  0.05518990678719861  0.5839884299102709  1.0000
  N   N4        1.0  0.9448104874796998  0.19698964581628084  0.4160101337526072  1.0000
  N   N5        1.0  0.6601217038746227  0.5971511950004641  0.6663274869268748  1.0000
  N   N6        1.0  0.40284909182668127  0.3398794112387833  0.3336733776754316  1.0000
  N   N7        1.0  0.9460955273526676  0.9402418948889065  0.7771460112371715  1.0000
  N   N8        1.0  0.05975407975559219  0.05390964931403629  0.22285305653928594  1.0000
  N   N9        1.0  0.38751510023961094  0.49184418084193743  0.9412568588195642  1.0000
  N   N10       1.0  0.5081538599275035  0.6124878669264645  0.058743456371153975  1.0000
  O   O1        1.0  0.7074876258391996  0.4649632505595491  0.7281240433724039  1.0000
  O   O2        1.0  0.5350361113821477  0.292514340352554  0.2718749845828867  1.0000
  O   O3        1.0  0.5481164795015726  0.7485572543082384  0.6831980002575408  1.0000
  O   O4        1.0  0.2514413304774408  0.45188819405863967  0.3168038772476863  1.0000
  O   O5        1.0  0.7267283427054352  0.5726983563464573  0.589900819976684  1.0000
  O   O6        1.0  0.42730477992800797  0.2732730081974708  0.41009965784729735  1.0000
