data_image0
_chemical_formula_structural       Ag2P2H44C50N4O4
_chemical_formula_sum              "Ag2 P2 H44 C50 N4 O4"
_cell_length_a       9.337095978222553
_cell_length_b       9.7353116727961
_cell_length_c       13.581
_cell_angle_alpha    97.23370709079153
_cell_angle_beta     92.20320764711116
_cell_angle_gamma    116.86040613423786

_space_group_name_H-M_alt    "P 1"
_space_group_IT_number       1

loop_
  _space_group_symop_operation_xyz
  'x, y, z'

loop_
  _atom_site_type_symbol
  _atom_site_label
  _atom_site_symmetry_multiplicity
  _atom_site_fract_x
  _atom_site_fract_y
  _atom_site_fract_z
  _atom_site_occupancy
  Ag  Ag1       1.0  0.4529979946845302  0.6352066913293655  0.4234516427129974  1.0000
  Ag  Ag2       1.0  0.5469994558309779  0.3647939548408772  0.5765493054466546  1.0000
  P   P1        1.0  0.224551642209569  0.571006137715365  0.3160772880850473  1.0000
  P   P2        1.0  0.775447395611117  0.4289933418720295  0.6839206514393084  1.0000
  H   H1        1.0  0.22297188591155503  0.7184773746823865  0.5253357434904871  1.0000
  H   H2        1.0  0.7770271111521581  0.281519771739319  0.4746649296530663  1.0000
  H   H3        1.0  0.9710321933083321  0.5846154931650176  0.3482887839648043  1.0000
  H   H4        1.0  0.028968513331491922  0.4153874861708999  0.6517102518823066  1.0000
  H   H5        1.0  0.020405240688987223  0.4784179571930949  0.4276789920482002  1.0000
  H   H6        1.0  0.9795910972804337  0.5215803558114587  0.5723187708202672  1.0000
  H   H7        1.0  0.9762744150177625  0.7946715665081072  0.3349662633960833  1.0000
  H   H8        1.0  0.023726250865081514  0.20532907966212832  0.6650369787158396  1.0000
  H   H9        1.0  0.026530539958756108  0.0649145023140818  0.32534629338240956  1.0000
  H   H10       1.0  0.9734690541349736  0.9350861438561537  0.6746561840787492  1.0000
  H   H11       1.0  0.2503599398946577  0.2888412456637184  0.4394323395986602  1.0000
  H   H12       1.0  0.7496369543478069  0.7111582339236762  0.5605706975294139  1.0000
  H   H13       1.0  0.37118857764129837  0.9866339399519859  0.5705606805434655  1.0000
  H   H14       1.0  0.6288083573581459  0.013367872801097701  0.42944330457942936  1.0000
  H   H15       1.0  0.8776053212652215  0.3086031590288059  0.2819024489616382  1.0000
  H   H16       1.0  0.12239590089066614  0.6913986537242708  0.71809354992223  1.0000
  H   H17       1.0  0.7624343169280294  0.0489299841955173  0.18132231920996128  1.0000
  H   H18       1.0  0.23756364910354924  0.9510694953918771  0.8186733830180302  1.0000
  H   H19       1.0  0.9365157167810879  0.9598013679737961  0.08490744680087658  1.0000
  H   H20       1.0  0.0634848675878033  0.0401946118650685  0.9150916903529875  1.0000
  H   H21       1.0  0.2309393360677419  0.1364773602519946  0.0935531827399174  1.0000
  H   H22       1.0  0.7690607327850785  0.8635197861697108  0.9064460460859818  1.0000
  H   H23       1.0  0.3507501809599347  0.3994367989547953  0.19520200539996319  1.0000
  H   H24       1.0  0.6492505256798893  0.6005661803811293  0.8047933488331295  1.0000
  H   H25       1.0  0.48695294963000185  0.8578735252082624  0.2760686918687724  1.0000
  H   H26       1.0  0.5130460881906913  0.1421259543791322  0.7239299839783868  1.0000
  H   H27       1.0  0.5159277480332065  0.025896972537879  0.1463345377921783  1.0000
  H   H28       1.0  0.4840745051548154  0.9741025070495155  0.8536649593616374  1.0000
  H   H29       1.0  0.2888121056739551  0.9501677268540264  0.014885765264317305  1.0000
  H   H30       1.0  0.7111896727549833  0.049835252481898414  0.9851132989107468  1.0000
  H   H31       1.0  0.028244364980388112  0.7137807121553621  0.01779908311106479  1.0000
  H   H32       1.0  0.9717547543542581  0.2862234337634035  0.9822007524029317  1.0000
  H   H33       1.0  0.9971282590230788  0.548884227258327  0.1480116649071093  1.0000
  H   H34       1.0  0.0028703447954966954  0.4511210852432868  0.8519904712473334  1.0000
  H   H35       1.0  0.3105708895659589  0.3010192039646711  0.6802276513887335  1.0000
  H   H36       1.0  0.6894297763168922  0.6989814422055645  0.31977190910916414  1.0000
  H   H37       1.0  0.2935515064348806  0.2069972931280191  0.8430017491861719  1.0000
  H   H38       1.0  0.7064480469018761  0.7930010198765345  0.15699683498895914  1.0000
  H   H39       1.0  0.3142830217708266  0.3809954573682859  9.736433061389203e-05  1.0000
  H   H40       1.0  0.685716490808943  0.6190005224705715  0.9999024808181076  1.0000
  H   H41       1.0  0.3500354090522961  0.6482700860083668  0.9930234638405151  1.0000
  H   H42       1.0  0.6499652160735677  0.3517282269961868  0.0069780939537765025  1.0000
  H   H43       1.0  0.3641771647781056  0.7402131462183021  0.8279740349745096  1.0000
  H   H44       1.0  0.6358234603477655  0.2597851667862443  0.17202752281978206  1.0000
  C   C1        1.0  0.07054731001370132  0.5856992486264261  0.39444273142681396  1.0000
  C   C2        1.0  0.9294533558691427  0.4143013975438095  0.60555609274828  1.0000
  C   C3        1.0  0.16718007587461156  0.8666298960298846  0.4563971269806828  1.0000
  C   C4        1.0  0.8328216617973466  0.1333707501403509  0.5436039344907755  1.0000
  C   C5        1.0  0.07217239021998273  0.8920917331672271  0.3849059882315231  1.0000
  C   C6        1.0  0.9278266476007034  0.1079077464201674  0.6150956329068507  1.0000
  C   C7        1.0  0.1002640505785308  0.0433047217252422  0.3791130801728144  1.0000
  C   C8        1.0  0.8997355435151989  0.9566959244449933  0.6208893972883516  1.0000
  C   C9        1.0  0.223823452091402  0.1684277311636322  0.44199304539932166  1.0000
  C   C10       1.0  0.7761750702132133  0.8315729150066034  0.5580108763794982  1.0000
  C   C11       1.0  0.29134497314429814  0.0003989713324017  0.5161621550079616  1.0000
  C   C12       1.0  0.7086546209494387  0.9996016748378339  0.483841058776001  1.0000
  C   C13       1.0  0.12330635499178301  0.3751403780778873  0.24363104831061116  1.0000
  C   C14       1.0  0.876695938953219  0.6248614346751893  0.7563649789012103  1.0000
  C   C15       1.0  0.9574097300229668  0.2751373970037534  0.23986816298976518  1.0000
  C   C16       1.0  0.04259204840597161  0.7248655823321712  0.7601264832484773  1.0000
  C   C17       1.0  0.8911724640615688  0.1265252420160081  0.18232742302961205  1.0000
  C   C18       1.0  0.10882927361038955  0.8734754041542274  0.8176699568278281  1.0000
  C   C19       1.0  0.9880032703052777  0.0765523327586024  0.12847342975294399  1.0000
  C   C20       1.0  0.012000054671858601  0.9234471468287921  0.8715246230832248  1.0000
  C   C21       1.0  0.15340871504276526  0.17589386136059915  0.1329065790075106  1.0000
  C   C22       1.0  0.8465935789022369  0.8241079513924847  0.8670909208499109  1.0000
  C   C23       1.0  0.22090801532657883  0.3237699025742344  0.1903479634929042  1.0000
  C   C24       1.0  0.7790932068293159  0.6762319101788421  0.8096472990681534  1.0000
  C   C25       1.0  0.24102620708015374  0.6928020528847298  0.2205796000749771  1.0000
  C   C26       1.0  0.7589777149270065  0.3072009264511877  0.7794217297244044  1.0000
  C   C27       1.0  0.38661838983567526  0.8274665433982733  0.219495576058172  1.0000
  C   C28       1.0  0.6133822760471688  0.17253410277196227  0.7805039844397256  1.0000
  C   C29       1.0  0.4029245528195702  0.920694011318659  0.14632829127774727  1.0000
  C   C30       1.0  0.5970739694850524  0.0793066348515765  0.8536712125642437  1.0000
  C   C31       1.0  0.2748144652738703  0.8793899791696378  0.07343692576531423  1.0000
  C   C32       1.0  0.7251846133037958  0.12061183358343898  0.9265619617538619  1.0000
  C   C33       1.0  0.12847328388696877  0.7460857242513583  0.0746732637425325  1.0000
  C   C34       1.0  0.8715269072367846  0.2539184216674144  0.9253273364222209  1.0000
  C   C35       1.0  0.11140463938534848  0.6532012316868929  0.1479735827532807  1.0000
  C   C36       1.0  0.8885955109814319  0.3468005810661907  0.8520253330938418  1.0000
  C   C37       1.0  0.3567536882317697  0.5893249881033285  0.6456936860369922  1.0000
  C   C38       1.0  0.6432464213780308  0.4106744914840661  0.35430796342932774  1.0000
  C   C39       1.0  0.34098297526068694  0.5283757008735395  0.7439798933125344  1.0000
  C   C40       1.0  0.6590171343491136  0.4716237787138553  0.2560210198309818  1.0000
  C   C41       1.0  0.319530288097539  0.3772098960418618  0.7488627740569456  1.0000
  C   C42       1.0  0.680468749723147  0.6227895835455328  0.2511366381130102  1.0000
  C   C43       1.0  0.3093866773871811  0.3244021904752899  0.8404904246506462  1.0000
  C   C44       1.0  0.6906106916143671  0.6755937893635675  0.1595078911965615  1.0000
  C   C45       1.0  0.32086823020147653  0.4216205383025269  0.9284519501147414  1.0000
  C   C46       1.0  0.6791339822295654  0.5783766081191787  0.07154733536706459  1.0000
  C   C47       1.0  0.3412825948452253  0.5720945595081446  0.9244901558128973  1.0000
  C   C48       1.0  0.6587164022184879  0.42790258691356803  0.07551051733065611  1.0000
  C   C49       1.0  0.3496813657921862  0.6240144955309717  0.832712694536255  1.0000
  C   C50       1.0  0.6503198156067215  0.3759849840564158  0.16728898325802527  1.0000
  N   N1        1.0  0.1419418149055574  0.7204943964184167  0.4720014204544113  1.0000
  N   N2        1.0  0.8580593664933573  0.2795050831689778  0.5279995210170654  1.0000
  N   N3        1.0  0.3188176202459587  0.1461494986055953  0.5085882072462127  1.0000
  N   N4        1.0  0.68118034578562  0.8538499809817993  0.4914155945326185  1.0000
  O   O1        1.0  0.3978515634397298  0.5199389737509679  0.5742671381955873  1.0000
  O   O2        1.0  0.6021458463187984  0.48005933925358596  0.4257328619692443  1.0000
  O   O3        1.0  0.32741044264527386  0.7029664891981968  0.6397326707707478  1.0000
  O   O4        1.0  0.6725896669645267  0.2970329903891979  0.3602682423727686  1.0000
