data_image0
_chemical_formula_structural       AlH12C27S3N7O15
_chemical_formula_sum              "Al1 H12 C27 S3 N7 O15"
_cell_length_a       4.277131480837978
_cell_length_b       17.949754557338938
_cell_length_c       17.993278900466315
_cell_angle_alpha    119.99960792453008
_cell_angle_beta     91.78787962502253
_cell_angle_gamma    90.95075493432041

_space_group_name_H-M_alt    "P 1"
_space_group_IT_number       1

loop_
  _space_group_symop_operation_xyz
  'x, y, z'

loop_
  _atom_site_type_symbol
  _atom_site_label
  _atom_site_symmetry_multiplicity
  _atom_site_fract_x
  _atom_site_fract_y
  _atom_site_fract_z
  _atom_site_occupancy
  Al  Al1       1.0  0.0648026531465007  2.859990865289979e-05  0.4993478068480357  1.0000
  H   H1        1.0  0.422132142955398  0.30353461173015717  0.41487552838039227  1.0000
  H   H2        1.0  0.45499825110292846  0.08012048872377871  0.8841643230454752  1.0000
  H   H3        1.0  0.3923230542157227  0.6124836385783398  0.19249571818161126  1.0000
  H   H4        1.0  0.5345561194060054  0.32661055689754914  0.8987533901911394  1.0000
  H   H5        1.0  0.5200164521691804  0.006319056360318601  0.7254699655694596  1.0000
  H   H6        1.0  0.4615143173474862  0.7728548410926523  0.27931624146237527  1.0000
  H   H7        1.0  0.476549030223218  0.5979768061320527  0.42398923777930975  1.0000
  H   H8        1.0  0.48563314219570947  0.07109206308604141  0.17099035725500766  1.0000
  H   H9        1.0  0.4911782887325344  0.21932281873930748  0.4903663741810719  1.0000
  H   H10       1.0  0.04721722680481829  0.9165243034821273  0.25002068339147604  1.0000
  H   H11       1.0  0.06770926029868457  0.8321186814627239  0.5815201294379123  1.0000
  H   H12       1.0  0.1017854820654449  0.25140313814915066  0.6680449268898772  1.0000
  C   C1        1.0  0.5562616347743871  0.0504905585449009  0.4217650840016987  1.0000
  C   C2        1.0  0.5828737709751052  0.0773262379163171  0.627257803389533  1.0000
  C   C3        1.0  0.5466128088124905  0.8716432007098478  0.4486141126044816  1.0000
  C   C4        1.0  0.44499562214884497  0.2339916222732583  0.3785104953717352  1.0000
  C   C5        1.0  0.44290950363319587  0.19228062711553656  0.2884107433316032  1.0000
  C   C6        1.0  0.48121504911613044  0.11725598698429  0.8517749531416215  1.0000
  C   C7        1.0  0.4814555880610741  0.2075500592093462  0.900548292783327  1.0000
  C   C8        1.0  0.4214721216170786  0.5957567867683266  0.3031008554342023  1.0000
  C   C9        1.0  0.4192418844897788  0.645116506105339  0.26229651129502696  1.0000
  C   C10       1.0  0.5226145205436623  0.2565809498897594  0.8603458560749504  1.0000
  C   C11       1.0  0.5604873259189703  0.21519802862908935  0.7722130035109559  1.0000
  C   C12       1.0  0.5567683534147959  0.12482453796960162  0.7228436459290892  1.0000
  C   C13       1.0  0.5187079728628987  0.0763908606415455  0.763681165545137  1.0000
  C   C14       1.0  0.458910244659407  0.7341942408554019  0.31062629354958926  1.0000
  C   C15       1.0  0.5021400157722055  0.7755174370950473  0.4002536525439313  1.0000
  C   C16       1.0  0.504024641382351  0.7257375517869492  0.44070980680736244  1.0000
  C   C17       1.0  0.46312162268079504  0.636578421435388  0.3927810700678195  1.0000
  C   C18       1.0  0.4775009985320935  0.10301204964702751  0.24068969355194275  1.0000
  C   C19       1.0  0.5134904631184014  0.056402938014827  0.28294579788131113  1.0000
  C   C20       1.0  0.5183021489301608  0.0978049893357138  0.3731676344903151  1.0000
  C   C21       1.0  0.4839928789704119  0.1870872390584211  0.4203717207430061  1.0000
  C   C22       1.0  0.4005553223140055  0.37375619431875146  0.2531779921675366  1.0000
  C   C23       1.0  0.43827795810758363  0.24104256084237363  0.11589032427217924  1.0000
  C   C24       1.0  0.42363914095633953  0.24191404110457884  0.24343716635369364  1.0000
  C   C25       1.0  0.4048749729184422  0.5009232996674912  0.2524362954878826  1.0000
  C   C26       1.0  0.4246160339616266  0.379289218991758  0.12065901684054132  1.0000
  C   C27       1.0  0.4548678277954891  0.2516935676017625  0.9945085509145246  1.0000
  S   S1        1.0  0.5942509710699112  0.945003170155758  0.21670718708778502  1.0000
  S   S2        1.0  0.6106622335480552  0.769791498423686  0.5522935432434579  1.0000
  S   S3        1.0  0.6595100876611398  0.28310014815146917  0.7293170623966888  1.0000
  N   N1        1.0  0.42173410866350036  0.33138675312659427  0.16325637900907713  1.0000
  N   N2        1.0  0.4416113721900388  0.19703313007904916  0.15743296631759315  1.0000
  N   N3        1.0  0.3970270012796107  0.32753892788105793  0.29254131044476855  1.0000
  N   N4        1.0  0.3889657927434201  0.4592350169891547  0.29706436467387237  1.0000
  N   N5        1.0  0.41647078418060357  0.46487805758219036  0.16666292911040173  1.0000
  N   N6        1.0  0.4540157692325479  0.2017763390597693  0.030703230776524006  1.0000
  N   N7        1.0  0.43984746243144457  0.3380149520817213  0.03548575062389154  1.0000
  O   O1        1.0  0.3305817327394537  0.9136264393337046  0.4983553996218151  1.0000
  O   O2        1.0  0.3274158882760148  0.0004987858077072006  0.41419428339156644  1.0000
  O   O3        1.0  0.35464550420343244  0.0850294097078148  0.58455418744704  1.0000
  O   O4        1.0  0.7901916437487914  0.9015967162412012  0.4327184771162112  1.0000
  O   O5        1.0  0.8210488200984755  0.03200607860461701  0.5981925687543566  1.0000
  O   O6        1.0  0.8072939725258051  0.0670471409993425  0.4675897496081803  1.0000
  O   O7        1.0  0.3169893873136687  0.8903672410153762  0.203989622496998  1.0000
  O   O8        1.0  0.7333198613420535  0.9343709274845227  0.14073202483554337  1.0000
  O   O9        1.0  0.8226535756550319  0.9297881243983285  0.27580645077802074  1.0000
  O   O10       1.0  0.34632242119748463  0.8102873024585618  0.6061221233173342  1.0000
  O   O11       1.0  0.7581536910862995  0.7039876940927742  0.5621758258344657  1.0000
  O   O12       1.0  0.8376327557341624  0.8454873712668487  0.5696644135702515  1.0000
  O   O13       1.0  0.3851742144476163  0.29695679593508834  0.6876075321765428  1.0000
  O   O14       1.0  0.8221406081468318  0.3586639033711095  0.7960731095120084  1.0000
  O   O15       1.0  0.8700147329092617  0.22482003176202886  0.6552718626753704  1.0000
