data_image0
_chemical_formula_structural       Fe2H42C62S4N22O4
_chemical_formula_sum              "Fe2 H42 C62 S4 N22 O4"
_cell_length_a       11.986754453759449
_cell_length_b       12.78956526930639
_cell_length_c       13.168
_cell_angle_alpha    83.94329183736754
_cell_angle_beta     65.72258937521786
_cell_angle_gamma    86.8289587986771

_space_group_name_H-M_alt    "P 1"
_space_group_IT_number       1

loop_
  _space_group_symop_operation_xyz
  'x, y, z'

loop_
  _atom_site_type_symbol
  _atom_site_label
  _atom_site_symmetry_multiplicity
  _atom_site_fract_x
  _atom_site_fract_y
  _atom_site_fract_z
  _atom_site_occupancy
  Fe  Fe1       1.0  8.791463421429881e-05  0.9994659990465992  0.9999981268439058  1.0000
  Fe  Fe2       1.0  0.483021901995066  0.5042088729632043  0.5098448801468861  1.0000
  H   H1        1.0  0.24242097387533323  0.8075067016721463  0.19400664260383146  1.0000
  H   H2        1.0  0.7570875603916248  0.1923147251318085  0.8056286189652369  1.0000
  H   H3        1.0  0.9791044122018562  0.783635638774193  0.954303735652424  1.0000
  H   H4        1.0  0.020654483091505  0.21537585309597063  0.04587140240723641  1.0000
  H   H5        1.0  0.14468820919385186  0.0357346438164043  0.1250906789383635  1.0000
  H   H6        1.0  0.8556765617088969  0.9635740863110203  0.8747702794760456  1.0000
  H   H7        1.0  0.9890585911643439  0.0645117106482189  0.3999539558331265  1.0000
  H   H8        1.0  0.0108318268063954  0.9344573186137666  0.600690433705239  1.0000
  H   H9        1.0  0.40964543715707435  0.6692350815832455  0.37444793292948486  1.0000
  H   H10       1.0  0.5991382650523889  0.3285733030551796  0.6343546020574564  1.0000
  H   H11       1.0  0.4846785567283618  0.1694092933976279  0.883255013034109  1.0000
  H   H12       1.0  0.5150163226170931  0.8307935105353366  0.11623420968039266  1.0000
  H   H13       1.0  0.28625729302722647  0.9428507608304815  0.6010832530399952  1.0000
  H   H14       1.0  0.714024277134527  0.0556165805793185  0.3989854415377111  1.0000
  H   H15       1.0  0.227767839819208  0.7569274445742098  0.609634034498427  1.0000
  H   H16       1.0  0.771457914872336  0.24163897625467715  0.39055842920396333  1.0000
  H   H17       1.0  0.3469215507182  0.1093970465271923  0.08471900177232781  1.0000
  H   H18       1.0  0.6532317435927908  0.8906327615946739  0.9148457215906589  1.0000
  H   H19       1.0  0.017093413602587794  0.6467959521944382  0.4925410101650201  1.0000
  H   H20       1.0  0.992940849734367  0.3550463802209905  0.49277451523781224  1.0000
  H   H21       1.0  0.4078291675452377  0.14863328282916652  0.7343730296133444  1.0000
  H   H22       1.0  0.5917654680408404  0.851063901528633  0.2652845069795191  1.0000
  H   H23       1.0  0.06921854693267449  0.9137654469170686  0.28542835637225045  1.0000
  H   H24       1.0  0.9304581608561406  0.08535377416273351  0.7150543209927989  1.0000
  H   H25       1.0  0.0694177942513292  0.6746647910179817  0.7922118676143626  1.0000
  H   H26       1.0  0.9299805301401847  0.32422639012900595  0.20801790269239007  1.0000
  H   H27       1.0  0.5260777499586382  0.5528875351728288  0.7014239317304032  1.0000
  H   H28       1.0  0.4700666028195002  0.4566051438161766  0.2880715281855616  1.0000
  H   H29       1.0  0.42565881050509086  0.9550925734995632  0.2818374866846511  1.0000
  H   H30       1.0  0.5744050676026404  0.044262550959011514  0.717704540751363  1.0000
  H   H31       1.0  0.0276673018568658  0.4924931248287835  0.625366291385838  1.0000
  H   H32       1.0  0.9706129645286836  0.5096031968911278  0.3657637703335581  1.0000
  H   H33       1.0  0.21235801449525127  0.4384940550832469  0.9954040646862551  1.0000
  H   H34       1.0  0.8005757159279056  0.5573067918018283  0.004369463523879348  1.0000
  H   H35       1.0  0.1225935634232442  0.3862406703406265  0.864518610133338  1.0000
  H   H36       1.0  0.8805773794342854  0.6086951974889558  0.14213996632130232  1.0000
  H   H37       1.0  0.21639649974143535  0.7350780736323373  0.36406884369101533  1.0000
  H   H38       1.0  0.8011224017573255  0.2625093481746461  0.6285685563076484  1.0000
  H   H39       1.0  0.34559439547474813  0.1049266774994564  0.3971342025325768  1.0000
  H   H40       1.0  0.6544930524757006  0.8940848143707074  0.6031237694035312  1.0000
  H   H41       1.0  0.41893156128141124  0.524672704727088  0.9097726268888523  1.0000
  H   H42       1.0  0.5913105029339362  0.4778230800475428  0.0798734014084346  1.0000
  C   C1        1.0  0.18968596427648524  0.14437994490990752  0.6934396862726544  1.0000
  C   C2        1.0  0.8085936611019235  0.8546527782643523  0.3075489241230114  1.0000
  C   C3        1.0  0.9258179819035632  0.19423419229041636  0.8829430463956669  1.0000
  C   C4        1.0  0.07323896319066138  0.8048370617690424  0.11808103261062541  1.0000
  C   C5        1.0  0.1602911614634195  0.9606803381980812  0.7708397011863539  1.0000
  C   C6        1.0  0.839948777397474  0.037995384529637  0.22915335347762078  1.0000
  C   C7        1.0  0.14862253670990097  0.20128219890352742  0.5455949218306984  1.0000
  C   C8        1.0  0.84947101489805  0.7978889209196043  0.45557369217650756  1.0000
  C   C9        1.0  0.19854131365373456  0.3160751420478363  0.6360384885231127  1.0000
  C   C10       1.0  0.7941652292678612  0.6835276809584558  0.36825108857544814  1.0000
  C   C11       1.0  0.22209180884422608  0.5009707059172612  0.5662286367905764  1.0000
  C   C12       1.0  0.7745291745770614  0.498739846298669  0.4372660314504914  1.0000
  C   C13       1.0  0.045453875928075094  0.8160621308756149  0.8736406171222769  1.0000
  C   C14       1.0  0.9543791750323861  0.18282826392677987  0.1265191766226295  1.0000
  C   C15       1.0  0.1628159723150873  0.0944580718941452  0.4035212563794275  1.0000
  C   C16       1.0  0.8372761834828778  0.9046045323747551  0.5967206025204206  1.0000
  C   C17       1.0  0.237383466901413  0.0846790904994492  0.8532886378744706  1.0000
  C   C18       1.0  0.7625671955502042  0.914419685620864  0.14661289031837305  1.0000
  C   C19       1.0  0.20522152776396035  0.06374266563341992  0.04029731503764824  1.0000
  C   C20       1.0  0.7950052297886073  0.935614031514348  0.9595192522206234  1.0000
  C   C21       1.0  0.08498728698761938  0.0412571419134551  0.3729239459103439  1.0000
  C   C22       1.0  0.9149409416214239  0.9578125394568034  0.6274916941843359  1.0000
  C   C23       1.0  0.32320379427957135  0.6313898888714322  0.4269130644899164  1.0000
  C   C24       1.0  0.6838731573504475  0.36718989981558553  0.5776610829666569  1.0000
  C   C25       1.0  0.39353979681127527  0.1389934844279423  0.9057538373598888  1.0000
  C   C26       1.0  0.6062699061116348  0.8608829864977212  0.0938579913590161  1.0000
  C   C27       1.0  0.21615940712731424  0.9053429099503063  0.6764809460612611  1.0000
  C   C28       1.0  0.7838793596299921  0.09326204176377222  0.3235703529986225  1.0000
  C   C29       1.0  0.18356562992776299  0.8015666545946658  0.6822568984433915  1.0000
  C   C30       1.0  0.816096764762406  0.19711299985603156  0.3179071063319087  1.0000
  C   C31       1.0  0.318397831213744  0.10539848425700173  0.01659723737196832  1.0000
  C   C32       1.0  0.681666861125457  0.8943812662833681  0.983061206404308  1.0000
  C   C33       1.0  0.2540664668982017  0.9261881188432071  0.27305965950622385  1.0000
  C   C34       1.0  0.745839105755749  0.0733447194940453  0.7266593406430744  1.0000
  C   C35       1.0  0.1042784590955534  0.6189318314384736  0.4934088392450207  1.0000
  C   C36       1.0  0.9030261341368797  0.3818135502656688  0.4977377339751926  1.0000
  C   C37       1.0  0.35243670041950276  0.1275372300101694  0.8229495281025763  1.0000
  C   C38       1.0  0.6473153247814736  0.8720420026582405  0.17675839504413907  1.0000
  C   C39       1.0  0.27886417169282396  0.43942823246318613  0.7185411763893086  1.0000
  C   C40       1.0  0.7156178498849001  0.5611889750718221  0.2837618296855239  1.0000
  C   C41       1.0  0.1306734816881985  0.9564034099409398  0.307997943881638  1.0000
  C   C42       1.0  0.8691329412012719  0.0427913002200739  0.6922446697406527  1.0000
  C   C43       1.0  0.09669034197546719  0.756186707964865  0.7830775165279178  1.0000
  C   C44       1.0  0.9029249670850277  0.24263920658066956  0.21712633370882634  1.0000
  C   C45       1.0  0.4378714983294429  0.5143936081693923  0.7422640758023035  1.0000
  C   C46       1.0  0.560576747540388  0.49155187034748593  0.2508000561425163  1.0000
  C   C47       1.0  0.3305291575689751  0.9797224589325639  0.3064722997837777  1.0000
  C   C48       1.0  0.6694891184228239  0.019562680856978404  0.6933248300032419  1.0000
  C   C49       1.0  0.10922749142084599  0.5342692541755412  0.5668966924224179  1.0000
  C   C50       1.0  0.8915847991768756  0.46683155528594983  0.4274680702680912  1.0000
  C   C51       1.0  0.2625189763300781  0.4506509425359725  0.9049370807694928  1.0000
  C   C52       1.0  0.7448637739539664  0.547442885190769  0.09417903839741361  1.0000
  C   C53       1.0  0.21240902604733236  0.4217284019539136  0.8338801586835061  1.0000
  C   C54       1.0  0.7897834787749288  0.5759014824612478  0.16924459902125494  1.0000
  C   C55       1.0  0.5109401290959282  0.7415685619269541  0.5067380710728102  1.0000
  C   C56       1.0  0.4785059016578401  0.2654793717133828  0.5006895877335822  1.0000
  C   C57       1.0  0.21401558506997279  0.667926604175655  0.42258968888205567  1.0000
  C   C58       1.0  0.796969475645241  0.33051714689626277  0.573427562923179  1.0000
  C   C59       1.0  0.285338350139746  0.0640807938096586  0.37120822328815  1.0000
  C   C60       1.0  0.7147506985774896  0.9350054007971167  0.6289571986976342  1.0000
  C   C61       1.0  0.377146883092692  0.4983907092980858  0.8576461647903101  1.0000
  C   C62       1.0  0.6285095879718057  0.5034807178673902  0.1357819297547636  1.0000
  S   S1        1.0  0.8788949388773727  0.29990553812219645  0.8305475965539274  1.0000
  S   S2        1.0  0.11886476240132987  0.6991932379981167  0.1717261949832363  1.0000
  S   S3        1.0  0.5141565609919639  0.8686221900106406  0.4876777770989663  1.0000
  S   S4        1.0  0.4876463697487381  0.1383046465619273  0.5123951958780637  1.0000
  N   N1        1.0  0.196670491760166  0.0645470961550316  0.7700328479306435  1.0000
  N   N2        1.0  0.803370392635088  0.9342182698566148  0.22991692397285138  1.0000
  N   N3        1.0  0.9606521453288719  0.11610377958568562  0.9180992465996313  1.0000
  N   N4        1.0  0.039361677827400895  0.8829344480007464  0.08200659704313303  1.0000
  N   N5        1.0  0.07451414074618158  0.9181642585865719  0.8682871877906849  1.0000
  N   N6        1.0  0.9256089412528823  0.0806718784387073  0.13174987097375643  1.0000
  N   N7        1.0  0.22726744738569235  0.4173468898655203  0.643894909011877  1.0000
  N   N8        1.0  0.7617162798826485  0.5831405708111674  0.3629450775539526  1.0000
  N   N9        1.0  0.16482810218046498  0.30212774795023023  0.5528895017174946  1.0000
  N   N10       1.0  0.8293359389412344  0.697441262238435  0.45062337995110374  1.0000
  N   N11       1.0  0.21225717708182398  0.2413700464028707  0.7088402985503137  1.0000
  N   N12       1.0  0.7823145573733398  0.7581108931910521  0.2943148648914047  1.0000
  N   N13       1.0  0.1630202964568568  0.0549678462876955  0.9605263873686809  1.0000
  N   N14       1.0  0.8371306362612356  0.944081390123074  0.039406264546095  1.0000
  N   N15       1.0  0.1571340121287932  0.1188544129821665  0.6131074590595773  1.0000
  N   N16       1.0  0.8431625218592342  0.880010032448567  0.3866962275657287  1.0000
  N   N17       1.0  0.5108293848961267  0.648107574980415  0.5183911576183391  1.0000
  N   N18       1.0  0.4703893572658585  0.3586847966662533  0.49366456585062934  1.0000
  N   N19       1.0  0.3293251859666668  0.5475631959139449  0.49746001043779126  1.0000
  N   N20       1.0  0.6724505443324134  0.45140426065884753  0.5116898865892523  1.0000
  N   N21       1.0  0.3913854265991361  0.48351778761109904  0.6718493091925595  1.0000
  N   N22       1.0  0.6023385372906063  0.5219550978036339  0.3237194524517903  1.0000
  O   O1        1.0  0.1181853002691042  0.18533041243095744  0.46005449290246503  1.0000
  O   O2        1.0  0.8818602633197441  0.8139059739936343  0.5399834711978998  1.0000
  O   O3        1.0  0.30518136692131037  0.8455201721274861  0.20690329102417593  1.0000
  O   O4        1.0  0.6946599331288681  0.1544443693929196  0.7920945817678415  1.0000
