data_image0
_chemical_formula_structural       Zn4H25C82N4ClO16F20
_chemical_formula_sum              "Zn4 H25 C82 N4 Cl1 O16 F20"
_cell_length_a       16.52809716022911
_cell_length_b       17.941340935779568
_cell_length_c       29.058551243551083
_cell_angle_alpha    90.27967953777579
_cell_angle_beta     89.99718750560197
_cell_angle_gamma    89.9440611302871

_space_group_name_H-M_alt    "P 1"
_space_group_IT_number       1

loop_
  _space_group_symop_operation_xyz
  'x, y, z'

loop_
  _atom_site_type_symbol
  _atom_site_label
  _atom_site_symmetry_multiplicity
  _atom_site_fract_x
  _atom_site_fract_y
  _atom_site_fract_z
  _atom_site_occupancy
  Zn  Zn1       1.0  0.5833990903886247  0.49975694597251413  0.5023568532163694  1.0000
  Zn  Zn2       1.0  0.4159001442477788  0.5000512181868116  0.49949934482052766  1.0000
  Zn  Zn3       1.0  0.4158960407087946  0.5018905320712648  0.8843340778798064  1.0000
  Zn  Zn4       1.0  0.5833766499141931  0.5017542218312698  0.8837727433049024  1.0000
  H   H1        1.0  0.28677394935449746  0.5814166302276715  0.5516315303682973  1.0000
  H   H2        1.0  0.2870436315470144  0.4178478517679096  0.4491288097189425  1.0000
  H   H3        1.0  0.7132471976309915  0.5820205452368796  0.5518029068287832  1.0000
  H   H4        1.0  0.712418357049394  0.4181398936728441  0.4495725770891282  1.0000
  H   H5        1.0  0.6305031401081678  0.7378056308592137  0.5004661582657448  1.0000
  H   H6        1.0  0.36920419549092287  0.7390055184010079  0.5000557313690095  1.0000
  H   H7        1.0  0.6305048218718311  0.2618408712823381  0.5002122291498097  1.0000
  H   H8        1.0  0.3691987461761456  0.2610871847414487  0.49988467851719776  1.0000
  H   H9        1.0  0.3690379915614486  0.5007967106111765  0.7366889858206703  1.0000
  H   H10       1.0  0.6879709169590953  0.5505441673194369  0.7342425363100202  1.0000
  H   H11       1.0  0.6875414184900066  0.4510762234304978  0.7342905867206324  1.0000
  H   H12       1.0  0.68382887598797  0.45081407808811513  0.6473415860008129  1.0000
  H   H13       1.0  0.6843905714698905  0.5502208771789513  0.647727225480871  1.0000
  H   H14       1.0  0.3691709071963629  0.5021120734413386  0.031153571426280294  1.0000
  H   H15       1.0  0.6305320809830873  0.5022378987265766  0.030900463534472098  1.0000
  H   H16       1.0  0.3702869543984662  0.500324229882473  0.3538849582551578  1.0000
  H   H17       1.0  0.6315811355284495  0.5005811095336058  0.3537774925224326  1.0000
  H   H18       1.0  0.712983895087106  0.5838306886161106  0.8336486997802977  1.0000
  H   H19       1.0  0.7123263446700818  0.42058608645340456  0.935286183025127  1.0000
  H   H20       1.0  0.28661427158892394  0.5836589801920767  0.834071428361085  1.0000
  H   H21       1.0  0.28690908356919204  0.4203362151697476  0.9356949815027349  1.0000
  H   H22       1.0  0.3694640736829911  0.7405456318077696  0.883920702173377  1.0000
  H   H23       1.0  0.6307650832775378  0.740376200650992  0.8840119575683827  1.0000
  H   H24       1.0  0.3694411951040237  0.263546754832511  0.8845461975362525  1.0000
  H   H25       1.0  0.630765333282362  0.2632101039646031  0.8846297340055286  1.0000
  C   C1        1.0  0.49902389304212136  0.6462669709542651  0.5010719384666871  1.0000
  C   C2        1.0  0.49991768590286506  0.500923523609856  0.5909921565724119  1.0000
  C   C3        1.0  0.4990845170039719  0.35361395917716  0.49982822113155817  1.0000
  C   C4        1.0  0.5004448666069621  0.49942617888250146  0.4106408514958772  1.0000
  C   C5        1.0  0.5001072201918787  0.6482679224767055  0.8836082926923863  1.0000
  C   C6        1.0  0.49856759395952827  0.5014930953984448  0.7940403735925371  1.0000
  C   C7        1.0  0.5001559633141924  0.35549670592257593  0.8848925913417318  1.0000
  C   C8        1.0  0.49962097898450253  0.5017293758035705  0.9742283915745914  1.0000
  C   C9        1.0  0.251273206930513  0.545765039824623  0.5288739625014287  1.0000
  C   C10       1.0  0.16738393138803792  0.5466607111880891  0.5293174540124355  1.0000
  C   C11       1.0  0.12172094202161789  0.4999610283805681  0.5001029166433781  1.0000
  C   C12       1.0  0.16748806579655445  0.4531240645386631  0.4709713372003321  1.0000
  C   C13       1.0  0.2513529350057269  0.45398234094243134  0.47154874386858125  1.0000
  C   C14       1.0  0.03673028409075129  0.500023906735791  0.5000430162873002  1.0000
  C   C15       1.0  0.9630933184220536  0.5000470526691388  0.499983484826238  1.0000
  C   C16       1.0  0.8781102496092928  0.5001585027285174  0.5001140235028174  1.0000
  C   C17       1.0  0.8325563958152671  0.546955921935961  0.529379905070563  1.0000
  C   C18       1.0  0.748685709025537  0.5460041697522584  0.5291866322707861  1.0000
  C   C19       1.0  0.7481672910485457  0.45419539651469176  0.471966351506147  1.0000
  C   C20       1.0  0.8320653181710825  0.45341715279585065  0.4711033467847797  1.0000
  C   C21       1.0  0.4997701699908817  0.7298566653112812  0.5006022640813228  1.0000
  C   C22       1.0  0.573555924908021  0.7682737705576912  0.5004940183964875  1.0000
  C   C23       1.0  0.5726162522237601  0.8453112223439802  0.5002001785452278  1.0000
  C   C24       1.0  0.5005139348066265  0.8876673497917764  0.5000551615523605  1.0000
  C   C25       1.0  0.42801715842096405  0.8460188986846049  0.50002841983882  1.0000
  C   C26       1.0  0.4263695377025556  0.7690118488329745  0.5002435312394979  1.0000
  C   C27       1.0  0.500790831429164  0.9659644034850741  0.4999637056222709  1.0000
  C   C28       1.0  0.5007957668542176  0.033915651499370404  0.49994132628651755  1.0000
  C   C29       1.0  0.5005239950964366  0.11221558456821874  0.49989945263396146  1.0000
  C   C30       1.0  0.5726233902263971  0.1544420985024431  0.4999497860213324  1.0000
  C   C31       1.0  0.5735653852438389  0.23147665362098016  0.49997473652752683  1.0000
  C   C32       1.0  0.49977790732808797  0.2700216500213344  0.49983166762790177  1.0000
  C   C33       1.0  0.4263802472457315  0.23099744806941663  0.49979511017557593  1.0000
  C   C34       1.0  0.42803036044696097  0.15399325109658693  0.49986420004425713  1.0000
  C   C35       1.0  0.4987321927529678  0.5012277008823105  0.7426618268410434  1.0000
  C   C36       1.0  0.4955913293469791  0.5011309777963787  0.6424706815320816  1.0000
  C   C37       1.0  0.5691590331929959  0.5011566670612312  0.7164024127251878  1.0000
  C   C38       1.0  0.423851518940225  0.5011083487851808  0.6695858678604905  1.0000
  C   C39       1.0  0.5668881670275212  0.5010830881502242  0.6684002485665488  1.0000
  C   C40       1.0  0.4258668381851649  0.5010950753717438  0.7177421250372615  1.0000
  C   C41       1.0  0.6606779286538541  0.500776635532425  0.7184540928851035  1.0000
  C   C42       1.0  0.658416382165548  0.5006184051117514  0.6640511514214821  1.0000
  C   C43       1.0  0.49984739335638995  0.5017104166445278  0.0257831732762952  1.0000
  C   C44       1.0  0.4262809167428472  0.5016883703504575  0.049770024405148695  1.0000
  C   C45       1.0  0.4277035296420522  0.5014313381228632  0.09730929234349617  1.0000
  C   C46       1.0  0.5001038397759388  0.5012611923847528  0.12312903457947039  1.0000
  C   C47       1.0  0.5723630158871629  0.5015044088152082  0.09717042049593518  1.0000
  C   C48       1.0  0.5735383919869363  0.5017616573337237  0.04962461625404299  1.0000
  C   C49       1.0  0.5002755608869619  0.5010018653193811  0.1714441112006782  1.0000
  C   C50       1.0  0.5005708157609591  0.5008590954984129  0.2133823097359624  1.0000
  C   C51       1.0  0.5007340209803388  0.5006744631158924  0.2617089613738486  1.0000
  C   C52       1.0  0.4284492376834024  0.500558872387181  0.2876270044998036  1.0000
  C   C53       1.0  0.4272702767018118  0.5002129935219344  0.33515466346717193  1.0000
  C   C54       1.0  0.5009301907828673  0.499980000946053  0.3590562280609362  1.0000
  C   C55       1.0  0.5745170477816545  0.500336496217109  0.33512778734310433  1.0000
  C   C56       1.0  0.5730973869154425  0.5006303064427939  0.2875683184769997  1.0000
  C   C57       1.0  0.7484488872759983  0.5480157138352979  0.8561477865079465  1.0000
  C   C58       1.0  0.8323278365518477  0.5491116782775407  0.8559932024625637  1.0000
  C   C59       1.0  0.8779190169315427  0.5026651165575088  0.8851703400528379  1.0000
  C   C60       1.0  0.8319582752169056  0.456042500511458  0.9140176517393073  1.0000
  C   C61       1.0  0.7480654010303597  0.4566081793633287  0.9130881463648777  1.0000
  C   C62       1.0  0.9629050307795238  0.5026780997005035  0.8853657040725338  1.0000
  C   C63       1.0  0.0365292176659651  0.5025824661188236  0.8853541458909291  1.0000
  C   C64       1.0  0.1215201985386827  0.5024559729549409  0.8852404216006915  1.0000
  C   C65       1.0  0.16717749361752252  0.5489525655130691  0.856167888358911  1.0000
  C   C66       1.0  0.2510497333825725  0.5478749703619528  0.856517804204465  1.0000
  C   C67       1.0  0.25124287054861577  0.4563742665604024  0.9134296420699073  1.0000
  C   C68       1.0  0.1673573412872642  0.4557294583400731  0.9141416358813288  1.0000
  C   C69       1.0  0.5001115887292756  0.7318830320866566  0.8836963330253268  1.0000
  C   C70       1.0  0.4265081497294219  0.7707262844525289  0.8837480838439404  1.0000
  C   C71       1.0  0.4277653842577606  0.8477429628954382  0.8837741513164161  1.0000
  C   C72       1.0  0.500065864942634  0.8896729135549748  0.8837963194872741  1.0000
  C   C73       1.0  0.5723866521726109  0.8476472287370244  0.8838137725711093  1.0000
  C   C74       1.0  0.5736989838791615  0.7706268708331264  0.8837863384883917  1.0000
  C   C75       1.0  0.5000413073667929  0.9679528231910481  0.8839297329914046  1.0000
  C   C76       1.0  0.5000092360876353  0.0358919207265913  0.8841595929877426  1.0000
  C   C77       1.0  0.5000357172194826  0.1141735429990689  0.8844041325642775  1.0000
  C   C78       1.0  0.4277429206135396  0.1562332654427152  0.8844838035253345  1.0000
  C   C79       1.0  0.4264925606163459  0.23325311380175145  0.884642998089923  1.0000
  C   C80       1.0  0.5001133533796036  0.2719311907834196  0.8847641100372597  1.0000
  C   C81       1.0  0.573690144931824  0.23305950433589834  0.8846857975295137  1.0000
  C   C82       1.0  0.5723655121271352  0.15604278270951968  0.8845372631808743  1.0000
  N   N1        1.0  0.2912865026887275  0.49989161066880405  0.5001983755306867  1.0000
  N   N2        1.0  0.7083419335298231  0.4999913923691253  0.5007992062346815  1.0000
  N   N3        1.0  0.7082111014235012  0.5021350845077848  0.8843987653337351  1.0000
  N   N4        1.0  0.2911620388208149  0.5020151369918365  0.8848774181485267  1.0000
  Cl  Cl1       1.0  0.32722430216131926  0.5008433402704284  0.6458987099425357  1.0000
  O   O1        1.0  0.5674874023088776  0.6134943111078712  0.502512755896106  1.0000
  O   O2        1.0  0.43014235643809673  0.6146960999720859  0.4999620561087922  1.0000
  O   O3        1.0  0.4339860772554757  0.500633852148205  0.5685179900999486  1.0000
  O   O4        1.0  0.5707189416424326  0.5009207581772583  0.5733621686032178  1.0000
  O   O5        1.0  0.4302673528624794  0.3853566203299009  0.4983637085461651  1.0000
  O   O6        1.0  0.5675871516345339  0.38622010205582313  0.5013422212432559  1.0000
  O   O7        1.0  0.5685246912412794  0.49902469102126895  0.4311221927716815  1.0000
  O   O8        1.0  0.43115085416555127  0.49945785944380117  0.4298856290488685  1.0000
  O   O9        1.0  0.4314370364554349  0.616119049237362  0.8838741867230766  1.0000
  O   O10       1.0  0.5688215700873086  0.6159994743450881  0.8833045951758363  1.0000
  O   O11       1.0  0.5676074889527811  0.5013436068799351  0.8136545830082582  1.0000
  O   O12       1.0  0.43012642659363814  0.5018639571409906  0.8142429320257347  1.0000
  O   O13       1.0  0.5688941820201237  0.38759880011071596  0.884743524123756  1.0000
  O   O14       1.0  0.43147951985523036  0.3877667759808787  0.8850895871695456  1.0000
  O   O15       1.0  0.4307788566475494  0.5017361058942955  0.9545107484495502  1.0000
  O   O16       1.0  0.5681564401711655  0.5017576436398059  0.9541652503382778  1.0000
  F   F1        1.0  0.1284686681478107  0.4066555082503456  0.44204523182675354  1.0000
  F   F2        1.0  0.12818868896508917  0.593058083940889  0.5582634498602843  1.0000
  F   F3        1.0  0.8708900715802272  0.40698075858668403  0.4420318762682882  1.0000
  F   F4        1.0  0.871818815365657  0.5934489326282774  0.5582150682582139  1.0000
  F   F5        1.0  0.35720106460711776  0.8842853383731608  0.4997955248523809  1.0000
  F   F6        1.0  0.6437968603537882  0.8828925906746362  0.5000706255621451  1.0000
  F   F7        1.0  0.35722768499272206  0.11583603344887189  0.4999264756426668  1.0000
  F   F8        1.0  0.6437980799326225  0.11671899147486903  0.5000311979937706  1.0000
  F   F9        1.0  0.6433795402621811  0.5014911465042714  0.12055127858506857  1.0000
  F   F10       1.0  0.3568170640237014  0.5013479858666088  0.12081825938113158  1.0000
  F   F11       1.0  0.6440012621475475  0.5009003854645327  0.2640767348901605  1.0000
  F   F12       1.0  0.3574415718005284  0.5007906219259154  0.2642371278435647  1.0000
  F   F13       1.0  0.8708201723368417  0.40995233322327346  0.9429848310172628  1.0000
  F   F14       1.0  0.8715558065948485  0.5954219961898984  0.8273146390914263  1.0000
  F   F15       1.0  0.12836124033111668  0.40953175367800293  0.9429452872260028  1.0000
  F   F16       1.0  0.1280315195850079  0.5952881269089261  0.8274617613465978  1.0000
  F   F17       1.0  0.6433743941605741  0.8855414031203991  0.8839006664358421  1.0000
  F   F18       1.0  0.3567625472564586  0.8857241697808931  0.8838251645462873  1.0000
  F   F19       1.0  0.6433429707139098  0.11802757946995258  0.8844872022016546  1.0000
  F   F20       1.0  0.35674420065375056  0.11840206972096473  0.8843816105236896  1.0000
