data_image0
_chemical_formula_structural       Zn2H24C44S2N2O14
_chemical_formula_sum              "Zn2 H24 C44 S2 N2 O14"
_cell_length_a       13.333684266657157
_cell_length_b       16.558530520636825
_cell_length_c       17.71391942506388
_cell_angle_alpha    87.01094534748128
_cell_angle_beta     87.07501133776752
_cell_angle_gamma    68.03234515448487

_space_group_name_H-M_alt    "P 1"
_space_group_IT_number       1

loop_
  _space_group_symop_operation_xyz
  'x, y, z'

loop_
  _atom_site_type_symbol
  _atom_site_label
  _atom_site_symmetry_multiplicity
  _atom_site_fract_x
  _atom_site_fract_y
  _atom_site_fract_z
  _atom_site_occupancy
  Zn  Zn1       1.0  0.49987276863397756  0.5855772628832838  0.492133338180473  1.0000
  Zn  Zn2       1.0  0.5198284841080463  0.40995416699820453  0.5076169426713051  1.0000
  H   H1        1.0  0.8669208626201975  0.295737776529741  0.42960218258922117  1.0000
  H   H2        1.0  0.36952333985224317  0.6229662862493798  0.27851590849030583  1.0000
  H   H3        1.0  0.5535085893366584  0.3794262078818562  0.1072957361519826  1.0000
  H   H4        1.0  0.3986066938771555  0.657054804781687  0.8741968198064785  1.0000
  H   H5        1.0  0.43181170195180113  0.65123099143743  0.7339815767861566  1.0000
  H   H6        1.0  0.48271564661210653  0.3795810488770855  0.7431242745014474  1.0000
  H   H7        1.0  0.4481804913454965  0.38405682894465804  0.8834074279688693  1.0000
  H   H8        1.0  0.38934363394088894  0.8788719529533754  0.6039815791451204  1.0000
  H   H9        1.0  0.41421372988363425  0.7236688881628127  0.5846857176690536  1.0000
  H   H10       1.0  0.21180197344546764  0.32338945723184054  0.39306942649982096  1.0000
  H   H11       1.0  0.5807713767677567  0.8688798556099331  0.39749519962029484  1.0000
  H   H12       1.0  0.33800344206703403  0.1916663975892376  0.5820444977589716  1.0000
  H   H13       1.0  0.36393275934745606  0.3346470189357903  0.5803007816012881  1.0000
  H   H14       1.0  0.6387713420380051  0.24208064566936838  0.4410924846005173  1.0000
  H   H15       1.0  0.6251892143922786  0.09532224906653404  0.4356525185618167  1.0000
  H   H16       1.0  0.060773384493145954  0.27169186562760933  0.3975449500994871  1.0000
  H   H17       1.0  0.8156165053443656  0.545973843112293  0.5122653015612643  1.0000
  H   H18       1.0  0.14557518056665927  0.7142110903713219  0.5309334201055833  1.0000
  H   H19       1.0  0.8701198490439946  0.6399497696187525  0.5205754112521674  1.0000
  H   H20       1.0  0.9454138797335215  0.7504963549704301  0.5454987589355937  1.0000
  H   H21       1.0  0.2874136083434137  0.43090845565739505  0.4246059767898274  1.0000
  H   H22       1.0  0.3226981623390085  0.6391769146742379  0.1424189737285957  1.0000
  H   H23       1.0  0.6847618734640618  0.23622464691039372  0.1656546778581429  1.0000
  H   H24       1.0  0.7733724140475569  0.7143580288969748  0.3499924323005104  1.0000
  C   C1        1.0  0.4848837523549462  0.5097049536107293  0.6468115696605353  1.0000
  C   C2        1.0  0.023545839449404513  0.5419256956865227  0.48486834716322136  1.0000
  C   C3        1.0  0.13676175059644882  0.5231288749041031  0.47266683937703396  1.0000
  C   C4        1.0  0.9805002781326233  0.47563448369589884  0.4703342804797331  1.0000
  C   C5        1.0  0.04976669688392818  0.39576128695780727  0.4380984498020767  1.0000
  C   C6        1.0  0.16041813109049483  0.3829682240819069  0.4207422054777156  1.0000
  C   C7        1.0  0.20264021594280726  0.4429844478935081  0.4380685471875694  1.0000
  C   C8        1.0  0.8722351112624976  0.4866728473378147  0.48759448824824864  1.0000
  C   C9        1.0  0.9005459555887253  0.34418551895500127  0.4415437309666217  1.0000
  C   C10       1.0  0.17927901042014577  0.5861676611735761  0.49294935191188943  1.0000
  C   C11       1.0  0.381701362273894  0.5783752254007909  0.16477903065475627  1.0000
  C   C12       1.0  0.2986114985631331  0.5651479696965538  0.49555400851941306  1.0000
  C   C13       1.0  0.40738395370637154  0.5693465745197702  0.24055801419274303  1.0000
  C   C14       1.0  0.48294983477881454  0.49182615155825743  0.27069275794403325  1.0000
  C   C15       1.0  0.5342146791212907  0.42274817714833574  0.22183409999317402  1.0000
  C   C16       1.0  0.5104402631372192  0.4313587083902777  0.145589184590186  1.0000
  C   C17       1.0  0.4337368062232725  0.5094806248189772  0.1158304182443359  1.0000
  C   C18       1.0  0.417009976099173  0.517616812692012  0.03707024019893619  1.0000
  C   C19       1.0  0.41409064282237273  0.520758270795419  0.9681690908577354  1.0000
  C   C20       1.0  0.41595529968455475  0.5965863180663575  0.8451934054640873  1.0000
  C   C21       1.0  0.4347586120326169  0.5932561652754985  0.7673256157333201  1.0000
  C   C22       1.0  0.46021805529098675  0.5148106590687933  0.7303944442924577  1.0000
  C   C23       1.0  0.5009042856065802  0.4867282588324997  0.354063526944188  1.0000
  C   C24       1.0  0.463523037642119  0.4398941208471571  0.7726747097961352  1.0000
  C   C25       1.0  0.444526589849552  0.44248262122173543  0.8504322785721641  1.0000
  C   C26       1.0  0.42232707617589677  0.5206880195447355  0.8881707590854404  1.0000
  C   C27       1.0  0.43550214868258763  0.8451029127170812  0.5549321713946398  1.0000
  C   C28       1.0  0.4486933173849435  0.7591701020153537  0.544415099819986  1.0000
  C   C29       1.0  0.5518140606962303  0.7532976465236987  0.4347624264715293  1.0000
  C   C30       1.0  0.5425914633789687  0.8391815115596517  0.44014322785159987  1.0000
  C   C31       1.0  0.48304734213173345  0.8872315882590913  0.501753880694153  1.0000
  C   C32       1.0  0.47507650012800423  0.9741774955989797  0.5080488446263516  1.0000
  C   C33       1.0  0.47454549250337397  0.0478573815291057  0.5096504197907309  1.0000
  C   C34       1.0  0.7155120827764846  0.4405431870195714  0.49248335382480246  1.0000
  C   C35       1.0  0.4062649063754263  0.19989011065275972  0.5508958608996865  1.0000
  C   C36       1.0  0.42042259746413874  0.2788317086544653  0.5505081187544151  1.0000
  C   C37       1.0  0.5748114083186168  0.22699327889756662  0.4720985535347566  1.0000
  C   C38       1.0  0.5665968486983102  0.14617872925811784  0.4691470327834538  1.0000
  C   C39       1.0  0.4814861262701411  0.13107626959529037  0.5100966696174325  1.0000
  C   C40       1.0  0.00729322572580315  0.33163470891013  0.4236556481886354  1.0000
  C   C41       1.0  0.8323010729343207  0.4225721286498187  0.4743286879882548  1.0000
  C   C42       1.0  0.11038661841597261  0.6672951290048419  0.5171333464629841  1.0000
  C   C43       1.0  0.9986835848918433  0.6869163527400488  0.5256647447103334  1.0000
  C   C44       1.0  0.9565915940411001  0.6246727863273381  0.5112137456325954  1.0000
  S   S1        1.0  0.6364211580123321  0.32386479322270395  0.2561125280603563  1.0000
  S   S2        1.0  0.6239619461613584  0.6951326167072766  0.3521244144857718  1.0000
  N   N1        1.0  0.5058487084379945  0.7130024239118455  0.4852762336944565  1.0000
  N   N2        1.0  0.5038318740237813  0.2914801562864042  0.5128181293071847  1.0000
  O   O1        1.0  0.4691985517510628  0.5811088182434222  0.60938303945035  1.0000
  O   O2        1.0  0.5195217579157896  0.433850945910031  0.6199090147474494  1.0000
  O   O3        1.0  0.33346031862614484  0.6266463632841025  0.48229672154211317  1.0000
  O   O4        1.0  0.35656114995383326  0.4867137519101164  0.5141783845098047  1.0000
  O   O5        1.0  0.5094347640591579  0.5532152471847738  0.3811516408154959  1.0000
  O   O6        1.0  0.5009913732842576  0.41852225147362543  0.3901097145045541  1.0000
  O   O7        1.0  0.6573053423757643  0.5178687875017901  0.5113926538204794  1.0000
  O   O8        1.0  0.6810462067501317  0.3788063246803689  0.48764371193273354  1.0000
  O   O9        1.0  0.7096833418995911  0.34514183801461235  0.3001576368594386  1.0000
  O   O10       1.0  0.5896543145968848  0.26141992442792633  0.2832740860320229  1.0000
  O   O11       1.0  0.7030703188706153  0.28594328659816176  0.17767748435075967  1.0000
  O   O12       1.0  0.6923207881416145  0.6080568200125501  0.37340611809898416  1.0000
  O   O13       1.0  0.5471910662413388  0.716964940569959  0.29356406214065345  1.0000
  O   O14       1.0  0.7020602344812797  0.7487918839872523  0.33006897066757557  1.0000
