data_image0
_chemical_formula_structural       Mn6H16C64N12O32
_chemical_formula_sum              "Mn6 H16 C64 N12 O32"
_cell_length_a       9.408772883408796
_cell_length_b       17.616382153958842
_cell_length_c       18.277050195630714
_cell_angle_alpha    97.12202649231607
_cell_angle_beta     90.01085901023099
_cell_angle_gamma    105.50426232684265

_space_group_name_H-M_alt    "P 1"
_space_group_IT_number       1

loop_
  _space_group_symop_operation_xyz
  'x, y, z'

loop_
  _atom_site_type_symbol
  _atom_site_label
  _atom_site_symmetry_multiplicity
  _atom_site_fract_x
  _atom_site_fract_y
  _atom_site_fract_z
  _atom_site_occupancy
  Mn  Mn1       1.0  0.1663499167987369  0.7127863811663034  0.5326978499132338  1.0000
  Mn  Mn2       1.0  0.45346709931767754  0.28711385942302314  0.9673008538262097  1.0000
  Mn  Mn3       1.0  0.8338276574295092  0.2869744624516599  0.46717998907109154  1.0000
  Mn  Mn4       1.0  0.5468642369746706  0.7131307159619313  0.032697107982656314  1.0000
  Mn  Mn5       1.0  0.9999686542151806  0.4998646984085868  0.4999576656040007  1.0000
  Mn  Mn6       1.0  0.4998650049769039  0.5000985769782105  0.9999909448513052  1.0000
  H   H1        1.0  0.48194569407970544  0.8818095811993347  0.40468164270777157  1.0000
  H   H2        1.0  0.5992844059409349  0.11815350100148692  0.09560436562535561  1.0000
  H   H3        1.0  0.5182700344411302  0.11804664722593118  0.5952469704283561  1.0000
  H   H4        1.0  0.40063064318784575  0.8820364119818864  0.9046575800377284  1.0000
  H   H5        1.0  0.294373074050597  0.5039065585249177  0.4147550940443878  1.0000
  H   H6        1.0  0.7902137486935316  0.4960402320493102  0.08516353355772568  1.0000
  H   H7        1.0  0.7056608453116835  0.49579016397610337  0.5851995293313053  1.0000
  H   H8        1.0  0.20994819863085462  0.5044138576783082  0.9149749678610632  1.0000
  H   H9        1.0  0.7414707470685045  0.4983520660696429  0.340285456063974  1.0000
  H   H10       1.0  0.24388689434869093  0.5017084362006872  0.15966051369817794  1.0000
  H   H11       1.0  0.2579400580776153  0.5016160486956809  0.6597025227752269  1.0000
  H   H12       1.0  0.7556504331683839  0.49831501785145343  0.8403212579281886  1.0000
  H   H13       1.0  0.8080089438498845  0.7471686955364378  0.2221247905902146  1.0000
  H   H14       1.0  0.06073486856005422  0.25296977520052627  0.2778553219109483  1.0000
  H   H15       1.0  0.19250668645964455  0.25285786917803693  0.7778513945668025  1.0000
  H   H16       1.0  0.9393878123110398  0.746868350060474  0.721929860666215  1.0000
  C   C1        1.0  0.4115740254878517  0.9220325098246748  0.5092404541009685  1.0000
  C   C2        1.0  0.4892602696331423  0.07794793645649632  0.9908879299369105  1.0000
  C   C3        1.0  0.5886008164660196  0.0778099675326516  0.4906995694922713  1.0000
  C   C4        1.0  0.5106842150926525  0.9222413253598422  0.009383237063495607  1.0000
  C   C5        1.0  0.4184589884451099  0.989917049607115  0.5668509845191066  1.0000
  C   C6        1.0  0.4285539010244647  0.010105206901762606  0.9332058378577913  1.0000
  C   C7        1.0  0.5817883356083726  0.0099407089493369  0.4331172156799141  1.0000
  C   C8        1.0  0.5712890779523719  0.9900808440868049  0.067100487592171  1.0000
  C   C9        1.0  0.4884995030165414  0.9322471758619388  0.44693895420262925  1.0000
  C   C10       1.0  0.5556918318667811  0.06775644932545082  0.0532826410547926  1.0000
  C   C11       1.0  0.5116827606121603  0.06761013784840492  0.5530051131717997  1.0000
  C   C12       1.0  0.44420389467060784  0.9324309474950568  0.9470003277931341  1.0000
  C   C13       1.0  0.31857808750407207  0.8423344025960947  0.5194350952465356  1.0000
  C   C14       1.0  0.47595352862943935  0.15758278543243165  0.980670288951579  1.0000
  C   C15       1.0  0.6815852246965903  0.15747652121390135  0.4805119258146818  1.0000
  C   C16       1.0  0.5242309183599332  0.8426060432982752  0.01948812284272348  1.0000
  C   C17       1.0  0.4157346636536162  0.5564228525503909  0.5144686795083404  1.0000
  C   C18       1.0  0.8592575439141112  0.4435994644226042  0.9854992669586621  1.0000
  C   C19       1.0  0.5843109096143024  0.44325255129679436  0.4854734304797574  1.0000
  C   C20       1.0  0.14093673121529096  0.5568640014039803  0.014660652438323004  1.0000
  C   C21       1.0  0.5378048875923865  0.5573525143641546  0.5656098346590922  1.0000
  C   C22       1.0  0.9804915647478154  0.44271955892876497  0.9344511322549138  1.0000
  C   C23       1.0  0.4622190142977303  0.4423156813922234  0.4343434103660401  1.0000
  C   C24       1.0  0.019707883793849194  0.5577223678790874  0.06573016884442501  1.0000
  C   C25       1.0  0.3834291595178954  0.5032621797626435  0.4525971850687753  1.0000
  C   C26       1.0  0.8800120770859364  0.49671231690549417  0.04739408656292448  1.0000
  C   C27       1.0  0.6166092456790865  0.4964137641782784  0.5473531992862632  1.0000
  C   C28       1.0  0.12017401559896977  0.5037369171093645  0.9527602231685677  1.0000
  C   C29       1.0  0.3277942015218259  0.6144085650104503  0.5315235092824366  1.0000
  C   C30       1.0  0.7133019161965136  0.3855404396873183  0.9683767916161443  1.0000
  C   C31       1.0  0.6722383004981296  0.38527260505415484  0.4683542109014454  1.0000
  C   C32       1.0  0.28689515688260064  0.6149031023041475  0.03183042707955509  1.0000
  C   C33       1.0  0.7064610936654745  0.6211512887117224  0.21097334467289386  1.0000
  C   C34       1.0  0.08564365699225357  0.3790191691075862  0.2889827602971309  1.0000
  C   C35       1.0  0.2934869933165629  0.3789220394504298  0.7890245290726909  1.0000
  C   C36       1.0  0.9141107008349325  0.620792264946026  0.7108789520315997  1.0000
  C   C37       1.0  0.685467604429128  0.5482297732930163  0.2443073967070859  1.0000
  C   C38       1.0  0.13785471596514756  0.45193622669309264  0.2556467940973164  1.0000
  C   C39       1.0  0.31412804829798097  0.4518380270281457  0.7557122032702921  1.0000
  C   C40       1.0  0.861696636902295  0.5479176807019289  0.7442623494730469  1.0000
  C   C41       1.0  0.7552444945103147  0.5528220168270366  0.3154202256733925  1.0000
  C   C42       1.0  0.20300591803656695  0.4472563818016085  0.18453827422985822  1.0000
  C   C43       1.0  0.24437931370700028  0.447149093582901  0.6845675899530761  1.0000
  C   C44       1.0  0.796613725891106  0.5527128057700992  0.8153792663852855  1.0000
  C   C45       1.0  0.8411077277276673  0.6246077680427077  0.3512362622098948  1.0000
  C   C46       1.0  0.21679364991680936  0.37541181406493257  0.1487619631315553  1.0000
  C   C47       1.0  0.15881942001675503  0.3752898431466178  0.6487232277219093  1.0000
  C   C48       1.0  0.7830382435730598  0.6246141258363452  0.8511161749366635  1.0000
  C   C49       1.0  0.8555261229725417  0.6914565271444532  0.315447089581177  1.0000
  C   C50       1.0  0.1641509250556368  0.30860894329197214  0.18456010875523532  1.0000
  C   C51       1.0  0.14469785589635364  0.30848205062815753  0.6845251952207292  1.0000
  C   C52       1.0  0.8358534814967696  0.6913815523074902  0.8152862483998504  1.0000
  C   C53       1.0  0.7923129476378252  0.6929945905670184  0.2479072781086771  1.0000
  C   C54       1.0  0.09938204237742097  0.3071231473148899  0.2520641432041515  1.0000
  C   C55       1.0  0.20792211003583824  0.30701288058998  0.7520752618354296  1.0000
  C   C56       1.0  0.9005884536357129  0.6927485608930084  0.7477651727843907  1.0000
  C   C57       1.0  0.6376234163883508  0.6178555825570554  0.13730827221032627  1.0000
  C   C58       1.0  0.020070482325252256  0.38231463757594514  0.3626298289335281  1.0000
  C   C59       1.0  0.36235920551795436  0.3822825401917884  0.8626905909680431  1.0000
  C   C60       1.0  0.979745904948132  0.6174295651038977  0.6372415364541482  1.0000
  C   C61       1.0  0.9189421427080475  0.627429901055642  0.4232694858348864  1.0000
  C   C62       1.0  0.29161510980713967  0.3724291335973647  0.0767165045828264  1.0000
  C   C63       1.0  0.08106545703583384  0.3723693358186822  0.5766437857241586  1.0000
  C   C64       1.0  0.7083094002967556  0.6277309620471172  0.9231931829457665  1.0000
  N   N1        1.0  0.34937136650751205  0.9851991738165611  0.6271218416042785  1.0000
  N   N2        1.0  0.36448455928030643  0.014873348933846807  0.872849482019241  1.0000
  N   N3        1.0  0.6509750678100585  0.014669732037148706  0.3728707366822164  1.0000
  N   N4        1.0  0.6352168224212277  0.9852845890773025  0.12748122676551787  1.0000
  N   N5        1.0  0.5796726631772344  0.6077905572941092  0.6233168251440944  1.0000
  N   N6        1.0  0.9720941477845173  0.3922549321089336  0.8767986524058387  1.0000
  N   N7        1.0  0.42025054058973405  0.3918590477546786  0.37665980694411166  1.0000
  N   N8        1.0  0.0281502336908517  0.6081833255848395  0.123399153419868  1.0000
  N   N9        1.0  0.6064216634731069  0.47790231750828144  0.2135452038359773  1.0000
  N   N10       1.0  0.12929591201513807  0.5222885220096459  0.2863939972130467  1.0000
  N   N11       1.0  0.3928782973464422  0.5222330216664091  0.7865052598579467  1.0000
  N   N12       1.0  0.870041990833961  0.4775211067250352  0.7135561083401144  1.0000
  O   O1        1.0  0.236373520307282  0.8311322051815891  0.5751571465402066  1.0000
  O   O2        1.0  0.4046372474301024  0.168769479761103  0.9250516829065346  1.0000
  O   O3        1.0  0.7639914049777589  0.16866103906256313  0.42486099037662944  1.0000
  O   O4        1.0  0.5958088609754668  0.8314134163189948  0.07501736140604008  1.0000
  O   O5        1.0  0.31597013924222495  0.7811416905102534  0.47200386600910355  1.0000
  O   O6        1.0  0.5348998092110975  0.21886480223292182  0.027964428226837895  1.0000
  O   O7        1.0  0.6840699395655961  0.21871612575110796  0.5278603748941322  1.0000
  O   O8        1.0  0.4652261712225042  0.7813622661114579  0.9721631974371548  1.0000
  O   O9        1.0  0.2013844688952346  0.6010786576026774  0.494921169023776  1.0000
  O   O10       1.0  0.6001793845355793  0.39880253172680113  0.004966907200738992  1.0000
  O   O11       1.0  0.7986472525700633  0.3985478298488801  0.5049551860102142  1.0000
  O   O12       1.0  0.39997748973664926  0.6016074073117396  0.9951961670847709  1.0000
  O   O13       1.0  0.3704474523019671  0.6750103471253797  0.5779524830367748  1.0000
  O   O14       1.0  0.6953634973936289  0.3249633647638107  0.921927376993672  1.0000
  O   O15       1.0  0.6296209972984171  0.3247193402876931  0.4218694772238223  1.0000
  O   O16       1.0  0.3049284451957064  0.6754467216683084  0.07830685040270421  1.0000
  O   O17       1.0  0.008856438843224606  0.6926202227298007  0.4492503587793379  1.0000
  O   O18       1.0  0.3161127687757315  0.3072012589114409  0.050800154652364406  1.0000
  O   O19       1.0  0.9912266985612063  0.30714727830758903  0.5506994370780731  1.0000
  O   O20       1.0  0.6840388497090403  0.6930219083523427  0.9491042968215737  1.0000
  O   O21       1.0  0.8880903730324262  0.5631955384627787  0.4529377933882657  1.0000
  O   O22       1.0  0.3250107299692786  0.4366049995189699  0.04694251007707351  1.0000
  O   O23       1.0  0.11192331166715525  0.43656489255265296  0.5469093467095831  1.0000
  O   O24       1.0  0.6747619372622893  0.5635957325788398  0.9530236827483592  1.0000
  O   O25       1.0  0.6444339060454426  0.6843741805803775  0.11363064806550228  1.0000
  O   O26       1.0  0.9600889702054473  0.3157893939017953  0.3862521464249653  1.0000
  O   O27       1.0  0.355826755631405  0.31578435454884624  0.8863417807691435  1.0000
  O   O28       1.0  0.03988280451385869  0.6839382392756266  0.6136100413943809  1.0000
  O   O29       1.0  0.577160806547397  0.549513293150028  0.1033251034460747  1.0000
  O   O30       1.0  0.02815275896108466  0.45066868793859544  0.396614890156151  1.0000
  O   O31       1.0  0.42258157765402155  0.4506545041261419  0.896677459103593  1.0000
  O   O32       1.0  0.9716211543901994  0.549067088159568  0.6032718341628113  1.0000
