data_image0
_chemical_formula_structural       Cd3H46C54N10O12
_chemical_formula_sum              "Cd3 H46 C54 N10 O12"
_cell_length_a       8.211783638689715
_cell_length_b       10.927046703852596
_cell_length_c       15.311879008219384
_cell_angle_alpha    71.34202993870838
_cell_angle_beta     74.48094488658471
_cell_angle_gamma    70.45005615747775

_space_group_name_H-M_alt    "P 1"
_space_group_IT_number       1

loop_
  _space_group_symop_operation_xyz
  'x, y, z'

loop_
  _atom_site_type_symbol
  _atom_site_label
  _atom_site_symmetry_multiplicity
  _atom_site_fract_x
  _atom_site_fract_y
  _atom_site_fract_z
  _atom_site_occupancy
  Cd  Cd1       1.0  0.09043306470793053  0.9275261928661539  0.7776507450930198  1.0000
  Cd  Cd2       1.0  0.9095720323862294  0.07247366551266772  0.2223494662951496  1.0000
  Cd  Cd3       1.0  2.6628902604000297e-06  0.9999994936336307  1.1643332555980038e-06  1.0000
  H   H1        1.0  0.040465390524758435  0.7366887332240497  0.36217680047045775  1.0000
  H   H2        1.0  0.9595346446061439  0.2633111702876505  0.6378215098770639  1.0000
  H   H3        1.0  0.39010908041348086  0.9457462353824513  0.5914550038573908  1.0000
  H   H4        1.0  0.6098954491277125  0.05425163196893832  0.4085431275484268  1.0000
  H   H5        1.0  0.46555338637434573  0.9033290666144823  0.42918425675581073  1.0000
  H   H6        1.0  0.5344472245699592  0.09667283726311382  0.5708128648293425  1.0000
  H   H7        1.0  0.25943878231835527  0.8205247202575663  0.3839269463416102  1.0000
  H   H8        1.0  0.740559175519877  0.1794812088630096  0.6160696406830297  1.0000
  H   H9        1.0  0.5425956202481075  0.6930286618259772  0.715469351733141  1.0000
  H   H10       1.0  0.45740752332991264  0.3069732213528625  0.28452806662338764  1.0000
  H   H11       1.0  0.4941211603520372  0.7557088225619354  0.8657716659729999  1.0000
  H   H12       1.0  0.505880021449407  0.24429507607847264  0.13422622809660817  1.0000
  H   H13       1.0  0.7146477492914229  0.8528477258186058  0.8884310268211946  1.0000
  H   H14       1.0  0.28535182218049465  0.14715718992957963  0.11156555997699513  1.0000
  H   H15       1.0  0.050792175511048775  0.5707205330356687  0.30040484761434527  1.0000
  H   H16       1.0  0.9492077474654224  0.42927235787367113  0.6995963750448768  1.0000
  H   H17       1.0  0.5295658375979286  0.5985117816611378  0.4632763963683999  1.0000
  H   H18       1.0  0.4704315394706384  0.4014921414904792  0.5367233406654394  1.0000
  H   H19       1.0  0.48224282123464224  0.4715568202987654  0.3648322452373236  1.0000
  H   H20       1.0  0.5177466031815499  0.5284481595675175  0.6351696919647766  1.0000
  H   H21       1.0  0.7268603964893006  0.4099199272380361  0.23216293885698044  1.0000
  H   H22       1.0  0.2731301862195324  0.5900780343457228  0.7678404246701477  1.0000
  H   H23       1.0  0.6111250287428831  0.33347933123678075  0.7766276927724505  1.0000
  H   H24       1.0  0.3888814592707063  0.6665165169176605  0.2233712704181769  1.0000
  H   H25       1.0  0.7187246358265966  0.32965149482092215  0.8634365563610942  1.0000
  H   H26       1.0  0.281280583392011  0.6703443608813515  0.13656323906725729  1.0000
  H   H27       1.0  0.5511136215381142  0.19410350444869812  0.986806387349212  1.0000
  H   H28       1.0  0.4488921701897226  0.8058943478840846  0.01319352681465349  1.0000
  H   H29       1.0  0.40312416726055755  0.3307946270830088  0.9239175267376183  1.0000
  H   H30       1.0  0.5968816261193625  0.6692032271174639  0.07608173367730589  1.0000
  H   H31       1.0  0.5139723361026399  0.0359128372078246  0.9211413950455454  1.0000
  H   H32       1.0  0.4860267717678042  0.9640860642917842  0.0788598870488499  1.0000
  H   H33       1.0  0.3023182841656436  0.13440032069003394  0.9564582929358851  1.0000
  H   H34       1.0  0.6976817443569131  0.8655995753509061  0.043542632407408605  1.0000
  H   H35       1.0  0.5043607427346969  0.17423504401347858  0.7530561857835707  1.0000
  H   H36       1.0  0.495644129993117  0.8257618156456704  0.24694343138245503  1.0000
  H   H37       1.0  0.2935058268978708  0.27089648690881063  0.7913136785367173  1.0000
  H   H38       1.0  0.7064939772583331  0.7291004104124498  0.20868665258443292  1.0000
  H   H39       1.0  0.16427023849142597  0.5345728857622943  0.09264632587898806  1.0000
  H   H40       1.0  0.8357258681300691  0.46543104306947214  0.9073548971415235  1.0000
  H   H41       1.0  0.3406357687224215  0.504552629441733  0.9972734687760721  1.0000
  H   H42       1.0  0.6593616033898896  0.4954512881068069  0.002728229504597857  1.0000
  H   H43       1.0  0.13799174645806286  0.4795986191331636  0.9125790936094591  1.0000
  H   H44       1.0  0.8620085097350197  0.5204042793628362  0.08742111845808857  1.0000
  H   H45       1.0  0.13832842514342053  0.36552197702033606  0.024420115886982764  1.0000
  H   H46       1.0  0.8616716017270464  0.6344779171529141  0.9755814632052523  1.0000
  C   C1        1.0  0.30613695227422977  0.9087744078336756  0.567589537081048  1.0000
  C   C2        1.0  0.6938659636332647  0.09122447289010441  0.43240859455122654  1.0000
  C   C3        1.0  0.34687992194673717  0.8856968295915663  0.4780979397588753  1.0000
  C   C4        1.0  0.6531222993270871  0.11430405717825211  0.5219004890977035  1.0000
  C   C5        1.0  0.23414200705855845  0.8381075866579125  0.45316000794748856  1.0000
  C   C6        1.0  0.7658569902520469  0.1618953305920741  0.5468371138641217  1.0000
  C   C7        1.0  0.08393422484979143  0.8120458786691316  0.5181609028748115  1.0000
  C   C8        1.0  0.9160651189516071  0.18795603462398702  0.48183639719911764  1.0000
  C   C9        1.0  0.9646363365335376  0.7550367219876364  0.5031011460868912  1.0000
  C   C10       1.0  0.035364274410767435  0.24496518188995248  0.496895975498255  1.0000
  C   C11       1.0  0.8196361171349054  0.7256140410078444  0.570102020610733  1.0000
  C   C12       1.0  0.18036449215730957  0.27438786100206153  0.4298957547233614  1.0000
  C   C13       1.0  0.7795262497367831  0.7578489353120974  0.6583405756340995  1.0000
  C   C14       1.0  0.2204749337167513  0.24215496519600077  0.3416566646865675  1.0000
  C   C15       1.0  0.6339969199693627  0.735453805047449  0.7283721086852424  1.0000
  C   C16       1.0  0.3660029963412724  0.26455010487617875  0.27162531012420743  1.0000
  C   C17       1.0  0.60820240293954  0.769214986852873  0.8116482137897664  1.0000
  C   C18       1.0  0.3917987805139944  0.23078891365522486  0.1883490265309007  1.0000
  C   C19       1.0  0.7296251226047017  0.8242053312548168  0.8241629081691358  1.0000
  C   C20       1.0  0.270375716010129  0.17579957507783214  0.1758335001402642  1.0000
  C   C21       1.0  0.8959939206732982  0.8149491072488222  0.6765978600404381  1.0000
  C   C22       1.0  0.10400668861892375  0.1850527947610772  0.3233999152936491  1.0000
  C   C23       1.0  0.05037324793418211  0.8396689445679615  0.6071615329959599  1.0000
  C   C24       1.0  0.9496286301530222  0.160332949894098  0.3928354101004103  1.0000
  C   C25       1.0  0.8284698570248706  0.6558439694964734  0.45185053418885707  1.0000
  C   C26       1.0  0.17153144194475797  0.3441559208643171  0.5481489051677713  1.0000
  C   C27       1.0  0.9215985124804218  0.552795062408734  0.31570453711298546  1.0000
  C   C28       1.0  0.07839944706739028  0.4471998420944844  0.6842978150082573  1.0000
  C   C29       1.0  0.7938097301670551  0.5929283687999956  0.39067853502975686  1.0000
  C   C30       1.0  0.2061884587033659  0.4070695400259652  0.6093224500667986  1.0000
  C   C31       1.0  0.63164801653096  0.5657934822069706  0.4069756985225581  1.0000
  C   C32       1.0  0.36834717109051246  0.4342094539511479  0.5930252275001139  1.0000
  C   C33       1.0  0.6053052178244441  0.49816907337941546  0.3511097721489023  1.0000
  C   C34       1.0  0.3946868596978205  0.5018318812438808  0.6488926996136968  1.0000
  C   C35       1.0  0.7411276447617466  0.46262155764245716  0.27844795013155016  1.0000
  C   C36       1.0  0.2588654722328983  0.5373763851102423  0.7215550564180194  1.0000
  C   C37       1.0  0.8018273200691082  0.15034351395023296  0.8208762060283805  1.0000
  C   C38       1.0  0.1981753549511751  0.8496523493769602  0.17912786887119128  1.0000
  C   C39       1.0  0.6569596668271912  0.2709936051469485  0.8421387282627535  1.0000
  C   C40       1.0  0.34304393875771666  0.729003263927723  0.1578610673920551  1.0000
  C   C41       1.0  0.5049207642874975  0.2363548294278814  0.9193698118595607  1.0000
  C   C42       1.0  0.4950853722790427  0.7636420170803505  0.08063093431557188  1.0000
  C   C43       1.0  0.4246607118607316  0.13725233625327604  0.9053619553859849  1.0000
  C   C44       1.0  0.5753434645813227  0.862746527584214  0.09463861275328611  1.0000
  C   C45       1.0  0.38598145616605706  0.1704278272954269  0.8071003426300366  1.0000
  C   C46       1.0  0.6140227169718242  0.8295710328066763  0.19290153300712384  1.0000
  C   C47       1.0  0.3036403597784343  0.07617956106222581  0.7912153782544068  1.0000
  C   C48       1.0  0.6963691146153367  0.9238112429508335  0.20878952775059642  1.0000
  C   C49       1.0  0.1511387935141215  0.6955683462214921  0.9663845601878975  1.0000
  C   C50       1.0  0.8488567405981442  0.30443358597976566  0.03361654409710007  1.0000
  C   C51       1.0  0.19786203004237984  0.5467926305260988  0.0165081052900788  1.0000
  C   C52       1.0  0.802136035051518  0.45320927910871944  0.9834939495152355  1.0000
  C   C53       1.0  0.09949730961997005  0.4726498595015159  0.9881059898533097  1.0000
  C   C54       1.0  0.9005036379026093  0.5273510292130654  0.011895232487816477  1.0000
  N   N1        1.0  0.16277837451907126  0.8872119229154833  0.629259632511868  1.0000
  N   N2        1.0  0.8372261550221225  0.11278594443589902  0.3707384988939496  1.0000
  N   N3        1.0  0.8683497045496367  0.8461417743139279  0.7588744211266701  1.0000
  N   N4        1.0  0.13165148055598047  0.15386212806185995  0.2411221654450557  1.0000
  N   N5        1.0  0.9680781167911193  0.7096402354543302  0.42881779925675545  1.0000
  N   N6        1.0  0.03191903591109483  0.29036068897760703  0.5711813435549473  1.0000
  N   N7        1.0  0.7364723766554633  0.6630368574671125  0.53766921394935  1.0000
  N   N8        1.0  0.2635273086804659  0.33696404626607557  0.4623302256337354  1.0000
  N   N9        1.0  0.8964844270900869  0.49035962989908216  0.2602501797185255  1.0000
  N   N10       1.0  0.10351007751981454  0.5096342988938575  0.7397528861313847  1.0000
  O   O1        1.0  0.8889101278286446  0.15716951812061097  0.7377719438627537  1.0000
  O   O2        1.0  0.11109312630921397  0.8428283493078514  0.2622296347765668  1.0000
  O   O3        1.0  0.8343861433949654  0.041954670113405305  0.8859093963406508  1.0000
  O   O4        1.0  0.1656212570103078  0.95804216324391  0.11409247884358817  1.0000
  O   O5        1.0  0.21320146884440308  0.0103682790796498  0.8619993702636821  1.0000
  O   O6        1.0  0.786823435688042  0.989614384181678  0.1380104069436285  1.0000
  O   O7        1.0  0.3208480245746017  0.06453008632967538  0.7095523446033029  1.0000
  O   O8        1.0  0.6791435926503623  0.9354648577804243  0.2904535149576191  1.0000
  O   O9        1.0  0.19582205299195715  0.725081101227353  0.8772850935696682  1.0000
  O   O10       1.0  0.804164386753641  0.2749178981629399  0.12271666591465191  1.0000
  O   O11       1.0  0.06748228186125967  0.7774728044448834  0.01711926361962673  1.0000
  O   O12       1.0  0.9325141729031117  0.22253012229771238  0.9828814839142552  1.0000
