data_image0
_chemical_formula_structural       Zn2H44C32I8N4O16
_chemical_formula_sum              "Zn2 H44 C32 I8 N4 O16"
_cell_length_a       8.525850038
_cell_length_b       11.379870844595448
_cell_length_c       13.662
_cell_angle_alpha    90.0
_cell_angle_beta     90.0
_cell_angle_gamma    99.88051215819736

_space_group_name_H-M_alt    "P 1"
_space_group_IT_number       1

loop_
  _space_group_symop_operation_xyz
  'x, y, z'

loop_
  _atom_site_type_symbol
  _atom_site_label
  _atom_site_symmetry_multiplicity
  _atom_site_fract_x
  _atom_site_fract_y
  _atom_site_fract_z
  _atom_site_occupancy
  Zn  Zn1       1.0  0.999998680566442  0.4999999232901828  0.5000007319572504  1.0000
  Zn  Zn2       1.0  0.4999982384161187  0.0  0.9999978041282418  1.0000
  H   H1        1.0  0.6853223011703093  0.3135451232800364  0.5123254281949912  1.0000
  H   H2        1.0  0.814674209225494  0.18645301606096606  0.0123254281949912  1.0000
  H   H3        1.0  0.31467251431908494  0.6864538313257427  0.48767530376225915  1.0000
  H   H4        1.0  0.18532198346085244  0.8135468305193996  0.987673107890501  1.0000
  H   H5        1.0  0.5314311061597508  0.3766862204265493  0.4527287366417809  1.0000
  H   H6        1.0  0.96856581282281  0.1233137028636335  0.9527280046845232  1.0000
  H   H7        1.0  0.46856508652659556  0.6233136261538164  0.5472719953154765  1.0000
  H   H8        1.0  0.031431961353867256  0.8766879276659125  0.0472705314009687  1.0000
  H   H9        1.0  0.6175309767117484  0.43895050655290646  0.5653235251061304  1.0000
  H   H10       1.0  0.8824665022942498  0.06104674081351649  0.0653220611916296  1.0000
  H   H11       1.0  0.3824650116812123  0.5610484480528797  0.4346779388083704  1.0000
  H   H12       1.0  0.11753086329567713  0.9389531057668563  0.9346757429366122  1.0000
  H   H13       1.0  0.04151594345541551  0.6318212797756715  0.694923876445614  1.0000
  H   H14       1.0  0.4584781457377574  0.8681775981202975  0.1949246084028715  1.0000
  H   H15       1.0  0.9584804535243097  0.3681794587792879  0.30507612355438596  1.0000
  H   H16       1.0  0.541517282631773  0.1318240324092486  0.8050724637681128  1.0000
  H   H17       1.0  0.06328632033604012  0.5849230398795129  0.9295008051529763  1.0000
  H   H18       1.0  0.43671700064906827  0.9150802978893963  0.4294986092812181  1.0000
  H   H19       1.0  0.9367149725513715  0.41507859065004027  0.0704999268042741  1.0000
  H   H20       1.0  0.5632854651419166  0.0849213326401497  0.570496267018008  1.0000
  H   H21       1.0  0.889968646880597  0.6554603903110277  0.9201617625530643  1.0000
  H   H22       1.0  0.6100330881571455  0.8445411635087083  0.420161030595814  1.0000
  H   H23       1.0  0.1100316773966199  0.3445421321931121  0.0798389694041859  1.0000
  H   H24       1.0  0.3899652460429764  0.1554577910970778  0.5798345776606624  1.0000
  H   H25       1.0  0.056110894581749435  0.7003177923494803  0.8420977894890953  1.0000
  H   H26       1.0  0.4438898763028263  0.7996846534448422  0.34209852144634567  1.0000
  H   H27       1.0  0.9438894296954672  0.2996847301546595  0.1579014785536543  1.0000
  H   H28       1.0  0.5561102436810046  0.2003169770847038  0.6578970868101308  1.0000
  H   H29       1.0  0.7581134529603588  0.3798099154342793  0.778173034694774  1.0000
  H   H30       1.0  0.7418934092742547  0.1201873319321436  0.2781679109940001  1.0000
  H   H31       1.0  0.24188528982652008  0.6201908231206801  0.2218291611769843  1.0000
  H   H32       1.0  0.2581127266641375  0.8798098387244622  0.7218255013907182  1.0000
  H   H33       1.0  0.7194670165128656  0.45701834381062406  0.8875867369345656  1.0000
  H   H34       1.0  0.7805386728181676  0.0429789035557917  0.3875816132337846  1.0000
  H   H35       1.0  0.28053310347097243  0.5429832867189219  0.1124154589371997  1.0000
  H   H36       1.0  0.21946705453346033  0.9570164831516336  0.6124110671936762  1.0000
  H   H37       1.0  0.8790007243576385  0.37387293257550175  0.884790660225441  1.0000
  H   H38       1.0  0.6210093008576437  0.1261278826892749  0.3847862684819176  1.0000
  H   H39       1.0  0.12099863130938363  0.6261304819032247  0.1152108036890667  1.0000
  H   H40       1.0  0.3790005580848543  0.8738701799419246  0.6152078758600509  1.0000
  H   H41       1.0  0.7454705264590659  0.5556716252354619  0.4377667984189699  1.0000
  H   H42       1.0  0.7545272812811777  0.9443281446350937  0.9377653345044621  1.0000
  H   H43       1.0  0.2545280120344274  0.4443282213449038  0.5622339335382804  1.0000
  H   H44       1.0  0.24547125721232282  0.055671701945279  0.0622324696237726  1.0000
  C   C1        1.0  0.097153782389384  0.2588180224236183  0.520251793295273  1.0000
  C   C2        1.0  0.40284920986147205  0.2411827928411512  0.0202539891670312  1.0000
  C   C3        1.0  0.9028494477184169  0.7411818241567474  0.4797474747474766  1.0000
  C   C4        1.0  0.5971495329254071  0.7588179457138082  0.9797467427902191  1.0000
  C   C5        1.0  0.050726085235218904  0.12405939361933349  0.5105811740594319  1.0000
  C   C6        1.0  0.44927670272226555  0.3759405296708493  0.0105819060166894  1.0000
  C   C7        1.0  0.9492792863863645  0.8759395609864455  0.489418825940568  1.0000
  C   C8        1.0  0.5507230086748152  0.6240593169095163  0.9894195578978184  1.0000
  C   C9        1.0  0.959992481436764  0.0579970796966052  0.5840652905870272  1.0000
  C   C10       1.0  0.5400105063570635  0.4420037355681643  0.084066754501535  1.0000
  C   C11       1.0  0.040014471675149835  0.9420036588583541  0.415933245498465  1.0000
  C   C12       1.0  0.45998782784305803  0.5579952190376147  0.9159325135412075  1.0000
  C   C13       1.0  0.9077239092102901  0.9347064147526324  0.5734636217244926  1.0000
  C   C14       1.0  0.5922760400437355  0.5652924631433365  0.0734628897672351  1.0000
  C   C15       1.0  0.09228105382452872  0.0652907559039733  0.4265363782755074  1.0000
  C   C16       1.0  0.4077236713533453  0.43470738343703624  0.9265371102327649  1.0000
  C   C17       1.0  0.6417797924292188  0.39657457781870414  0.4959076269945867  1.0000
  C   C18       1.0  0.8582180951635366  0.103424453496892  0.9959076269945868  1.0000
  C   C19       1.0  0.3582173688673223  0.6034243767870748  0.5040931049626707  1.0000
  C   C20       1.0  0.1417792704263832  0.8965753930834807  0.0040916410481628  1.0000
  C   C21       1.0  0.9592078412860658  0.5486723006421883  0.712013614404917  1.0000
  C   C22       1.0  0.5407899135974789  0.9513221173808404  0.2120158102766823  1.0000
  C   C23       1.0  0.04078855569365911  0.4513284379127711  0.2879856536378256  1.0000
  C   C24       1.0  0.45920505332858863  0.04867237735200549  0.7879841897233177  1.0000
  C   C25       1.0  0.9852152040062734  0.6236472246497939  0.8790389401258949  1.0000
  C   C26       1.0  0.5147841852243076  0.8763543291699422  0.3790382081686445  1.0000
  C   C27       1.0  0.014782570170410713  0.37635440587975927  0.1209603279168476  1.0000
  C   C28       1.0  0.4852153218793873  0.1236446254358441  0.6209588640023397  1.0000
  C   C29       1.0  0.8124571161614186  0.43035276349765184  0.8413277704582072  1.0000
  C   C30       1.0  0.6875501546599525  0.0696462678179444  0.34132264675742613  1.0000
  C   C31       1.0  0.18754376813922852  0.5696470830827209  0.15867442541355808  1.0000
  C   C32       1.0  0.3124554212550095  0.9303535787624213  0.6586714975845425  1.0000
  I   I1        1.0  0.9137624308246615  0.1465656964277287  0.7134240960327887  1.0000
  I   I2        1.0  0.5862374468451963  0.3534369027862212  0.2134270238618043  1.0000
  I   I3        1.0  0.0862382491826139  0.8534332581780503  0.286573708095446  1.0000
  I   I4        1.0  0.41376109164830416  0.6465629437941516  0.7865729761381957  1.0000
  I   I5        1.0  0.7642223242650418  0.8342602644056001  0.6806097203923258  1.0000
  I   I6        1.0  0.7357784421624985  0.6657421813887225  0.1806097203923258  1.0000
  I   I7        1.0  0.2357809058427591  0.1657395821747727  0.3193880837359089  1.0000
  I   I8        1.0  0.26422126923457523  0.3342576651916502  0.8193902796076742  1.0000
  N   N1        1.0  0.918372696498814  0.5357752400720202  0.8064734299516942  1.0000
  N   N2        1.0  0.5816300071491156  0.9642254217731292  0.3064705021226786  1.0000
  N   N3        1.0  0.08162507767787021  0.464226390457533  0.1935273020055632  1.0000
  N   N4        1.0  0.4183732229586853  0.0357744248072436  0.693523642219297  1.0000
  O   O1        1.0  0.9920557759158798  0.3160818990087577  0.488287951983601  1.0000
  O   O2        1.0  0.5079503220019177  0.18391713230683848  0.9882894158981086  1.0000
  O   O3        1.0  0.007949595705696299  0.6839170555970213  0.511712048016399  1.0000
  O   O4        1.0  0.4920505622987363  0.8160827142735343  0.011710584101891196  1.0000
  O   O5        1.0  0.2302719115538849  0.299732896782416  0.5580024886546653  1.0000
  O   O6        1.0  0.2697318450137871  0.20026613453318023  0.0580032206119157  1.0000
  O   O7        1.0  0.7697324914574963  0.7002669497979568  0.4419975113453347  1.0000
  O   O8        1.0  0.7302690392868599  0.7997337120471926  0.9419967793880841  1.0000
  O   O9        1.0  0.7646640366290571  0.4703551478527643  0.4410488947445472  1.0000
  O   O10       1.0  0.7353340552570843  0.0296447754374256  0.9410474308300394  1.0000
  O   O11       1.0  0.23533429757106464  0.5296438067530218  0.5589525691699606  1.0000
  O   O12       1.0  0.26466468752979483  0.9703559631175338  0.0589503732982024  1.0000
  O   O13       1.0  0.909029402935353  0.4740461386985615  0.64673327477675  1.0000
  O   O14       1.0  0.5909753177854854  0.025952000642448098  0.14672741911872578  1.0000
  O   O15       1.0  0.09096719833775783  0.5259554918309846  0.3532674571805003  1.0000
  O   O16       1.0  0.40902872949584435  0.9740514138362713  0.8532645293514847  1.0000
