data_image0
_chemical_formula_structural       Zn2H26C38N10O8
_chemical_formula_sum              "Zn2 H26 C38 N10 O8"
_cell_length_a       5.934768552639918
_cell_length_b       10.846633235044393
_cell_length_c       15.96002068201692
_cell_angle_alpha    92.18156328707865
_cell_angle_beta     105.20470615568877
_cell_angle_gamma    90.82027972258278

_space_group_name_H-M_alt    "P 1"
_space_group_IT_number       1

loop_
  _space_group_symop_operation_xyz
  'x, y, z'

loop_
  _atom_site_type_symbol
  _atom_site_label
  _atom_site_symmetry_multiplicity
  _atom_site_fract_x
  _atom_site_fract_y
  _atom_site_fract_z
  _atom_site_occupancy
  Zn  Zn1       1.0  0.9838486931856634  0.7378328096566877  0.198662030621243  1.0000
  Zn  Zn2       1.0  0.016160098473868345  0.2621689150874431  0.8013392169092415  1.0000
  H   H1        1.0  0.7793862161877739  0.4431201310546342  0.16706620783759973  1.0000
  H   H2        1.0  0.2206253843123918  0.5568750979672359  0.8329348188290382  1.0000
  H   H3        1.0  0.18281999770725577  0.3831103846831283  0.3083211764918659  1.0000
  H   H4        1.0  0.8171854647666092  0.6168871045501091  0.691685767232471  1.0000
  H   H5        1.0  0.6880568254404692  0.7400626997263161  0.3318156275073392  1.0000
  H   H6        1.0  0.3119411144526937  0.2599406456619278  0.668179150704937  1.0000
  H   H7        1.0  0.40167133121034476  0.5434578932200793  0.35066718241529315  1.0000
  H   H8        1.0  0.5983286239003505  0.4565451236968983  0.6493308864753756  1.0000
  H   H9        1.0  0.029466559975041717  0.1652227329922695  0.29390213056557724  1.0000
  H   H10       1.0  0.970533745760356  0.8347778376979986  0.7061020771003969  1.0000
  H   H11       1.0  0.21895936169660493  0.004478083144526596  0.22068556705899314  1.0000
  H   H12       1.0  0.7810300075582999  0.9955221460544691  0.7793132810980198  1.0000
  H   H13       1.0  0.5580661570895771  0.8923957418922014  0.23470790866389993  1.0000
  H   H14       1.0  0.4419430154914252  0.10760555927201658  0.7652977392119028  1.0000
  H   H15       1.0  0.9412358161419759  0.9361266403785822  0.04907885595402212  1.0000
  H   H16       1.0  0.058747785431187124  0.06386912429301356  0.950918552277763  1.0000
  H   H17       1.0  0.7094186689257638  0.1537034309539038  0.06322093203635151  1.0000
  H   H18       1.0  0.29055407470483635  0.8462898485567864  0.9367741123579807  1.0000
  H   H19       1.0  0.6035086556433811  0.814270681249866  0.42465232100372674  1.0000
  H   H20       1.0  0.3964892416006264  0.1857224298815651  0.5753524066000395  1.0000
  H   H21       1.0  0.09865992292897369  0.08072775393605977  0.45326548507507886  1.0000
  H   H22       1.0  0.9013366303422147  0.9192680237555424  0.546740573344053  1.0000
  H   H23       1.0  0.18132987952490962  0.4213997782403356  0.05970488850731931  1.0000
  H   H24       1.0  0.8186875674870108  0.5786070248284217  0.9402911792691955  1.0000
  H   H25       1.0  0.5828372866616859  0.7256509683116192  0.004542934697653303  1.0000
  H   H26       1.0  0.4171838522208943  0.2743565824622181  0.9954547591856909  1.0000
  C   C1        1.0  0.6633021298376959  0.6480584807572785  0.3018039863482898  1.0000
  C   C2        1.0  0.3366955438528052  0.3519400198039335  0.698192937766308  1.0000
  C   C3        1.0  0.5235079106743895  0.5515436230022602  0.3112689581018131  1.0000
  C   C4        1.0  0.4765006633157326  0.4484583437875358  0.688729774945621  1.0000
  C   C5        1.0  0.7212894766597556  0.4978191233061151  0.2151931057053957  1.0000
  C   C6        1.0  0.2787153751629389  0.502180073131818  0.7848057396652025  1.0000
  C   C7        1.0  0.4561190943375236  0.336174355302596  0.2454507242610759  1.0000
  C   C8        1.0  0.5438843408585187  0.6638245039810114  0.754551745259498  1.0000
  C   C9        1.0  0.26384108118985244  0.3110622625255388  0.2778792188059641  1.0000
  C   C10       1.0  0.7361640971369569  0.688936570843893  0.7221233982891988  1.0000
  C   C11       1.0  0.17804634077609904  0.18975480348370868  0.2692585858038258  1.0000
  C   C12       1.0  0.8219501642539271  0.8102451405243156  0.7307427385137971  1.0000
  C   C13       1.0  0.2817867706203572  0.09980803281770531  0.22834051293345684  1.0000
  C   C14       1.0  0.7182061937307863  0.9001920235300886  0.7716598876142485  1.0000
  C   C15       1.0  0.4700445110300607  0.1365938657867929  0.19719679712322605  1.0000
  C   C16       1.0  0.5299465166414804  0.8634043753626416  0.8028033084176016  1.0000
  C   C17       1.0  0.6295465160948552  0.9305702079240629  0.1851715887394008  1.0000
  C   C18       1.0  0.37045348725700217  0.06942864267648466  0.8148312142527773  1.0000
  C   C19       1.0  0.8247465704316139  0.9607932036518179  0.08880341198369732  1.0000
  C   C20       1.0  0.1752409165610445  0.039205149837393066  0.911195769787206  1.0000
  C   C21       1.0  0.7131154250006944  0.0682876315855978  0.09662367974317483  1.0000
  C   C22       1.0  0.2868664334417019  0.9317081590001736  0.9033735809140283  1.0000
  C   C23       1.0  0.1506980361234866  0.8816850454512064  0.3553743506030926  1.0000
  C   C24       1.0  0.8492948979308821  0.11831298824979801  0.6446277883745992  1.0000
  C   C25       1.0  0.33284083238212503  0.9417290441209617  0.4299565467472349  1.0000
  C   C26       1.0  0.6671554064452394  0.05826605506003087  0.5700469234727168  1.0000
  C   C27       1.0  0.5584435986321593  0.8957784540218298  0.4576479951458553  1.0000
  C   C28       1.0  0.44155258577785617  0.10421670567058068  0.5423548464533355  1.0000
  C   C29       1.0  0.27560790441474836  0.0465331852415432  0.47347786480205667  1.0000
  C   C30       1.0  0.7243866033421327  0.9534608982745212  0.5265266413686832  1.0000
  C   C31       1.0  0.2291459509951252  0.671482327564192  0.0761749710499728  1.0000
  C   C32       1.0  0.7708642572910591  0.3285197343342644  0.9238226523305288  1.0000
  C   C33       1.0  0.36597745429722295  0.5826995339450818  0.03546893333692943  1.0000
  C   C34       1.0  0.6340400471320536  0.41730720861225734  0.964527763060339  1.0000
  C   C35       1.0  0.32115036293107824  0.4551705029233162  0.033297804700580996  1.0000
  C   C36       1.0  0.6788688816289722  0.5448362137198474  0.9666990392712764  1.0000
  C   C37       1.0  0.5459204378932013  0.6267537551183509  0.001652453154576994  1.0000
  C   C38       1.0  0.45409886108419784  0.37325290101339437  0.9983450194380412  1.0000
  N   N1        1.0  0.7847123279474032  0.6136684278302837  0.24188946335517875  1.0000
  N   N2        1.0  0.21528902555346008  0.38633186201511194  0.7581079033408714  1.0000
  N   N3        1.0  0.5619192665182807  0.45597074762048345  0.25648734576011384  1.0000
  N   N4        1.0  0.43808743726988547  0.5440283018804308  0.7435129044265949  1.0000
  N   N5        1.0  0.5575905441066168  0.25183459811763237  0.20541766308644335  1.0000
  N   N6        1.0  0.44240391540910917  0.7481636517148541  0.7945821089827874  1.0000
  N   N7        1.0  0.5891339499298168  0.04795561411551571  0.1580103137719391  1.0000
  N   N8        1.0  0.4108587240980768  0.9520416805634685  0.8419898656273261  1.0000
  N   N9        1.0  0.7749091248210077  0.8765284637590935  0.14547438657623246  1.0000
  N   N10       1.0  0.22508728343460396  0.12347055969264889  0.8545268640252532  1.0000
  O   O1        1.0  0.13951880667102762  0.6249212499389999  0.13436580472910015  1.0000
  O   O2        1.0  0.8605040147487768  0.3750822296270684  0.8656355135888135  1.0000
  O   O3        1.0  0.9398747633763094  0.9009052790176996  0.34910415308671366  1.0000
  O   O4        1.0  0.060123085626536024  0.09909199843016124  0.6508958404155438  1.0000
  O   O5        1.0  0.22759036617522813  0.8130695486875086  0.3001061901418964  1.0000
  O   O6        1.0  0.7724115073785781  0.1869322192019283  0.6998950957110068  1.0000
  O   O7        1.0  0.21045421121083052  0.7812053815571288  0.0542848424787366  1.0000
  O   O8        1.0  0.789536000200414  0.21879376726354852  0.9457058337506867  1.0000
