data_image0
_chemical_formula_structural       Mn4P8H44C16N4O28
_chemical_formula_sum              "Mn4 P8 H44 C16 N4 O28"
_cell_length_a       5.512989911
_cell_length_b       12.270120907564102
_cell_length_c       14.645
_cell_angle_alpha    90.0
_cell_angle_beta     90.0
_cell_angle_gamma    98.18628566710478

_space_group_name_H-M_alt    "P 1"
_space_group_IT_number       1

loop_
  _space_group_symop_operation_xyz
  'x, y, z'

loop_
  _atom_site_type_symbol
  _atom_site_label
  _atom_site_symmetry_multiplicity
  _atom_site_fract_x
  _atom_site_fract_y
  _atom_site_fract_z
  _atom_site_occupancy
  Mn  Mn1       1.0  0.72571440315329  0.6133563786359204  0.0300785250938915  1.0000
  Mn  Mn2       1.0  0.7742856877909502  0.8866461851568062  0.5300792079207923  1.0000
  Mn  Mn3       1.0  0.2742894592340264  0.3866458794777827  0.9699201092523069  1.0000
  Mn  Mn4       1.0  0.22571636069861967  0.113356072956897  0.4699214749061084  1.0000
  P   P1        1.0  0.2839198028137773  0.7283773215701501  0.103431888016388  1.0000
  P   P2        1.0  0.21608078116710766  0.771621125333418  0.6034312051894872  1.0000
  P   P3        1.0  0.7160705667522009  0.271616702765229  0.896572208945031  1.0000
  P   P4        1.0  0.783932672595931  0.2283827795359556  0.3965687948105128  1.0000
  P   P5        1.0  0.2234856034671751  0.6504264954110468  0.9099836121543204  1.0000
  P   P6        1.0  0.2765199130266325  0.8495760683816798  0.4099849778081222  1.0000
  P   P7        1.0  0.7765068536466728  0.3495741159469929  0.0900163878456794  1.0000
  P   P8        1.0  0.7234893910539455  0.1504261897320305  0.5900170706725874  1.0000
  H   H1        1.0  0.035166001738396346  0.8590762018131457  0.9737685216797514  1.0000
  H   H2        1.0  0.4648400239357429  0.6409222450904224  0.47376442471833247  1.0000
  H   H3        1.0  0.9648334373163364  0.1409178225222405  0.0262335268009579  1.0000
  H   H4        1.0  0.5351565828605729  0.3590800130232878  0.5262335268009579  1.0000
  H   H5        1.0  0.3080786500783006  0.9402102066727168  0.009851143735062398  1.0000
  H   H6        1.0  0.19192246849618746  0.5597956506313437  0.5098518265619632  1.0000
  H   H7        1.0  0.6919166520006002  0.059787934551828  0.9901495390918384  1.0000
  H   H8        1.0  0.8080785489260833  0.4402090776158616  0.4901481734380367  1.0000
  H   H9        1.0  0.2421506181949766  0.8494229201048283  0.8144240355070025  1.0000
  H   H10       1.0  0.2578388214559197  0.6505747034209008  0.3144206213724842  1.0000
  H   H11       1.0  0.7578464977816708  0.1505752211197091  0.1855773301468062  1.0000
  H   H12       1.0  0.742158816407695  0.3494250845593072  0.6855759644929975  1.0000
  H   H13       1.0  0.47467020582352853  0.9522339931608172  0.8541782178217827  1.0000
  H   H14       1.0  0.025330378157363508  0.5477644537427508  0.3541802663024923  1.0000
  H   H15       1.0  0.5253271710966061  0.047764971441559105  0.1458217821782171  1.0000
  H   H16       1.0  0.9746688126605249  0.4522345108596255  0.6458183680436989  1.0000
  H   H17       1.0  0.9278756513462554  0.9752638711360362  0.8479016729259143  1.0000
  H   H18       1.0  0.5721280801001214  0.5247444563015193  0.3478989416182969  1.0000
  H   H19       1.0  0.07212355217826172  0.024740857111169096  0.15209764424718483  1.0000
  H   H20       1.0  0.42787111071776707  0.475254508300857  0.6520990099009936  1.0000
  H   H21       1.0  0.168805462729523  0.0813332622950398  0.8777821782178208  1.0000
  H   H22       1.0  0.3312138373178257  0.4186711602731421  0.3777808125640121  1.0000
  H   H23       1.0  0.8312033194640802  0.9186673490630001  0.1222178217821792  1.0000
  H   H24       1.0  0.6687858753870228  0.5813294510848976  0.6222178217821792  1.0000
  H   H25       1.0  0.11813424835150237  0.9642940082735407  0.6974687606691672  1.0000
  H   H26       1.0  0.38186012381231643  0.535707732141347  0.1974673950153658  1.0000
  H   H27       1.0  0.8818639113990797  0.0357074264623307  0.3025298736770238  1.0000
  H   H28       1.0  0.6181289537428825  0.46428793894969533  0.8025298736770239  1.0000
  H   H29       1.0  0.3289510886617464  0.0719129965133263  0.7232932741550043  1.0000
  H   H30       1.0  0.171045661782145  0.4280889559213605  0.223294639808806  1.0000
  H   H31       1.0  0.6710488849865895  0.9280884382225452  0.2767060430180948  1.0000
  H   H32       1.0  0.8289473045120346  0.5719075385475207  0.7767067258449956  1.0000
  H   H33       1.0  0.036340433381433  0.0904002989866086  0.7181208603618996  1.0000
  H   H34       1.0  0.4636524283234706  0.4096008300702465  0.2181188118811903  1.0000
  H   H35       1.0  0.9636556515279153  0.9096003123714382  0.2818805052919089  1.0000
  H   H36       1.0  0.536337693005656  0.5903981345321299  0.7818811881188097  1.0000
  H   H37       1.0  0.2722621673371606  0.8314708132226797  0.2253117104813924  1.0000
  H   H38       1.0  0.227739969597998  0.6685268103030495  0.7253117104813923  1.0000
  H   H39       1.0  0.7277367625372406  0.16852732800186493  0.7746896551724163  1.0000
  H   H40       1.0  0.7722703655498788  0.3314729776771586  0.2746910208262179  1.0000
  H   H41       1.0  0.6378409238650206  0.7745111815255113  0.905089108910893  1.0000
  H   H42       1.0  0.8621555392837195  0.7254913822672151  0.4050911573916024  1.0000
  H   H43       1.0  0.3621499675879249  0.225484489565531  0.0949095254353054  1.0000
  H   H44       1.0  0.1378454781385443  0.2745133459799902  0.5949088426083975  1.0000
  C   C1        1.0  0.3421890648000314  0.7711023972989325  0.9826978490952525  1.0000
  C   C2        1.0  0.15781619075028894  0.7288993431159554  0.4826958006145432  1.0000
  C   C3        1.0  0.6578150458241367  0.2288949205477735  0.0173069306930671  1.0000
  C   C4        1.0  0.8421858577392811  0.2711029149977477  0.517303516558556  1.0000
  C   C5        1.0  0.23355659670868786  0.8763243206485001  0.9606398088084659  1.0000
  C   C6        1.0  0.266453591354562  0.6236815366555604  0.460639808808466  1.0000
  C   C7        1.0  0.7664488186329023  0.1236771140873714  0.03935950836462609  1.0000
  C   C8        1.0  0.7335469041807414  0.37632154483598157  0.5393608740184348  1.0000
  C   C9        1.0  0.2803515018840201  0.9180374650211363  0.8627818368043731  1.0000
  C   C10       1.0  0.21965090870125437  0.5819667455272537  0.36278251963127417  1.0000
  C   C11       1.0  0.7196492545947706  0.0819664398482374  0.1372174803687258  1.0000
  C   C12       1.0  0.7803472510493277  0.4180346892086177  0.6372174803687258  1.0000
  C   C13       1.0  0.12332756048547817  0.0057027148679438  0.8375971321270086  1.0000
  C   C14       1.0  0.37667463165166737  0.49429923756674304  0.3375964493001007  1.0000
  C   C15       1.0  0.8766737051736442  0.9942970731122643  0.1624021850460906  1.0000
  C   C16       1.0  0.6233193784164541  0.5057005504134651  0.6624021850460904  1.0000
  N   N1        1.0  0.15484529550216314  0.034719373063318  0.7391744622738159  1.0000
  N   N2        1.0  0.3451530078959948  0.4652817559935301  0.239173779446908  1.0000
  N   N3        1.0  0.8451557092134719  0.9652795915390513  0.2608255377261841  1.0000
  N   N4        1.0  0.654840219341672  0.5347155618531758  0.7608255377261839  1.0000
  O   O1        1.0  0.4693655659554778  0.652145708325321  0.1302014339364987  1.0000
  O   O2        1.0  0.030634757081927  0.8478519152004083  0.630204848071017  1.0000
  O   O3        1.0  0.5306196101541047  0.3478433757430608  0.8697978832366005  1.0000
  O   O4        1.0  0.9693851821483007  0.1521552831802921  0.3697972004096997  1.0000
  O   O5        1.0  0.016734136492971254  0.6788560852118479  0.1128487538409004  1.0000
  O   O6        1.0  0.48326308063590057  0.8211431850695449  0.6128473881870917  1.0000
  O   O7        1.0  0.983257537790429  0.3211420560126967  0.8871519289860004  1.0000
  O   O8        1.0  0.5167410426949034  0.1788598964219901  0.3871505633321988  1.0000
  O   O9        1.0  0.339671709720939  0.8402496676728717  0.15872789347900346  1.0000
  O   O10       1.0  0.16032706036219932  0.6597487792306894  0.6587272106521027  1.0000
  O   O11       1.0  0.6603318790162618  0.1597460034181779  0.841274155001706  1.0000
  O   O12       1.0  0.8396809517075923  0.3402551256386772  0.3412734721748051  1.0000
  O   O13       1.0  0.3377866337649635  0.5554902079451622  0.9537275520655513  1.0000
  O   O14       1.0  0.16222043568311048  0.9445115324697325  0.4537296005462607  1.0000
  O   O15       1.0  0.6622047795749566  0.4445071099015507  0.0462676681461218  1.0000
  O   O16       1.0  0.8377963849319485  0.0554915490218093  0.5462703994537392  1.0000
  O   O17       1.0  0.9433106875840025  0.6354871280180419  0.908122908842607  1.0000
  O   O18       1.0  0.5566930311557456  0.8645154357746847  0.4081256401502244  1.0000
  O   O19       1.0  0.05668409260793792  0.3645093664508323  0.09187777398429378  1.0000
  O   O20       1.0  0.4433131797229207  0.1354942327395179  0.5918750426766834  1.0000
  O   O21       1.0  0.3420547086562351  0.67654321688034  0.8155506998975781  1.0000
  O   O22       1.0  0.1579487329963385  0.8234585235345548  0.3155541140320963  1.0000
  O   O23       1.0  0.657930753810092  0.3234582178555385  0.18444793444862026  1.0000
  O   O24       1.0  0.8420600491972648  0.1765420878234849  0.6844493001024218  1.0000
  O   O25       1.0  0.608500243355067  0.785863915080121  0.9703625810856946  1.0000
  O   O26       1.0  0.8915091653147798  0.7141337084456083  0.470361898258794  1.0000
  O   O27       1.0  0.39150671223415395  0.2141309326330898  0.0296374189143052  1.0000
  O   O28       1.0  0.1084913302205237  0.2858693730459265  0.5296367360874044  1.0000
