data_image0
_chemical_formula_structural       Cd8H112C136N24O32
_chemical_formula_sum              "Cd8 H112 C136 N24 O32"
_cell_length_a       10.282370413006856
_cell_length_b       15.28514343400057
_cell_length_c       25.31460263501751
_cell_angle_alpha    89.99996951411636
_cell_angle_beta     90.00013182829234
_cell_angle_gamma    90.00000439560905

_space_group_name_H-M_alt    "P 1"
_space_group_IT_number       1

loop_
  _space_group_symop_operation_xyz
  'x, y, z'

loop_
  _atom_site_type_symbol
  _atom_site_label
  _atom_site_symmetry_multiplicity
  _atom_site_fract_x
  _atom_site_fract_y
  _atom_site_fract_z
  _atom_site_occupancy
  Cd  Cd1       1.0  0.9137120616602201  0.5004779166499632  0.5348327594982789  1.0000
  Cd  Cd2       1.0  0.5862842043252812  0.4995209885614713  0.03483305321022809  1.0000
  Cd  Cd3       1.0  0.4137153225206164  0.9995206854622509  0.46516751466132417  1.0000
  Cd  Cd4       1.0  0.08628730319005477  0.0004771701023429  0.9651670766657501  1.0000
  Cd  Cd5       1.0  0.6710333644682009  0.5074317564675326  0.45694281836694717  1.0000
  Cd  Cd6       1.0  0.8289691746430987  0.49256809013675723  0.9569416577039858  1.0000
  Cd  Cd7       1.0  0.17103025634703778  0.9925661811259378  0.5430584133119465  1.0000
  Cd  Cd8       1.0  0.32896804131354423  0.007431387276049901  0.0430571196245992  1.0000
  H   H1        1.0  0.7843264775310599  0.3470323391503528  0.1766434158131034  1.0000
  H   H2        1.0  0.7156764242582908  0.6529716765831637  0.6766424917307461  1.0000
  H   H3        1.0  0.284320043472384  0.15296844482899274  0.8233572947950233  1.0000
  H   H4        1.0  0.21567789150827107  0.8470301882844281  0.3233560166099209  1.0000
  H   H5        1.0  0.1026587538260344  0.16311517446177962  0.17986024161908173  1.0000
  H   H6        1.0  0.39734517883327664  0.8368829292060768  0.679861403170399  1.0000
  H   H7        1.0  0.6026503410798012  0.3368823306662706  0.8201391135485135  1.0000
  H   H8        1.0  0.8973378101888371  0.663124177202235  0.32013964569311065  1.0000
  H   H9        1.0  0.07845774694555269  0.5021266223752862  0.3882612342041725  1.0000
  H   H10       1.0  0.42154541713909305  0.4978719542970183  0.8882613437115906  1.0000
  H   H11       1.0  0.5784559596418504  0.9978706570638993  0.6117391206076377  1.0000
  H   H12       1.0  0.9215436581232479  0.0021275270399101  0.11173870551399998  1.0000
  H   H13       1.0  0.15774392713638005  0.39998168875295903  0.38632959661063637  1.0000
  H   H14       1.0  0.34225922603985026  0.6000181980597433  0.8863284134343201  1.0000
  H   H15       1.0  0.6577372345728777  0.10001974409011892  0.6136709952983209  1.0000
  H   H16       1.0  0.8422614215612964  0.899979746793605  0.11367100366433647  1.0000
  H   H17       1.0  0.9386396997532956  0.24430258781906394  0.03129814619695279  1.0000
  H   H18       1.0  0.5613643265805521  0.7557041712275065  0.5312966489442984  1.0000
  H   H19       1.0  0.4386360451090638  0.2557001653925397  0.9687023140857814  1.0000
  H   H20       1.0  0.06136368294258429  0.7443003040181753  0.4687021097223861  1.0000
  H   H21       1.0  0.8755578010133076  0.33597644368637714  0.3237269462978744  1.0000
  H   H22       1.0  0.6244381508168927  0.6640241729919296  0.82372751318033  1.0000
  H   H23       1.0  0.3755534557130744  0.16402368993043848  0.6762742448896545  1.0000
  H   H24       1.0  0.1244446214645336  0.8359763795469064  0.17627288475154754  1.0000
  H   H25       1.0  0.9439651583803224  0.5094004033454382  0.3122738768280441  1.0000
  H   H26       1.0  0.5560365640220084  0.49059956906273783  0.8122740409876382  1.0000
  H   H27       1.0  0.4439638392433166  0.9906014711994119  0.6877264256978035  1.0000
  H   H28       1.0  0.0560362476648493  0.009399242548902002  0.1877256654939146  1.0000
  H   H29       1.0  0.33601190287131283  0.4142773128433391  0.2950053132960305  1.0000
  H   H30       1.0  0.16399170728823254  0.5857219991542024  0.7950063377814087  1.0000
  H   H31       1.0  0.836007669020482  0.08572412755791703  0.7049938656637946  1.0000
  H   H32       1.0  0.6639895575900637  0.9142805177515642  0.20499370220733934  1.0000
  H   H33       1.0  0.16999772803906407  0.1346351694347021  0.3278677363685246  1.0000
  H   H34       1.0  0.3300002324093825  0.8653654224458694  0.8278680354433802  1.0000
  H   H35       1.0  0.6699943187921774  0.3653623385480316  0.6721320769754083  1.0000
  H   H36       1.0  0.8300027223010316  0.6346364472676742  0.17213216021710304  1.0000
  H   H37       1.0  0.022555488250809195  0.24301354333776007  0.4726129593657474  1.0000
  H   H38       1.0  0.4774423168042858  0.7569882311318212  0.9726138270063059  1.0000
  H   H39       1.0  0.522551247297251  0.25698853800410154  0.5273879008043136  1.0000
  H   H40       1.0  0.9774459491938997  0.7430110279120257  0.027386901943387394  1.0000
  H   H41       1.0  0.25177858688574156  0.6366010090738  0.35324316539736594  1.0000
  H   H42       1.0  0.2482302147437281  0.363396289589538  0.8532451312977825  1.0000
  H   H43       1.0  0.7517672538087793  0.8633995488641235  0.6467549817623064  1.0000
  H   H44       1.0  0.7482276989444402  0.13660187593965392  0.14675515043551704  1.0000
  H   H45       1.0  0.4997429289636557  0.6613145361526308  0.394498122321913  1.0000
  H   H46       1.0  0.00026221541312309996  0.3386833808651773  0.8945002587727442  1.0000
  H   H47       1.0  0.9997333047375675  0.8386840696080142  0.6054986772442489  1.0000
  H   H48       1.0  0.5002594700300022  0.16131411992220282  0.10549860534934648  1.0000
  H   H49       1.0  0.917214242592962  0.5072218590435044  0.21499206900988804  1.0000
  H   H50       1.0  0.5827879031539992  0.49277819796118666  0.714992257545404  1.0000
  H   H51       1.0  0.41721444547972186  0.9927787059074049  0.785007813403112  1.0000
  H   H52       1.0  0.08278716315827947  0.007220614784714003  0.28500707899229377  1.0000
  H   H53       1.0  0.08966647175902408  0.3942860745707648  0.12416625633486686  1.0000
  H   H54       1.0  0.410333256332862  0.6057153486787998  0.6241675053138066  1.0000
  H   H55       1.0  0.5896680677408385  0.10571600961698384  0.875833086653557  1.0000
  H   H56       1.0  0.9103349860174529  0.8942858702099559  0.3758335557341112  1.0000
  H   H57       1.0  0.0078419736087625  0.49548826152561537  0.12868770245520977  1.0000
  H   H58       1.0  0.4921577800020741  0.5045131577930705  0.628686690930806  1.0000
  H   H59       1.0  0.5078425579301962  0.004514473422453601  0.8713135389487688  1.0000
  H   H60       1.0  0.9921594977719578  0.9954887187952582  0.371312866729795  1.0000
  H   H61       1.0  0.34525033270774935  0.3319064346949433  0.3988687034084179  1.0000
  H   H62       1.0  0.15474705602469643  0.6680947496739336  0.8988669272130776  1.0000
  H   H63       1.0  0.845252331354132  0.1680969687871894  0.6011328543905633  1.0000
  H   H64       1.0  0.6547511166878478  0.8319038414601537  0.10113231405250639  1.0000
  H   H65       1.0  0.48328476292031297  0.35628368629716084  0.4376072746605855  1.0000
  H   H66       1.0  0.016713817046607498  0.6437148474641319  0.9376061670213571  1.0000
  H   H67       1.0  0.9832845945172436  0.1437197230370586  0.562393622517142  1.0000
  H   H68       1.0  0.5167176622866876  0.8562804666681815  0.06239254977926119  1.0000
  H   H69       1.0  0.3090295245466876  0.41122275425738064  0.1983113085367093  1.0000
  H   H70       1.0  0.19097256719690134  0.5887772960558524  0.6983115672710623  1.0000
  H   H71       1.0  0.8090287545992397  0.08877933922975963  0.801688635180561  1.0000
  H   H72       1.0  0.6909709629667304  0.9112239135338316  0.3016881029897219  1.0000
  H   H73       1.0  0.34352051477420525  0.4006790466693886  0.5133855985745867  1.0000
  H   H74       1.0  0.15648150552573267  0.5993231271464979  0.013384345508121998  1.0000
  H   H75       1.0  0.8435169949914538  0.09932370250942311  0.4866155625709111  1.0000
  H   H76       1.0  0.6564847390993265  0.9006761182907969  0.9866156874412152  1.0000
  H   H77       1.0  0.3023081621021575  0.2931118600915426  0.49266356499040836  1.0000
  H   H78       1.0  0.19769170121473678  0.7068898969433306  0.9926614214071561  1.0000
  H   H79       1.0  0.8023057463013927  0.2068902331097604  0.5073383475679093  1.0000
  H   H80       1.0  0.6976961996944412  0.7931086960115223  0.007337465099752198  1.0000
  H   H81       1.0  0.19985995347987282  0.3822343524692259  0.4757538947374512  1.0000
  H   H82       1.0  0.3001407869162945  0.6177674192699598  0.9757526662898497  1.0000
  H   H83       1.0  0.6998605387784307  0.11776904484889171  0.5242483167832787  1.0000
  H   H84       1.0  0.8001434477578613  0.8822311780275315  0.0242475013714625  1.0000
  H   H85       1.0  0.1181732356072942  0.37689145005866465  0.024840992326538493  1.0000
  H   H86       1.0  0.381826904295366  0.6231126764842473  0.5248429989696887  1.0000
  H   H87       1.0  0.6181744221164678  0.12311128956797295  0.9751575873351112  1.0000
  H   H88       1.0  0.8818291923662757  0.8768905038863223  0.47515764031829366  1.0000
  H   H89       1.0  0.21794103430067222  0.28598488678424167  0.008450119149358698  1.0000
  H   H90       1.0  0.28206193068055535  0.7140185997827972  0.508450817562533  1.0000
  H   H91       1.0  0.7179413530239883  0.21401785707173102  0.9915489490950262  1.0000
  H   H92       1.0  0.7820652716126941  0.7859832678981322  0.4915501232034884  1.0000
  H   H93       1.0  0.25976975750671016  0.392107771944012  0.9853167291370821  1.0000
  H   H94       1.0  0.2402310368835145  0.6078966083982495  0.4853183170168335  1.0000
  H   H95       1.0  0.7597703824043548  0.10789497368506325  0.014682773359972097  1.0000
  H   H96       1.0  0.7402345226719759  0.8921052575091509  0.5146829795525178  1.0000
  H   H97       1.0  0.2676642683354871  0.3279412743618195  0.10083870810043287  1.0000
  H   H98       1.0  0.23233338298613396  0.6720627860936403  0.600839768570445  1.0000
  H   H99       1.0  0.7676679500047002  0.17206016314192144  0.8991608018011091  1.0000
  H   H100      1.0  0.7323381530622156  0.8279384252491085  0.39916112556491606  1.0000
  H   H101      1.0  0.4036736517576357  0.35098327656980643  0.061011952959361786  1.0000
  H   H102      1.0  0.09632669233904069  0.6490214727495883  0.5610121033342849  1.0000
  H   H103      1.0  0.9036756100932947  0.1490181666994914  0.9389884745378719  1.0000
  H   H104      1.0  0.5963297452775292  0.8509790785972559  0.43898866326423297  1.0000
  H   H105      1.0  0.18225123038183  0.634257645957547  0.14542237154884669  1.0000
  H   H106      1.0  0.31774472755112265  0.36574441303829264  0.6454220317033688  1.0000
  H   H107      1.0  0.6822507962366159  0.8657442174926474  0.8545768955052961  1.0000
  H   H108      1.0  0.8177443572165047  0.13425637235824442  0.3545779201867204  1.0000
  H   H109      1.0  0.4172941643719524  0.6598256377147393  0.09348526099757488  1.0000
  H   H110      1.0  0.08270344543198857  0.3401777749059607  0.5934847090707577  1.0000
  H   H111      1.0  0.9172920749204321  0.8401749272395096  0.9065146214892933  1.0000
  H   H112      1.0  0.5826994815847825  0.1598223462963659  0.4065146273860164  1.0000
  C   C1        1.0  0.17578366315281355  0.11429183939326748  0.4361258114409238  1.0000
  C   C2        1.0  0.32421588099523285  0.8857066956553796  0.9361268885272691  1.0000
  C   C3        1.0  0.6757796454788049  0.38570566883508656  0.5638732172704832  1.0000
  C   C4        1.0  0.824214839376239  0.6142925568923657  0.0638740917657117  1.0000
  C   C5        1.0  0.025229893745326103  0.19389672977780495  0.1026387630120951  1.0000
  C   C6        1.0  0.47476971281320596  0.8061047121924646  0.6026392171290879  1.0000
  C   C7        1.0  0.5252267754992771  0.30610338898802775  0.8973605195510002  1.0000
  C   C8        1.0  0.9747725096353645  0.6938971636585695  0.3973607192558076  1.0000
  C   C9        1.0  0.8555102345228532  0.3042097465538804  0.10037443357667537  1.0000
  C   C10       1.0  0.6444941817727426  0.6957962981938695  0.600372638747551  1.0000
  C   C11       1.0  0.35550423678823506  0.19579234890329644  0.8996263437818467  1.0000
  C   C12       1.0  0.1444931562236675  0.8042075263462892  0.39962540781372263  1.0000
  C   C13       1.0  0.8733115418454033  0.3688985611440714  0.43082599410008965  1.0000
  C   C14       1.0  0.6266889047542603  0.6310999997105925  0.9308265738076285  1.0000
  C   C15       1.0  0.37330464242415207  0.13110157237797176  0.569174009893139  1.0000
  C   C16       1.0  0.1266889399794096  0.8688985902335773  0.06917343120321108  1.0000
  C   C17       1.0  0.9441492048036082  0.2983699603215726  0.4011423810691283  1.0000
  C   C18       1.0  0.5558501016828784  0.7016279721158512  0.9011432664219539  1.0000
  C   C19       1.0  0.4441405373618608  0.20163017620333792  0.598858084378051  1.0000
  C   C20       1.0  0.05585126754304069  0.7983706148248829  0.09885746222031597  1.0000
  C   C21       1.0  0.09963868283465867  0.1788911801997131  0.4038297812917618  1.0000
  C   C22       1.0  0.4003587339085612  0.8211054202441233  0.9038293706917385  1.0000
  C   C23       1.0  0.5996358113467435  0.3211056705695228  0.5961715461911294  1.0000
  C   C24       1.0  0.900359828376878  0.6788931813022927  0.09617010088734189  1.0000
  C   C25       1.0  0.020758777949715996  0.23340427890003212  0.3198359224318209  1.0000
  C   C26       1.0  0.4792381646134203  0.7665930488154162  0.8198348134850871  1.0000
  C   C27       1.0  0.5207554007757408  0.2665938769850982  0.6801657261122998  1.0000
  C   C28       1.0  0.9792416856676096  0.7334062103050771  0.18016473206181155  1.0000
  C   C29       1.0  0.8530800169140064  0.305508369140597  0.15555167597487699  1.0000
  C   C30       1.0  0.6469247108819117  0.6944956649342516  0.6555510689345352  1.0000
  C   C31       1.0  0.35307370750649625  0.19449176352359393  0.8444487040760433  1.0000
  C   C32       1.0  0.14692240146772656  0.8055088139386157  0.3444477699630183  1.0000
  C   C33       1.0  0.9434717025356961  0.25548723824968533  0.18409296059875396  1.0000
  C   C34       1.0  0.5565322138491452  0.744513499855245  0.684092647543359  1.0000
  C   C35       1.0  0.44346523872358995  0.24451158978663304  0.8159071091854456  1.0000
  C   C36       1.0  0.05653070912421039  0.7554890124951044  0.3159068966498991  1.0000
  C   C37       1.0  0.03192597576290979  0.20083743258219763  0.15744942193832395  1.0000
  C   C38       1.0  0.46807685783829095  0.799162653264574  0.6574498720372333  1.0000
  C   C39       1.0  0.5319196295423083  0.299162032237227  0.842550261931322  1.0000
  C   C40       1.0  0.9680754560135013  0.7008398765324985  0.34255045309848237  1.0000
  C   C41       1.0  0.15882145695065467  0.4662159452908271  0.3696163079923521  1.0000
  C   C42       1.0  0.3411816018758529  0.5337826475951886  0.8696163304520252  1.0000
  C   C43       1.0  0.6588167949157223  0.0337828706776406  0.6303846799573163  1.0000
  C   C44       1.0  0.8411800104934526  0.9662152972122159  0.1303834806632551  1.0000
  C   C45       1.0  0.9394810667934194  0.24713342255983414  0.0742144824313229  1.0000
  C   C46       1.0  0.560523201818711  0.7528719907066731  0.5742125902825704  1.0000
  C   C47       1.0  0.43947619695074286  0.2528680222273324  0.9257859786400214  1.0000
  C   C48       1.0  0.060521343744674994  0.7471331387335313  0.42578577256578126  1.0000
  C   C49       1.0  0.9390052938483536  0.2929182851693498  0.3462207195033286  1.0000
  C   C50       1.0  0.5609907849643463  0.7070810034887814  0.8462200277877655  1.0000
  C   C51       1.0  0.4390008273492824  0.20708054267715428  0.6537805311803166  1.0000
  C   C52       1.0  0.06099226015270179  0.7929202005903876  0.15377991561690857  1.0000
  C   C53       1.0  0.1419934576394724  0.46299912159447143  0.31035485292989046  1.0000
  C   C54       1.0  0.35801023917019137  0.5369982143655535  0.8103544950940103  1.0000
  C   C55       1.0  0.6419891305888328  0.037001656351066  0.689645329181843  1.0000
  C   C56       1.0  0.8580099544479506  0.9629984226955772  0.18964454174481196  1.0000
  C   C57       1.0  0.0243055506310199  0.48791286329269923  0.28726337849867883  1.0000
  C   C58       1.0  0.4756980158199084  0.5120877638977037  0.7872635341588959  1.0000
  C   C59       1.0  0.5243032956688154  0.012089218123733802  0.7127366932555572  1.0000
  C   C60       1.0  0.9756968922675354  0.9879108408424033  0.21273640309518527  1.0000
  C   C61       1.0  0.24345829404720118  0.43433208606020207  0.2776800885051002  1.0000
  C   C62       1.0  0.2565452183014684  0.5656652783137518  0.7776800212212506  1.0000
  C   C63       1.0  0.7434551278477525  0.0656680419571316  0.7223193986950206  1.0000
  C   C64       1.0  0.7565451141852505  0.9343346255962716  0.22231852544247488  1.0000
  C   C65       1.0  0.10396632287500297  0.17851502201509112  0.3486398987077947  1.0000
  C   C66       1.0  0.3960288372220261  0.8214842433422974  0.8486390888968101  1.0000
  C   C67       1.0  0.6039637630061987  0.32148313739769924  0.6513614328331484  1.0000
  C   C68       1.0  0.8960331608254465  0.6785163207107416  0.151360378623238  1.0000
  C   C69       1.0  0.38205609243479444  0.4676388822318671  0.41130855412107786  1.0000
  C   C70       1.0  0.11794622921956231  0.5323603286289186  0.9113075776541492  1.0000
  C   C71       1.0  0.8820531399172324  0.03236386858061731  0.5886926431602502  1.0000
  C   C72       1.0  0.6179453752015434  0.9676362982548172  0.08869162910058749  1.0000
  C   C73       1.0  0.11102655033890577  0.4594375406728375  0.19979296131232616  1.0000
  C   C74       1.0  0.3889765223091786  0.5405611998916272  0.699793816441641  1.0000
  C   C75       1.0  0.6110247930076439  0.040563235960121305  0.8002067967334197  1.0000
  C   C76       1.0  0.8889758887315081  0.9594380554019113  0.3002064345210299  1.0000
  C   C77       1.0  0.0217160664035418  0.2399354096214807  0.42974363161336265  1.0000
  C   C78       1.0  0.4782844142524069  0.760063130977237  0.9297444990409003  1.0000
  C   C79       1.0  0.521706232647233  0.26006340053447735  0.5702572277674632  1.0000
  C   C80       1.0  0.9782873157032553  0.7399348196423859  0.0702558356693999  1.0000
  C   C81       1.0  0.3160255023178635  0.592624312198396  0.3743551279841952  1.0000
  C   C82       1.0  0.18397855579922856  0.4073742765667916  0.8743550441774272  1.0000
  C   C83       1.0  0.816024753894453  0.9073775569226329  0.6256450545703911  1.0000
  C   C84       1.0  0.6839759149129351  0.09262323200882615  0.12564438724805166  1.0000
  C   C85       1.0  0.43819972379773003  0.6037069627891114  0.39476988273570146  1.0000
  C   C86       1.0  0.0618073671878605  0.3962902997627041  0.8947712680885045  1.0000
  C   C87       1.0  0.9381930233965434  0.8962949115125839  0.6052272541499446  1.0000
  C   C88       1.0  0.5618036399949418  0.1037058951735261  0.10522804877435019  1.0000
  C   C89       1.0  0.009047240874060898  0.4862360952207326  0.2324246676483099  1.0000
  C   C90       1.0  0.49095601598988736  0.513765233887753  0.7324244420415764  1.0000
  C   C91       1.0  0.5090462682649174  0.013766639778403103  0.7675765748851401  1.0000
  C   C92       1.0  0.990954229261895  0.9862346799592603  0.2675755095197018  1.0000
  C   C93       1.0  0.09689248201484449  0.4607545313133983  0.14029527948417805  1.0000
  C   C94       1.0  0.40310830966672734  0.5392462236808201  0.6402953582367414  1.0000
  C   C95       1.0  0.5968930054743778  0.0392468989499406  0.8597056503954831  1.0000
  C   C96       1.0  0.9031089846964161  0.9607549949019686  0.3597049059778782  1.0000
  C   C97       1.0  0.38174687271483515  0.37525766692780144  0.4303319764470784  1.0000
  C   C98       1.0  0.11825361125515602  0.6247428358505617  0.9303301801407711  1.0000
  C   C99       1.0  0.8817457702959287  0.1247457381016517  0.5696692205450515  1.0000
  C   C100      1.0  0.6182565275829218  0.8752537910464612  0.06966863187505368  1.0000
  C   C101      1.0  0.2281202368299233  0.432521854951034  0.22308827071063317  1.0000
  C   C102      1.0  0.2718819947894886  0.5674775195860208  0.7230886122483253  1.0000
  C   C103      1.0  0.7281183516054881  0.06747958087600381  0.7769115971359922  1.0000
  C   C104      1.0  0.771881226085817  0.9325250018936445  0.27691152891191  1.0000
  C   C105      1.0  0.3017080774925418  0.3622921122909802  0.48094778590348125  1.0000
  C   C106      1.0  0.19829269222377377  0.6377096549318041  0.9809460604307102  1.0000
  C   C107      1.0  0.8017066910699809  0.1377106351152904  0.5190533360346733  1.0000
  C   C108      1.0  0.6982962936021123  0.8622882838182946  0.019053221668357895  1.0000
  C   C109      1.0  0.10472023087825728  0.12781296806248582  0.07288128290760197  1.0000
  C   C110      1.0  0.3952753175361464  0.8721898082446559  0.5728824310301376  1.0000
  C   C111      1.0  0.6047182620420911  0.37218780830381354  0.9271168891088234  1.0000
  C   C112      1.0  0.89528119107883  0.6278140269266714  0.4271170357835101  1.0000
  C   C113      1.0  0.7744276763736906  0.3656988776763228  0.06800769144297898  1.0000
  C   C114      1.0  0.7255794748199376  0.6343058867567066  0.5680079678075741  1.0000
  C   C115      1.0  0.27442088055559566  0.13430321434395862  0.931991824795723  1.0000
  C   C116      1.0  0.22557961279181168  0.8656953242997931  0.4319925249634337  1.0000
  C   C117      1.0  0.30373763021407285  0.4634624173525027  0.08620367173291749  1.0000
  C   C118      1.0  0.19626285609775349  0.5365410016003194  0.5862031623746587  1.0000
  C   C119      1.0  0.8037384586750773  0.03653836745024822  0.9137962670230022  1.0000
  C   C120      1.0  0.6962648094026987  0.9634602082131996  0.41379769793534377  1.0000
  C   C121      1.0  0.21928317142067746  0.35574281451979334  0.018883217086354896  1.0000
  C   C122      1.0  0.28071693484665866  0.6442619714342684  0.5188847270037371  1.0000
  C   C123      1.0  0.7192853669449517  0.14425992939328586  0.9811154573885401  1.0000
  C   C124      1.0  0.7807202262520859  0.8557405504195118  0.48111660752984864  1.0000
  C   C125      1.0  0.30236240501397293  0.3703242737894143  0.06861304868368727  1.0000
  C   C126      1.0  0.19763895453249342  0.629679814689986  0.5686133003563114  1.0000
  C   C127      1.0  0.8023633452991347  0.12967651095504354  0.931386888782711  1.0000
  C   C128      1.0  0.6976409946185528  0.8703213951822165  0.43138677118629676  1.0000
  C   C129      1.0  0.24252034023318456  0.5898531015789744  0.12277342422045477  1.0000
  C   C130      1.0  0.2574754898408002  0.41014963134200155  0.6227741984921804  1.0000
  C   C131      1.0  0.7425180948426726  0.9101468017359194  0.8772262943775997  1.0000
  C   C132      1.0  0.7574752413981682  0.0898524599588981  0.3772272769977646  1.0000
  C   C133      1.0  0.35858105574421006  0.6012445685899196  0.09725697907921928  1.0000
  C   C134      1.0  0.14141657535381572  0.3987594949807304  0.5972568581692952  1.0000
  C   C135      1.0  0.8585808979533309  0.8987546854147086  0.9027440334390772  1.0000
  C   C136      1.0  0.6414174450343567  0.10124193717015831  0.4027441134616437  1.0000
  N   N1        1.0  0.2814955517528474  0.5069764352610308  0.38528162550902306  1.0000
  N   N2        1.0  0.21850759550913065  0.4930227982326374  0.8852811511735081  1.0000
  N   N3        1.0  0.7814908630061337  0.9930234697054277  0.6147197097513624  1.0000
  N   N4        1.0  0.7185068265072018  0.006976020266741001  0.11471870766010278  1.0000
  N   N5        1.0  0.9369723859185367  0.2636199475676619  0.23968458530816852  1.0000
  N   N6        1.0  0.5630279541489784  0.7363774710443637  0.7396842809934013  1.0000
  N   N7        1.0  0.43696755225470696  0.23637757173290908  0.7603158734113862  1.0000
  N   N8        1.0  0.06303099937291987  0.7636230788913352  0.26031526929349263  1.0000
  N   N9        1.0  0.4780651044540747  0.5259719945617859  0.417657099327016  1.0000
  N   N10       1.0  0.02194114319809159  0.4740265565476707  0.9176576319358034  1.0000
  N   N11       1.0  0.9780592578364632  0.9740292271992389  0.5823416550573411  1.0000
  N   N12       1.0  0.521939221431296  0.025970290928555104  0.08234164754445318  1.0000
  N   N13       1.0  0.027588757697820692  0.22517670622038113  0.26427392506147374  1.0000
  N   N14       1.0  0.47241078881238957  0.7748206698118026  0.7642732020621562  1.0000
  N   N15       1.0  0.5275827776814735  0.2748214499545796  0.7357269398282043  1.0000
  N   N16       1.0  0.9724136498893969  0.7251792432492794  0.2357263370821698  1.0000
  N   N17       1.0  0.2084707714192645  0.5030969669956846  0.11522797507976887  1.0000
  N   N18       1.0  0.29152696113450105  0.4969057724868763  0.6152287530418761  1.0000
  N   N19       1.0  0.7084714979013426  0.996903589105827  0.8847717115906234  1.0000
  N   N20       1.0  0.7915277161646656  0.0030963202579599  0.3847719643214376  1.0000
  N   N21       1.0  0.3954683955150813  0.5226754767567954  0.07470204323005449  1.0000
  N   N22       1.0  0.1045310533269728  0.4773279521978823  0.574701467127646  1.0000
  N   N23       1.0  0.8954683756158416  0.977324433041666  0.9252990038781801  1.0000
  N   N24       1.0  0.6045330123198269  0.022673478389315  0.4252994699155223  1.0000
  O   O1        1.0  0.1279767196676787  0.096760416360361  0.4812914228192397  1.0000
  O   O2        1.0  0.37202794215180995  0.9032321913415443  0.9812933290897374  1.0000
  O   O3        1.0  0.6279695317557169  0.40323251023110646  0.5187071660330034  1.0000
  O   O4        1.0  0.8720227530403974  0.5967651005430955  0.0187073010070122  1.0000
  O   O5        1.0  0.27826483588110307  0.0829640450893621  0.4154532114350714  1.0000
  O   O6        1.0  0.22174334440517632  0.9170364706269184  0.915453392171386  1.0000
  O   O7        1.0  0.7782551038936844  0.417034121713293  0.5845463084010729  1.0000
  O   O8        1.0  0.7217385251316485  0.5829660487267534  0.0845474920287828  1.0000
  O   O9        1.0  0.7774999152702049  0.4056702226237475  0.40809558442374066  1.0000
  O   O10       1.0  0.7225033206251935  0.5943296664570923  0.9080970560039673  1.0000
  O   O11       1.0  0.2774921666878355  0.094329906836812  0.5919035396668091  1.0000
  O   O12       1.0  0.22250251657248302  0.9056695817788527  0.09190343388235077  1.0000
  O   O13       1.0  0.9189849920373728  0.38633835250058013  0.47633531877158913  1.0000
  O   O14       1.0  0.5810186290976062  0.6136614772388855  0.97633665138607  1.0000
  O   O15       1.0  0.4189797784278965  0.11366374564840241  0.5236635429642573  1.0000
  O   O16       1.0  0.08101840974543961  0.8863377649990201  0.023663705827544793  1.0000
  O   O17       1.0  0.045056835137032195  0.09139919363011732  0.03463890667604369  1.0000
  O   O18       1.0  0.45493460723084667  0.9086049243926695  0.5346400988911526  1.0000
  O   O19       1.0  0.5450570321693461  0.40860223443623067  0.9653607895094108  1.0000
  O   O20       1.0  0.9549416643150437  0.5913982590771313  0.465361003982508  1.0000
  O   O21       1.0  0.21992328201930178  0.11313596697595334  0.08854700097287348  1.0000
  O   O22       1.0  0.280074299917274  0.8868654872472206  0.5885504064644776  1.0000
  O   O23       1.0  0.719917336562439  0.3868667769644318  0.9114508840406186  1.0000
  O   O24       1.0  0.7800771654289774  0.6131370345787917  0.41145211255302877  1.0000
  O   O25       1.0  0.8301812426211225  0.39470287719828445  0.026661221468756897  1.0000
  O   O26       1.0  0.6698237300731334  0.6053032316506517  0.5266594798472325  1.0000
  O   O27       1.0  0.3301766214030835  0.10529856295492122  0.9733399271679414  1.0000
  O   O28       1.0  0.1698270229874907  0.8946960143519292  0.4733413556712306  1.0000
  O   O29       1.0  0.6608391292087887  0.38453087992315466  0.08421369633845188  1.0000
  O   O30       1.0  0.8391613057043018  0.6154705992668712  0.5842136903156145  1.0000
  O   O31       1.0  0.160836129523581  0.11547055305173612  0.9157857133879259  1.0000
  O   O32       1.0  0.3391632997915082  0.884529308145595  0.4157849338198145  1.0000
