data_image0
_chemical_formula_structural       Zn2H40C32N4O12
_chemical_formula_sum              "Zn2 H40 C32 N4 O12"
_cell_length_a       8.765640592001054
_cell_length_b       9.453846903563733
_cell_length_c       9.913240247400863
_cell_angle_alpha    104.59266951278632
_cell_angle_beta     89.9999881093021
_cell_angle_gamma    89.99994972662964

_space_group_name_H-M_alt    "P 1"
_space_group_IT_number       1

loop_
  _space_group_symop_operation_xyz
  'x, y, z'

loop_
  _atom_site_type_symbol
  _atom_site_label
  _atom_site_symmetry_multiplicity
  _atom_site_fract_x
  _atom_site_fract_y
  _atom_site_fract_z
  _atom_site_occupancy
  Zn  Zn1       1.0  0.9999993387823379  0.9999994062349489  0.9999989103256086  1.0000
  Zn  Zn2       1.0  0.5000008102089806  0.4999997100071739  0.5000004655499525  1.0000
  H   H1        1.0  0.5261104502532277  0.9712658136552291  0.8075171208507329  1.0000
  H   H2        1.0  0.0261152705244569  0.5287348449556647  0.6924847212801171  1.0000
  H   H3        1.0  0.47388660689164647  0.028735806158358912  0.19248634354125477  1.0000
  H   H4        1.0  0.973885209075938  0.471264554388533  0.3075131786578852  1.0000
  H   H5        1.0  0.3690898295482795  0.0865275189946004  0.8033941801183107  1.0000
  H   H6        1.0  0.8690919356140153  0.4134763329167654  0.6966088752378143  1.0000
  H   H7        1.0  0.6309095092313654  0.9134762868346372  0.19660979678963744  1.0000
  H   H8        1.0  0.13090854398637927  0.5865230664274392  0.30338902470018786  1.0000
  H   H9        1.0  0.44616582612518835  0.1659364387511815  0.03369482317248901  1.0000
  H   H10       1.0  0.9461668014674345  0.33406505406335185  0.46630698712800733  1.0000
  H   H11       1.0  0.5538346534736149  0.8340651741706112  0.9663076308314447  1.0000
  H   H12       1.0  0.053834818951322895  0.6659332591621947  0.5336916669389424  1.0000
  H   H13       1.0  0.5320738062164236  0.29641876660458166  0.9621956050074663  1.0000
  H   H14       1.0  0.0320762167159572  0.20358211605452686  0.5378068161438778  1.0000
  H   H15       1.0  0.4679266733823793  0.703582846317211  0.03780684899646762  1.0000
  H   H16       1.0  0.9679254037027999  0.7964161971710197  0.4621918379230652  1.0000
  H   H17       1.0  0.8830180734645336  0.17224603389202284  0.20573825152590794  1.0000
  H   H18       1.0  0.3830180229874145  0.32775442395776366  0.29426332773137187  1.0000
  H   H19       1.0  0.11698240613561237  0.8277533792326253  0.7942616691868524  1.0000
  H   H20       1.0  0.6169813157935735  0.6722471820743295  0.7057381158854101  1.0000
  H   H21       1.0  0.057780032299241696  0.17420508643421326  0.2658866678113725  1.0000
  H   H22       1.0  0.5577799306457862  0.32579457046406185  0.23411377466729996  1.0000
  H   H23       1.0  0.9422204473006061  0.8257954059183418  0.7341114883848407  1.0000
  H   H24       1.0  0.4422194081357488  0.6742059425596806  0.7658874126912708  1.0000
  H   H25       1.0  0.43549217120136763  0.3331933397264777  0.723619944543785  1.0000
  H   H26       1.0  0.9354933506053057  0.16680825135355087  0.7763805510070229  1.0000
  H   H27       1.0  0.5645094492154925  0.6668082663045708  0.27638149907254234  1.0000
  H   H28       1.0  0.06451055144889752  0.8331911479890836  0.2236173489302972  1.0000
  H   H29       1.0  0.7127380317538722  0.9430262447118379  0.6307154380165514  1.0000
  H   H30       1.0  0.21274050103043146  0.5569731631309126  0.8692880941112551  1.0000
  H   H31       1.0  0.2872601662105722  0.056972096076179896  0.3692872576005897  1.0000
  H   H32       1.0  0.787257696932876  0.4430284291212629  0.13071132873100313  1.0000
  H   H33       1.0  0.8131932157728908  0.022409028048116397  0.42171417413682394  1.0000
  H   H34       1.0  0.3131942164262611  0.47758932174541974  0.07828894125952252  1.0000
  H   H35       1.0  0.18680498219168126  0.9775893058496764  0.5782875110929384  1.0000
  H   H36       1.0  0.6868051223556503  0.5224111706076614  0.9217092149369182  1.0000
  H   H37       1.0  0.7147656222152249  0.25304935213326013  0.37724541703909154  1.0000
  H   H38       1.0  0.21476454873835849  0.2469501742504364  0.12275698353046494  1.0000
  H   H39       1.0  0.28523371656728347  0.7469489817640066  0.6227562681904432  1.0000
  H   H40       1.0  0.7852382124985837  0.7530481251941482  0.8772396497614993  1.0000
  C   C1        1.0  0.49391470491921297  0.08501278294513528  0.8145945181393729  1.0000
  C   C2        1.0  0.9939168122536302  0.41498985433315744  0.68540722072882  1.0000
  C   C3        1.0  0.5060846338611  0.9149899229855337  0.18540819212299214  1.0000
  C   C4        1.0  0.0060836673468926995  0.5850095381208291  0.3145896688218103  1.0000
  C   C5        1.0  0.5346749268463923  0.17931508646074693  0.9594048639300116  1.0000
  C   C6        1.0  0.03467608505168579  0.3206868799262139  0.5405968020537915  1.0000
  C   C7        1.0  0.4653255527518567  0.8206876194693891  0.0405978463321262  1.0000
  C   C8        1.0  0.965324394548716  0.6793125194179908  0.45940109788421785  1.0000
  C   C9        1.0  0.6861072276267207  0.1477775182959462  0.021019200415636898  1.0000
  C   C10       1.0  0.18610825026709676  0.3522231136564499  0.47898144708019436  1.0000
  C   C11       1.0  0.3138932519727575  0.8522229947272705  0.9789819869427064  1.0000
  C   C12       1.0  0.8138933701511134  0.6477762925774541  0.5210174632449595  1.0000
  C   C13       1.0  0.5197963770386663  0.2602461308716073  0.6609409867643806  1.0000
  C   C14       1.0  0.019797539840915597  0.2397547492926009  0.8390594185148076  1.0000
  C   C15       1.0  0.48020296174257737  0.7397554613800423  0.33905843607764313  1.0000
  C   C16       1.0  0.9802017989423959  0.7602424778158721  0.16093998968175782  1.0000
  C   C17       1.0  0.5652409164897847  0.1312560787218402  0.6942657372018033  1.0000
  C   C18       1.0  0.06524196527836067  0.3687458733504627  0.8057379373518361  1.0000
  C   C19       1.0  0.43475956310943786  0.8687444480818202  0.3057374709312981  1.0000
  C   C20       1.0  0.9347585143208121  0.6312557189006612  0.1942614854899674  1.0000
  C   C21       1.0  0.6740510418381758  0.0443427165113093  0.6080360656482144  1.0000
  C   C22       1.0  0.17405198759492888  0.45565695642023474  0.8919680633287116  1.0000
  C   C23       1.0  0.32594715612572134  0.9556567172850524  0.391966886227138  1.0000
  C   C24       1.0  0.8259462103689257  0.5443435428235902  0.10803110325533545  1.0000
  C   C25       1.0  0.7296111506095356  0.0870551727736029  0.49273741179338526  1.0000
  C   C26       1.0  0.22960994792340728  0.41294325384654945  0.007265736977572601  1.0000
  C   C27       1.0  0.270388188172852  0.9129431680138823  0.5072652838235286  1.0000
  C   C28       1.0  0.770389390858085  0.5870583246246568  0.9927316650897001  1.0000
  C   C29       1.0  0.676081633509554  0.2161545497097848  0.4668023287695178  1.0000
  C   C30       1.0  0.17608282835612948  0.2838471982464909  0.0332005997624449  1.0000
  C   C31       1.0  0.32391884609034344  0.7838448771953069  0.5331996127179937  1.0000
  C   C32       1.0  0.8239187920616543  0.7161532941055385  0.9667975564335409  1.0000
  N   N1        1.0  0.5737536365599352  0.3019836127739453  0.5498926956342987  1.0000
  N   N2        1.0  0.07375253043658599  0.19801722468596952  0.9501086984876895  1.0000
  N   N3        1.0  0.42624798385759977  0.6980168933585276  0.45010748133643846  1.0000
  N   N4        1.0  0.9262479491632617  0.8019832676665858  0.0498894577085238  1.0000
  O   O1        1.0  0.7703782433372339  0.04680185969948519  0.9507305537218333  1.0000
  O   O2        1.0  0.2703804148858708  0.4531987970286977  0.5492707618876411  1.0000
  O   O3        1.0  0.22962109544442902  0.9531986464340393  0.04926962324935864  1.0000
  O   O4        1.0  0.7296212055333056  0.5467984300787235  0.450728646308477  1.0000
  O   O5        1.0  0.7164791715939882  0.22626777977119167  0.14363360687766402  1.0000
  O   O6        1.0  0.21648029807263208  0.273731738146239  0.3563677826198558  1.0000
  O   O7        1.0  0.283521308005362  0.7737327401422504  0.8563685908680584  1.0000
  O   O8        1.0  0.7835213223455709  0.7262676680876653  0.6436311277052982  1.0000
  O   O9        1.0  0.9726259272272201  0.11107329277519541  0.21839594101687257  1.0000
  O   O10       1.0  0.47262468110476147  0.3889248898039312  0.28160407955658684  1.0000
  O   O11       1.0  0.027375693190990095  0.8889261134587088  0.7816029693082812  1.0000
  O   O12       1.0  0.5273746576769014  0.6110756163295931  0.7183960974146048  1.0000
