data_image0
_chemical_formula_structural       Zn4H32C36N12O20
_chemical_formula_sum              "Zn4 H32 C36 N12 O20"
_cell_length_a       7.197543301
_cell_length_b       10.699516750525067
_cell_length_c       14.804
_cell_angle_alpha    90.0
_cell_angle_beta     90.0
_cell_angle_gamma    100.90302175293898

_space_group_name_H-M_alt    "P 1"
_space_group_IT_number       1

loop_
  _space_group_symop_operation_xyz
  'x, y, z'

loop_
  _atom_site_type_symbol
  _atom_site_label
  _atom_site_symmetry_multiplicity
  _atom_site_fract_x
  _atom_site_fract_y
  _atom_site_fract_z
  _atom_site_occupancy
  Zn  Zn1       1.0  0.5134016375577987  0.9654936257448058  0.6928593623345021  1.0000
  Zn  Zn2       1.0  0.48660024068641416  0.534506805992983  0.1928573358551731  1.0000
  Zn  Zn3       1.0  0.4865988031119316  0.0345076138832781  0.3071419886517147  1.0000
  Zn  Zn4       1.0  0.5133982753701147  0.46549253002931584  0.8071406376654975  1.0000
  H   H1        1.0  0.6394717964954496  0.8518626373720153  0.5613381518508546  1.0000
  H   H2        1.0  0.3605303493738887  0.6481387461686694  0.06133477438530119  1.0000
  H   H3        1.0  0.36053307988825617  0.1481395540589645  0.4386665766009158  1.0000
  H   H4        1.0  0.6394673125699415  0.3518624934594214  0.9386645501215864  1.0000
  H   H5        1.0  0.5569263305716563  0.7386961288109789  0.6345109429883848  1.0000
  H   H6        1.0  0.44307501242229824  0.761302399321025  0.13450959200216056  1.0000
  H   H7        1.0  0.4430766211988485  0.261304159014216  0.3654910834909515  1.0000
  H   H8        1.0  0.5569240901217967  0.2386940812925928  0.8654917589840565  1.0000
  H   H9        1.0  0.893672405787669  0.2841883559690004  0.4337408808430183  1.0000
  H   H10       1.0  0.10634385615055923  0.2158108361407045  0.9337395298567939  1.0000
  H   H11       1.0  0.10632974310745884  0.7158090764475133  0.5662591191569815  1.0000
  H   H12       1.0  0.8936637989590467  0.7841913552902753  0.06625709267765247  1.0000
  H   H13       1.0  0.007160483222534726  0.5308214251915473  0.6670717373682817  1.0000
  H   H14       1.0  0.9928339129566697  0.9691771029404563  0.1670697108889456  1.0000
  H   H15       1.0  0.9928433226606687  0.4691769590278625  0.3329289381248302  1.0000
  H   H16       1.0  0.007166795338186201  0.0308250884905235  0.832927587138613  1.0000
  H   H17       1.0  0.6220658436958929  0.20072095307614293  0.5524385301269916  1.0000
  H   H18       1.0  0.3779334270244804  0.299282046245132  0.05243447716833319  1.0000
  H   H19       1.0  0.3779387650626874  0.7992802865519408  0.4475655228316667  1.0000
  H   H20       1.0  0.6220620426810229  0.7007163379742778  0.9475641718454497  1.0000
  H   H21       1.0  0.10921465807380323  0.3065728564049977  0.7167366927857299  1.0000
  H   H22       1.0  0.8908030957020261  0.1934168176757822  0.21674344771682993  1.0000
  H   H23       1.0  0.8908014356881538  0.6934198169970571  0.2832592542556043  1.0000
  H   H24       1.0  0.10919627446720176  0.8065806147407387  0.7832579032693869  1.0000
  H   H25       1.0  0.9242249995308927  0.9152308185748055  0.5818636854904113  1.0000
  H   H26       1.0  0.07577982258970202  0.5847800829948042  0.08186098351797  1.0000
  H   H27       1.0  0.0757739493012437  0.0847799390822104  0.4181403674682541  1.0000
  H   H28       1.0  0.9242216373432086  0.41522972285931564  0.9181376654958127  1.0000
  H   H29       1.0  0.43892555156296004  0.8550150085534086  0.9856437449338029  1.0000
  H   H30       1.0  0.5610636572642065  0.644974953352559  0.4856423939475788  1.0000
  H   H31       1.0  0.5610655849032044  0.1449729058341731  0.0143562550661969  1.0000
  H   H32       1.0  0.43891743479885303  0.3550167682465997  0.5143555795730919  1.0000
  C   C1        1.0  0.9481500171536725  0.3967818791884953  0.5561152391245585  1.0000
  C   C2        1.0  0.05185871148223241  0.10322016832989081  0.056114563631453486  1.0000
  C   C3        1.0  0.05186100316940672  0.6032174568338107  0.4438847608754414  1.0000
  C   C4        1.0  0.9481414103250503  0.8967848785097701  0.9438827343961123  1.0000
  C   C5        1.0  0.9389477628938538  0.3788137441757087  0.4625797081869791  1.0000
  C   C6        1.0  0.061064866205775614  0.12118735153978122  0.9625770062145376  1.0000
  C   C7        1.0  0.061060211078199714  0.6211846400437011  0.5374216427992451  1.0000
  C   C8        1.0  0.9389394236903572  0.8788176952998726  0.03742029181302089  1.0000
  C   C9        1.0  0.00860197592009371  0.5168946452621554  0.5941833288300484  1.0000
  C   C10       1.0  0.9913987805862947  0.9831067382785292  0.0941792758713831  1.0000
  C   C11       1.0  0.9914059980519669  0.4831037389572543  0.4058173466630635  1.0000
  C   C12       1.0  0.008604387572013601  0.0168992603640206  0.9058173466630632  1.0000
  C   C13       1.0  0.7287624221526416  0.20111785488249723  0.6038422048095098  1.0000
  C   C14       1.0  0.2712407490314562  0.2988841926358816  0.1038408538232929  1.0000
  C   C15       1.0  0.2712419189808132  0.7988824329426977  0.39615982166981917  1.0000
  C   C16       1.0  0.7287583022753169  0.7011170469922021  0.8961584706836019  1.0000
  C   C17       1.0  0.9763953228916764  0.2544330939301318  0.6900689002972198  1.0000
  C   C18       1.0  0.023615968082324905  0.245563242770892  0.19007227776276633  1.0000
  C   C19       1.0  0.023614894556033102  0.7455633866834859  0.3099297487165629  1.0000
  C   C20       1.0  0.9763830832244482  0.7544379968571988  0.8099270467441213  1.0000
  C   C21       1.0  0.025340165802177225  0.978754143649148  0.5399560929478537  1.0000
  C   C22       1.0  0.9746602206044345  0.5212558061175727  0.039954066468524695  1.0000
  C   C23       1.0  0.9746601723929091  0.0212566140078678  0.4600466090245874  1.0000
  C   C24       1.0  0.025338460602569113  0.4787539997365471  0.9600445825452579  1.0000
  C   C25       1.0  0.22099406995120324  0.0113768999792256  0.5765684950013534  1.0000
  C   C26       1.0  0.779006538894798  0.4886308583565154  0.0765664685220244  1.0000
  C   C27       1.0  0.7790082440944064  0.9886310022691093  0.4234348824641998  1.0000
  C   C28       1.0  0.22099385053760306  0.5113751402860345  0.9234328559848703  1.0000
  C   C29       1.0  0.4751848493014848  0.9556472248174188  0.9680944339367767  1.0000
  C   C30       1.0  0.5248004590619574  0.5443436888914448  0.46809240745744046  1.0000
  C   C31       1.0  0.5248068224149309  0.0443425931759549  0.0319069170494473  1.0000
  C   C32       1.0  0.47517838952545344  0.4556499363134989  0.531905566063223  1.0000
  C   C33       1.0  0.47268375635447785  0.9862276999644594  0.8704525803836773  1.0000
  C   C34       1.0  0.5273051336102484  0.5137660691530854  0.3704492029181309  1.0000
  C   C35       1.0  0.5273103752253903  0.0137659252404845  0.12955012158875684  1.0000
  C   C36       1.0  0.47268231877999517  0.4862285078547544  0.6295480951094277  1.0000
  N   N1        1.0  0.7195955982074198  0.1166777094330698  0.669366387462851  1.0000
  N   N2        1.0  0.28040869471450247  0.38332338628242013  0.16936638746285124  1.0000
  N   N3        1.0  0.28041125402680933  0.8833216265892361  0.330634963523373  1.0000
  N   N4        1.0  0.7195889672293208  0.6166778533456636  0.8306342880302606  1.0000
  N   N5        1.0  0.8765309116610711  0.1492398382031936  0.7241015941637412  1.0000
  N   N6        1.0  0.12347898994998022  0.3507564984978302  0.2241049716292878  1.0000
  N   N7        1.0  0.12348042752445565  0.8507556906075352  0.2758970548500414  1.0000
  N   N8        1.0  0.8765197937316744  0.6492437893273646  0.7758957038638171  1.0000
  N   N9        1.0  0.8891571815082175  0.2899505706828194  0.613975952445287  1.0000
  N   N10       1.0  0.11084743027615222  0.21004671782110051  0.11397662793839197  1.0000
  N   N11       1.0  0.11084774611281031  0.7100468617337015  0.386024047554713  1.0000
  N   N12       1.0  0.8891480394293441  0.7899516663983093  0.8860220210753835  1.0000
  O   O1        1.0  0.2512279704647612  0.9452116578993001  0.6462138611186176  1.0000
  O   O2        1.0  0.7487796816190555  0.5547944846558508  0.14621521210483474  1.0000
  O   O3        1.0  0.7487735407054716  0.054793388940360906  0.3537881653607115  1.0000
  O   O4        1.0  0.25122102667580043  0.445207706775129  0.85378546338827  1.0000
  O   O5        1.0  0.3456199950410338  0.0954572639351312  0.5406396919751444  1.0000
  O   O6        1.0  0.6543822707930504  0.4045514462035058  0.0406383409889202  1.0000
  O   O7        1.0  0.6543825866297015  0.9045515901160996  0.459363685490409  1.0000
  O   O8        1.0  0.3456203621150067  0.595452648833259  0.9593616590110796  1.0000
  O   O9        1.0  0.4834388063377305  0.8923342481824151  0.8168326128073458  1.0000
  O   O10       1.0  0.5165525434904411  0.6076633281466998  0.31683193731424086  1.0000
  O   O11       1.0  0.5165547387545644  0.1076622324312098  0.1831660362064298  1.0000
  O   O12       1.0  0.48343432241222223  0.3923341042698212  0.6831667116995418  1.0000
  O   O13       1.0  0.46174821194471605  0.0955105648971326  0.8417576330721415  1.0000
  O   O14       1.0  0.5382489177746521  0.4044848200010023  0.34175425560659517  1.0000
  O   O15       1.0  0.5382559128009349  0.9044840121107002  0.15824506890029966  1.0000
  O   O16       1.0  0.4617474060435428  0.5955116606126226  0.6582430424209704  1.0000
  O   O17       1.0  0.6216487539608551  0.830184374682581  0.6273284247500683  1.0000
  O   O18       1.0  0.3783545136463006  0.6698160570552147  0.12732572277762694  1.0000
  O   O19       1.0  0.3783553195474739  0.1698149613397248  0.3726742772223729  1.0000
  O   O20       1.0  0.621642880672397  0.33018423076998  0.8726736017292607  1.0000
