data_image0
_chemical_formula_structural       La4H44C16S6N4O40
_chemical_formula_sum              "La4 H44 C16 S6 N4 O40"
_cell_length_a       6.684981715346268
_cell_length_b       12.73067531462952
_cell_length_c       13.598585618192574
_cell_angle_alpha    79.09155321052329
_cell_angle_beta     75.85078247519965
_cell_angle_gamma    74.7890323609901

_space_group_name_H-M_alt    "P 1"
_space_group_IT_number       1

loop_
  _space_group_symop_operation_xyz
  'x, y, z'

loop_
  _atom_site_type_symbol
  _atom_site_label
  _atom_site_symmetry_multiplicity
  _atom_site_fract_x
  _atom_site_fract_y
  _atom_site_fract_z
  _atom_site_occupancy
  La  La1       1.0  0.7210707981155268  0.5486383725464421  0.1310905609884969  1.0000
  La  La2       1.0  0.40096376859014526  0.9513078711063018  0.3688487980974457  1.0000
  La  La3       1.0  0.27892860642040096  0.4513611099732486  0.86890980814546  1.0000
  La  La4       1.0  0.599036011289158  0.048692432810703706  0.6311507338381261  1.0000
  H   H1        1.0  0.34643370686858804  0.7489763561850822  0.9745187043681439  1.0000
  H   H2        1.0  0.07036027141346311  0.7509238892180434  0.5258391691487815  1.0000
  H   H3        1.0  0.6535608935574118  0.2510231263346085  0.025481837731852898  1.0000
  H   H4        1.0  0.9296397704511463  0.2490772360962765  0.47416118266109913  1.0000
  H   H5        1.0  0.19880788684836415  0.7931075697077006  0.8745446324518013  1.0000
  H   H6        1.0  0.8671358988330269  0.7067195713344248  0.6255864583115025  1.0000
  H   H7        1.0  0.8011884295265332  0.2068910914146755  0.1254561992689389  1.0000
  H   H8        1.0  0.13286325952089592  0.2932807325825806  0.37441215143482504  1.0000
  H   H9        1.0  0.29334506364498486  0.9766340145079937  0.9096126077172711  1.0000
  H   H10       1.0  0.18033000165785043  0.5233196217205816  0.5904344550601976  1.0000
  H   H11       1.0  0.7066509089931472  0.0233671108063263  0.09038718217520618  1.0000
  H   H12       1.0  0.819673585462617  0.4766798607991092  0.4095648189184756  1.0000
  H   H13       1.0  0.3550667881035565  0.9104696394179967  0.03082833392892328  1.0000
  H   H14       1.0  0.2964409971572836  0.5894848182078931  0.4691938735639097  1.0000
  H   H15       1.0  0.6449302789580929  0.08953066449900861  0.9691708233950462  1.0000
  H   H16       1.0  0.703563324846634  0.4105146643117976  0.5308046655313204  1.0000
  H   H17       1.0  0.7866616883590968  0.8857685793727299  0.968026773636559  1.0000
  H   H18       1.0  0.6409257207286034  0.6143953345683926  0.5317907746048148  1.0000
  H   H19       1.0  0.21333390893565962  0.11423172454428249  0.0319738534543035  1.0000
  H   H20       1.0  0.35907822593193844  0.3856033265539835  0.46820860168880063  1.0000
  H   H21       1.0  0.9483200506139013  0.9645389390502076  0.8757334290796165  1.0000
  H   H22       1.0  0.789232059884455  0.5355428351594469  0.6242268612618032  1.0000
  H   H23       1.0  0.05167590622092184  0.0354605434694832  0.12426730032618137  1.0000
  H   H24       1.0  0.21077361852828624  0.4644566473602438  0.375771865139228  1.0000
  H   H25       1.0  0.8946032126460893  0.638507452739077  0.2783655999107921  1.0000
  H   H26       1.0  0.8112869048647228  0.8614642542304196  0.22161703655584122  1.0000
  H   H27       1.0  0.10539901806555473  0.3614920297806137  0.72163348676208  1.0000
  H   H28       1.0  0.18871521248885165  0.1385352282892711  0.7783837071897252  1.0000
  H   H29       1.0  0.5460987059104383  0.3615930616503107  0.2648578640500503  1.0000
  H   H30       1.0  0.17242959580033104  0.1384202326652257  0.23510810014011696  1.0000
  H   H31       1.0  0.4539017930490063  0.6384055994720654  0.735141872515406  1.0000
  H   H32       1.0  0.8275701840789651  0.8615800712517796  0.7648914317954549  1.0000
  H   H33       1.0  0.6503462055842706  0.6830748282357604  0.31995273491615706  1.0000
  H   H34       1.0  0.6530755757399123  0.8169954464114895  0.17988526401067864  1.0000
  H   H35       1.0  0.3496599967990832  0.3169262970785596  0.6800476312334992  1.0000
  H   H36       1.0  0.3469244661246906  0.1830056789028305  0.8201150877992018  1.0000
  H   H37       1.0  0.03626528470976352  0.8586156483433172  0.08166907145447767  1.0000
  H   H38       1.0  0.9762912073499025  0.6414004140811684  0.41840330289539907  1.0000
  H   H39       1.0  0.9637330254026467  0.1413846555736882  0.9183319302479873  1.0000
  H   H40       1.0  0.023714209077532303  0.3585982470412077  0.5815946036313234  1.0000
  H   H41       1.0  0.7764144321563794  0.3253242632232443  0.28106175203295436  1.0000
  H   H42       1.0  0.38290319350973356  0.1744097560053248  0.21892834706412154  1.0000
  H   H43       1.0  0.22358435085416786  0.6746752192964464  0.7189376949117586  1.0000
  H   H44       1.0  0.617096961712939  0.8255913693089951  0.7810703476730649  1.0000
  C   C1        1.0  0.062041605687028316  0.690457547299566  0.006328065430167804  1.0000
  C   C2        1.0  0.759242010273617  0.8094829465719755  0.49375792776171307  1.0000
  C   C3        1.0  0.9379558561838625  0.3095427566174394  0.9936753282284483  1.0000
  C   C4        1.0  0.24076085776670894  0.1905181787423444  0.5062411415870827  1.0000
  C   C5        1.0  0.1866165759571675  0.7778878988650959  0.9578387967309678  1.0000
  C   C6        1.0  0.9228190791373905  0.722041095444041  0.5423299371358893  1.0000
  C   C7        1.0  0.8133790055342873  0.2221107622572802  0.0421627698732223  1.0000
  C   C8        1.0  0.07718143562536288  0.2779592084729643  0.45766885991623235  1.0000
  C   C9        1.0  0.22734667804864048  0.9563060737657665  0.9912028357610791  1.0000
  C   C10       1.0  0.17515951281171746  0.5436311345165166  0.5088432007496947  1.0000
  C   C11       1.0  0.7726496541295589  0.0436942301512389  0.008797056446333275  1.0000
  C   C12       1.0  0.824844449652126  0.4563691694004889  0.4911552360305933  1.0000
  C   C13       1.0  0.8904763770903158  0.9423653185420235  0.9579500058370625  1.0000
  C   C14       1.0  0.7910942084733892  0.5576786713911588  0.5419993694713412  1.0000
  C   C15       1.0  0.10952021707318951  0.057635806772296405  0.042050706244666  1.0000
  C   C16       1.0  0.20891073505590912  0.4423208111285319  0.4580000918131403  1.0000
  S   S1        1.0  0.28716036185682015  0.4069194082657006  0.1457025480062626  1.0000
  S   S2        1.0  0.8399980570047135  0.092954248506345  0.3543516011467175  1.0000
  S   S3        1.0  0.7128373267302098  0.5930808956513047  0.8542975315069512  1.0000
  S   S4        1.0  0.1600013475312143  0.9070452340133457  0.6456487679872465  1.0000
  S   S5        1.0  0.23579622115154564  0.7499554617841113  0.2499546646733107  1.0000
  S   S6        1.0  0.7642030858296137  0.2500456635302157  0.7500464220200198  1.0000
  N   N1        1.0  0.08040774325793619  0.8821462172152508  0.002401347832936583  1.0000
  N   N2        1.0  0.9652104858201795  0.6178304181381336  0.4976407084420272  1.0000
  N   N3        1.0  0.9195903048691605  0.11785326530444  0.9975988339952265  1.0000
  N   N4        1.0  0.03479212023484013  0.3821698857788718  0.5023575410324596  1.0000
  O   O1        1.0  0.9057352550111876  0.7120126556298416  0.07974263158472183  1.0000
  O   O2        1.0  0.6977082220878187  0.7879105888980932  0.42030695370835497  1.0000
  O   O3        1.0  0.09425751610785245  0.2879876482871637  0.9202592779672327  1.0000
  O   O4        1.0  0.3022971125881569  0.2120913578135415  0.5796907308644136  1.0000
  O   O5        1.0  0.40056113297940504  0.496724419467796  0.1301232589212233  1.0000
  O   O6        1.0  0.02758690077222779  0.0030629905862227  0.3697812099615803  1.0000
  O   O7        1.0  0.5994351016440335  0.5032775272438386  0.869877350845563  1.0000
  O   O8        1.0  0.9724132386471425  0.9969364919334752  0.6302184242889268  1.0000
  O   O9        1.0  0.3219030135938965  0.3627808021672507  0.04750853467042051  1.0000
  O   O10       1.0  0.7328265111476711  0.13690311182512  0.45261923244429175  1.0000
  O   O11       1.0  0.6780974036140821  0.6372211445443838  0.952490979941075  1.0000
  O   O12       1.0  0.26717424979707965  0.8630963706945707  0.5473813239954736  1.0000
  O   O13       1.0  0.12335201503749745  0.5997506418460219  0.9712666526810165  1.0000
  O   O14       1.0  0.6947583807231583  0.9001750668738566  0.5288329835043796  1.0000
  O   O15       1.0  0.8766418347017507  0.4002471978790396  0.02873556381575778  1.0000
  O   O16       1.0  0.305243099301734  0.0998227728512049  0.47116777756526307  1.0000
  O   O17       1.0  0.6596417933580981  0.3917013802177252  0.27809296338338635  1.0000
  O   O18       1.0  0.32916828071147103  0.1081706337596913  0.2218130089389021  1.0000
  O   O19       1.0  0.3403576111778223  0.6082981023019656  0.7219074057505777  1.0000
  O   O20       1.0  0.6708318587078994  0.8918288487599995  0.7781866253116049  1.0000
  O   O21       1.0  0.058141904424019245  0.450460858516422  0.18540840370122416  1.0000
  O   O22       1.0  0.6938941449372679  0.0496510034768676  0.3144729293872216  1.0000
  O   O23       1.0  0.9418568627832186  0.5495369812086395  0.8145919827568092  1.0000
  O   O24       1.0  0.3061049000585855  0.9503493004401378  0.6855273374318002  1.0000
  O   O25       1.0  0.7530136507750739  0.6209755484558173  0.2903152227216452  1.0000
  O   O26       1.0  0.6640400311379228  0.8790068366787693  0.20969353765364224  1.0000
  O   O27       1.0  0.24699129275421694  0.3790239340638735  0.7096842385628293  1.0000
  O   O28       1.0  0.33596246155902765  0.12099346723823601  0.790306368893539  1.0000
  O   O29       1.0  0.3718843397266055  0.3168277294008064  0.22320263321984155  1.0000
  O   O30       1.0  0.9120095776389762  0.1831502448302018  0.2770624018574708  1.0000
  O   O31       1.0  0.6281161750361407  0.683172574516199  0.7767961638322873  1.0000
  O   O32       1.0  0.08799020224032722  0.8168500590868035  0.7229371300781011  1.0000
  O   O33       1.0  0.42384764425447247  0.7202939833558446  0.16577183380466914  1.0000
  O   O34       1.0  0.3104699600751888  0.7796350109532924  0.334147033634025  1.0000
  O   O35       1.0  0.5761540002009581  0.2797063205611607  0.834230464698656  1.0000
  O   O36       1.0  0.6895287095772887  0.2203644715663984  0.6658540703833821  1.0000
  O   O37       1.0  0.13560043631122923  0.6548212248047562  0.2913573259323384  1.0000
  O   O38       1.0  0.08162537744388483  0.8450666996386503  0.20856289854837937  1.0000
  O   O39       1.0  0.8643989840280001  0.3451799005095637  0.7086421036882979  1.0000
  O   O40       1.0  0.9183784874651976  0.1549352470729843  0.7914362557912751  1.0000
