data_image0
_chemical_formula_structural       Zn2H36C48N8O12
_chemical_formula_sum              "Zn2 H36 C48 N8 O12"
_cell_length_a       9.600582767886378
_cell_length_b       11.720655605886034
_cell_length_c       12.113341990608637
_cell_angle_alpha    109.51660501094855
_cell_angle_beta     111.68765166566975
_cell_angle_gamma    101.56640307696087

_space_group_name_H-M_alt    "P 1"
_space_group_IT_number       1

loop_
  _space_group_symop_operation_xyz
  'x, y, z'

loop_
  _atom_site_type_symbol
  _atom_site_label
  _atom_site_symmetry_multiplicity
  _atom_site_fract_x
  _atom_site_fract_y
  _atom_site_fract_z
  _atom_site_occupancy
  Zn  Zn1       1.0  0.20267798416273317  0.5392640680924927  0.8709238771121761  1.0000
  Zn  Zn2       1.0  0.7973231610066804  0.46073448976381587  0.12907654039719335  1.0000
  H   H1        1.0  0.44587036953045367  0.0865391314806772  0.9089712034614479  1.0000
  H   H2        1.0  0.5541385939919223  0.9134643392158138  0.09103146148508758  1.0000
  H   H3        1.0  0.512996631859842  0.2352875453021426  0.14115735715845557  1.0000
  H   H4        1.0  0.4870062904468497  0.7647149301242705  0.8588440940723742  1.0000
  H   H5        1.0  0.10468926133131627  0.9642111950490531  0.10594782933986828  1.0000
  H   H6        1.0  0.8953066070317277  0.0357983117543696  0.8940458290889524  1.0000
  H   H7        1.0  0.035031752967199785  0.8175884334716913  0.8739351919768553  1.0000
  H   H8        1.0  0.9649679336803985  0.18242202608878702  0.1260606938776619  1.0000
  H   H9        1.0  0.7715591624657636  0.41137250249195745  0.5385395187599614  1.0000
  H   H10       1.0  0.22843683389576347  0.588622159111779  0.4614581013008775  1.0000
  H   H11       1.0  0.6315128122769237  0.5657168467792246  0.8401611892434673  1.0000
  H   H12       1.0  0.36849123081380963  0.4342856286319332  0.1598405762053759  1.0000
  H   H13       1.0  0.2691678519032052  0.30338606896093273  0.4379504370561307  1.0000
  H   H14       1.0  0.7308308249620552  0.6966192862219813  0.5620524763264712  1.0000
  H   H15       1.0  0.5375041439856076  0.6150266900686107  0.04566740248918686  1.0000
  H   H16       1.0  0.46249699186532206  0.3849718890594644  0.9543321939471666  1.0000
  H   H17       1.0  0.7483229481162041  0.7753656446727106  0.273702355621218  1.0000
  H   H18       1.0  0.2516768851668445  0.2246299271445622  0.7262991340113415  1.0000
  H   H19       1.0  0.3928532011532015  0.9348955474998635  0.3193007395610012  1.0000
  H   H20       1.0  0.6071450833688273  0.06509900771454369  0.6807016143009433  1.0000
  H   H21       1.0  0.18982393053961746  0.7567823459419073  0.09170142461877627  1.0000
  H   H22       1.0  0.8101756658687833  0.24321519531154218  0.9082998571199852  1.0000
  H   H23       1.0  0.04302203588827071  0.024923141326688405  0.7251198428838208  1.0000
  H   H24       1.0  0.9569802308852858  0.9750802656460351  0.274883399973632  1.0000
  H   H25       1.0  0.831703083888172  0.8443316709520232  0.5037681181812346  1.0000
  H   H26       1.0  0.16830523259945096  0.15566786088734827  0.49623464833487674  1.0000
  H   H27       1.0  0.6422349228019327  0.1303377016432421  0.42408770684937025  1.0000
  H   H28       1.0  0.3577542043454187  0.8696538676389023  0.5759135196096281  1.0000
  H   H29       1.0  0.8693834304137978  0.2991906261357755  0.6446553352885402  1.0000
  H   H30       1.0  0.13060585988042564  0.7008039930159526  0.35534204161020005  1.0000
  H   H31       1.0  0.11741133273705652  0.7870921196422673  0.7103026709535456  1.0000
  H   H32       1.0  0.8825944408985437  0.212914379697807  0.2896960228516863  1.0000
  H   H33       1.0  0.09531935172417864  0.29584957411261575  0.827261993673396  1.0000
  H   H34       1.0  0.9046806353872583  0.7041490688460001  0.17273482532589673  1.0000
  H   H35       1.0  0.14202895523396827  0.39062405825089297  0.9792190934896609  1.0000
  H   H36       1.0  0.857976626479207  0.6093746059032201  0.020778475526725626  1.0000
  C   C1        1.0  0.23753928522186402  0.943957190250835  0.8781821846230146  1.0000
  C   C2        1.0  0.76246154934514  0.05604835634743921  0.12181396753850035  1.0000
  C   C3        1.0  0.3718208373266306  0.0620517367135349  0.9534467227299643  1.0000
  C   C4        1.0  0.6281811646168266  0.9379537035106724  0.046553849014650074  1.0000
  C   C5        1.0  0.4101927810224169  0.1430185756987967  0.08214776882245903  1.0000
  C   C6        1.0  0.5898125832731795  0.8569868644796446  0.91785374557621  1.0000
  C   C7        1.0  0.3145836593575595  0.1065548292761491  0.138515272331702  1.0000
  C   C8        1.0  0.6854134035172947  0.8934496582062436  0.8614827577691955  1.0000
  C   C9        1.0  0.17873578169984944  0.9900100861207902  0.06172321824241325  1.0000
  C   C10       1.0  0.8212594675838929  0.009995418010220206  0.9382730049750378  1.0000
  C   C11       1.0  0.14007331040244259  0.9083318414896908  0.9324416250660263  1.0000
  C   C12       1.0  0.8599245991078774  0.09167470050068262  0.06755322706703736  1.0000
  C   C13       1.0  0.5160303641633704  0.34499228252838077  0.4745824013964609  1.0000
  C   C14       1.0  0.4839687491772509  0.6550092188692105  0.5254176434816814  1.0000
  C   C15       1.0  0.6785443166577991  0.4166018018292235  0.5689958499038781  1.0000
  C   C16       1.0  0.32145592596525324  0.5833948291496753  0.4310028191352444  1.0000
  C   C17       1.0  0.7215559048700301  0.4929169654160148  0.7019504597984395  1.0000
  C   C18       1.0  0.2784458958325261  0.5070806608939834  0.2980481660842997  1.0000
  C   C19       1.0  0.6004661848426808  0.5040752783231852  0.7381158265003832  1.0000
  C   C20       1.0  0.3995311513606624  0.4959223055043013  0.2618831846563054  1.0000
  C   C21       1.0  0.43745427895849076  0.4364429371331155  0.6429404766359282  1.0000
  C   C22       1.0  0.5625448343821305  0.5635585642644754  0.35705956824221363  1.0000
  C   C23       1.0  0.395577351928054  0.35589707014457866  0.5119448190519194  1.0000
  C   C24       1.0  0.6044202126515544  0.6441034146501607  0.4880560900556147  1.0000
  C   C25       1.0  0.30597421105574807  0.4457469995781693  0.6809842201412479  1.0000
  C   C26       1.0  0.6940316549445882  0.5542544379126043  0.3190201732640646  1.0000
  C   C27       1.0  0.8960068478380236  0.5555956200760265  0.8043726268276288  1.0000
  C   C28       1.0  0.10399671986323265  0.44440109594416555  0.19562370057349915  1.0000
  C   C29       1.0  0.5087893899893885  0.6848247773870426  0.11062063148670391  1.0000
  C   C30       1.0  0.49121130856609346  0.3151728063946848  0.8893793223240465  1.0000
  C   C31       1.0  0.6267419471775285  0.7759465466582611  0.2375615048427022  1.0000
  C   C32       1.0  0.3732578767870365  0.22404904643077114  0.7624391637168414  1.0000
  C   C33       1.0  0.5888381346526046  0.8698720162983237  0.3158007183876494  1.0000
  C   C34       1.0  0.4111624007559982  0.1301225176138203  0.684203084983352  1.0000
  C   C35       1.0  0.4294537041650628  0.8646650127993922  0.26275558895251555  1.0000
  C   C36       1.0  0.5705461477549462  0.13533051647435462  0.7372475428260685  1.0000
  C   C37       1.0  0.3161084830267314  0.7675374786759336  0.136362293644055  1.0000
  C   C38       1.0  0.6838906574492398  0.23245910977470174  0.8636377033230717  1.0000
  C   C39       1.0  0.9511918709606133  0.0437514556860208  0.6554846624222036  1.0000
  C   C40       1.0  0.04880794450556199  0.9562490078064416  0.3445176961943945  1.0000
  C   C41       1.0  0.8326313417857137  0.9433788286446471  0.5327846894176959  1.0000
  C   C42       1.0  0.16737251020269636  0.05662066071221971  0.46721846237235803  1.0000
  C   C43       1.0  0.7156330651415959  0.972338971736434  0.44771861896717985  1.0000
  C   C44       1.0  0.2843667867784134  0.027656557537305598  0.5522845128114042  1.0000
  C   C45       1.0  0.7260421987192772  0.10202489407756589  0.48887555352211365  1.0000
  C   C46       1.0  0.2739520679174846  0.8979705927289245  0.5111276493123995  1.0000
  C   C47       1.0  0.8521666339835788  0.1964364471016182  0.611405908386125  1.0000
  C   C48       1.0  0.1478280606301539  0.8035600563229791  0.38859611600097566  1.0000
  N   N1        1.0  0.34566263452370555  0.1798830408038441  0.2691891213644056  1.0000
  N   N2        1.0  0.6543312749182206  0.8201195411034163  0.7308057107571884  1.0000
  N   N3        1.0  0.48635428620557514  0.2673730483990511  0.34470856975437414  1.0000
  N   N4        1.0  0.5136430228624107  0.7326294483753912  0.6552904893133372  1.0000
  N   N5        1.0  0.355687598329233  0.6803676245418232  0.06050921450971473  1.0000
  N   N6        1.0  0.6443119794422002  0.31962995925515264  0.9394904250830152  1.0000
  N   N7        1.0  0.9616562507234718  0.1681156174370528  0.6942025080769271  1.0000
  N   N8        1.0  0.03833973713965836  0.8318839145701135  0.3057968020409517  1.0000
  O   O1        1.0  0.20785191711133422  0.8694606943474523  0.7520817755031429  1.0000
  O   O2        1.0  0.7921552235014389  0.13054381426941575  0.2479182614869232  1.0000
  O   O3        1.0  0.9972203058753448  0.542196185544789  0.7584914455629601  1.0000
  O   O4        1.0  0.0027774939387157278  0.4577926315504186  0.2415046491782533  1.0000
  O   O5        1.0  0.938710470750472  0.613651736894205  0.9264677523880991  1.0000
  O   O6        1.0  0.06129018121259127  0.3863459532463338  0.07352809605758641  1.0000
  O   O7        1.0  0.1643590194340092  0.3666526647523582  0.6032425129739067  1.0000
  O   O8        1.0  0.835645781693188  0.6333486451230995  0.39676649265146585  1.0000
  O   O9        1.0  0.3549811681055743  0.5371973487627386  0.799360683199197  1.0000
  O   O10       1.0  0.645020871111818  0.46280800637440944  0.20064317283747368  1.0000
  O   O11       1.0  0.17532473729160367  0.38375330202507746  0.9082281964528605  1.0000
  O   O12       1.0  0.8246797329560139  0.6162453408725242  0.0917698794185143  1.0000
