data_image0
_chemical_formula_structural       Cs4H12C8N24O8
_chemical_formula_sum              "Cs4 H12 C8 N24 O8"
_cell_length_a       6.4082461863890465
_cell_length_b       8.314712424725588
_cell_length_c       13.70617020503698
_cell_angle_alpha    90.00009411219646
_cell_angle_beta     89.99973903893458
_cell_angle_gamma    98.83845697075083

_space_group_name_H-M_alt    "P 1"
_space_group_IT_number       1

loop_
  _space_group_symop_operation_xyz
  'x, y, z'

loop_
  _atom_site_type_symbol
  _atom_site_label
  _atom_site_symmetry_multiplicity
  _atom_site_fract_x
  _atom_site_fract_y
  _atom_site_fract_z
  _atom_site_occupancy
  Cs  Cs1       1.0  0.8551023654897346  0.5930037194198617  0.1866277401550462  1.0000
  Cs  Cs2       1.0  0.6448968985048964  0.9069968991199886  0.6866284787593173  1.0000
  Cs  Cs3       1.0  0.1448975277524127  0.4069957980122468  0.8133716791574559  1.0000
  Cs  Cs4       1.0  0.355103243538565  0.0930038354436036  0.31337167015193057  1.0000
  H   H1        1.0  0.7257372746214655  0.031269489839317495  0.1533688533808899  1.0000
  H   H2        1.0  0.7742623070119237  0.468729145019971  0.6533693779131511  1.0000
  H   H3        1.0  0.27426236981592916  0.9687288104618901  0.8466305659312641  1.0000
  H   H4        1.0  0.22573627551179237  0.5312715943463147  0.3466307709997666  1.0000
  H   H5        1.0  0.9023922515355949  0.21973335061188243  0.14912760379006335  1.0000
  H   H6        1.0  0.5976060593042262  0.28026649947748444  0.6491283163817414  1.0000
  H   H7        1.0  0.09760895242497718  0.7802649448860562  0.8508710859220159  1.0000
  H   H8        1.0  0.4023925232194898  0.7197342398888011  0.35087183253117626  1.0000
  H   H9        1.0  0.9610030877082566  0.04723740852679731  0.0822495462327097  1.0000
  H   H10       1.0  0.5389958526443905  0.4527623358561001  0.5822505564795152  1.0000
  H   H11       1.0  0.03899474840807216  0.9527596794456272  0.9177491434823537  1.0000
  H   H12       1.0  0.4610042894025099  0.5472383987069164  0.4177488628333209  1.0000
  C   C1        1.0  0.5540461331243306  0.24056274234131786  0.0184372110991333  1.0000
  C   C2        1.0  0.9459534078971643  0.25943690117852475  0.5184357008044316  1.0000
  C   C3        1.0  0.4459524493959464  0.7594379970255501  0.9815636674121964  1.0000
  C   C4        1.0  0.05404648534154429  0.7405626162541665  0.48156444810647514  1.0000
  C   C5        1.0  0.8346864359281696  0.11211652080420009  0.10713193759085732  1.0000
  C   C6        1.0  0.6653120214101093  0.3878820457757756  0.6071318839281049  1.0000
  C   C7        1.0  0.16531320850922532  0.8878817794970075  0.8928674817212967  1.0000
  C   C8        1.0  0.3346865611170387  0.6121186935899344  0.3928675353864009  1.0000
  N   N1        1.0  0.48213215027407597  0.28879621645997133  0.10553458140590523  1.0000
  N   N2        1.0  0.017867209518492203  0.2112018809648717  0.6055339357091754  1.0000
  N   N3        1.0  0.5178672453551344  0.7112008667109039  0.8944655675043125  1.0000
  N   N4        1.0  0.9821326837202166  0.7887976364678125  0.39446621320173153  1.0000
  N   N5        1.0  0.5010275967014692  0.2523990465471471  0.9238258550751868  1.0000
  N   N6        1.0  0.9989694391629413  0.24760001579232238  0.4238249644293505  1.0000
  N   N7        1.0  0.4989707370174941  0.7476004756882304  0.0761742938373899  1.0000
  N   N8        1.0  0.0010304540757672912  0.7523995016403617  0.5761751844815566  1.0000
  N   N9        1.0  0.7747253243477914  0.1220352495172961  0.9305246706095432  1.0000
  N   N10       1.0  0.7252750162990156  0.377965030936906  0.43052522370679475  1.0000
  N   N11       1.0  0.22527481769910204  0.8779654850457208  0.06947474870329981  1.0000
  N   N12       1.0  0.2747248769362614  0.6220344864963607  0.5694756548025239  1.0000
  N   N13       1.0  0.3101548979336926  0.3604291078729888  0.1065255952685717  1.0000
  N   N14       1.0  0.1898451989537833  0.13957264250945658  0.6065230519345235  1.0000
  N   N15       1.0  0.6898454929213856  0.6395728438203535  0.8934730944462005  1.0000
  N   N16       1.0  0.810154943086246  0.860428092054711  0.39347782657514335  1.0000
  N   N17       1.0  0.7238044787587726  0.15941882189289203  0.022141890214072608  1.0000
  N   N18       1.0  0.7761932190576247  0.34057961515581076  0.5221422823479713  1.0000
  N   N19       1.0  0.2761936061554379  0.8405794832115843  0.977858258698163  1.0000
  N   N20       1.0  0.22380667418108396  0.6594199022768734  0.4778578665629355  1.0000
  N   N21       1.0  0.640667347471542  0.17828010727159693  0.8728573833064317  1.0000
  N   N22       1.0  0.8593322252797859  0.321721303967088  0.37285686463040696  1.0000
  N   N23       1.0  0.3593330433766724  0.8217218444229033  0.1271427656051642  1.0000
  N   N24       1.0  0.1406676679589296  0.678278213465596  0.6271432842804998  1.0000
  O   O1        1.0  0.24927369573035205  0.3969294836169368  0.1909424033779885  1.0000
  O   O2        1.0  0.2507256065331589  0.1030724001970924  0.6909440712707564  1.0000
  O   O3        1.0  0.7507251356015487  0.6030724728796742  0.8090570159368653  1.0000
  O   O4        1.0  0.7492745355103025  0.8969283343664999  0.30905607764049137  1.0000
  O   O5        1.0  0.20968555724995497  0.3900410594745694  0.031301202664217  1.0000
  O   O6        1.0  0.29031549649654653  0.10996178914379579  0.5313035226288605  1.0000
  O   O7        1.0  0.7903179526411888  0.6099608826139687  0.9686982166456419  1.0000
  O   O8        1.0  0.7096867026761657  0.890041374878912  0.46869662628141384  1.0000
