data_image0
_chemical_formula_structural       Al4H28C48O28
_chemical_formula_sum              "Al4 H28 C48 O28"
_cell_length_a       6.620072798205045
_cell_length_b       14.893771895536606
_cell_length_c       15.154555807190308
_cell_angle_alpha    89.99585192125758
_cell_angle_beta     91.25819871586837
_cell_angle_gamma    89.5417104294487

_space_group_name_H-M_alt    "P 1"
_space_group_IT_number       1

loop_
  _space_group_symop_operation_xyz
  'x, y, z'

loop_
  _atom_site_type_symbol
  _atom_site_label
  _atom_site_symmetry_multiplicity
  _atom_site_fract_x
  _atom_site_fract_y
  _atom_site_fract_z
  _atom_site_occupancy
  Al  Al1       1.0  0.028630952528992296  0.005622188889617501  0.5012665706797887  1.0000
  Al  Al2       1.0  0.5307650041109042  0.008404749687862497  0.5063160079150038  1.0000
  Al  Al3       1.0  0.9732765353486384  0.5009777575997987  0.005378670699627699  1.0000
  Al  Al4       1.0  0.4723839984537506  0.5091730321964363  0.006755043957710399  1.0000
  H   H1        1.0  0.7869674279719304  0.12208310439375941  0.5256929939103755  1.0000
  H   H2        1.0  0.290064505502805  0.8923390074925734  0.4831564600111235  1.0000
  H   H3        1.0  0.7202529620924877  0.38961980015398007  0.030165518395648395  1.0000
  H   H4        1.0  0.20462235768083298  0.6205383144191288  0.981408576364721  1.0000
  H   H5        1.0  0.866068566290572  0.4369341754229695  0.7845062020436371  1.0000
  H   H6        1.0  0.6242663127483541  0.43477261235868536  0.6601734439562958  1.0000
  H   H7        1.0  0.9848030713624567  0.23567474869292235  0.5308548344802588  1.0000
  H   H8        1.0  0.6870642730342311  0.33537945080477277  0.5296763803077481  1.0000
  H   H9        1.0  0.416691347362665  0.5568984274555646  0.22585064510507635  1.0000
  H   H10       1.0  0.16376561932197123  0.5601042112008446  0.34206131845065346  1.0000
  H   H11       1.0  0.47547089512811874  0.7783601359033269  0.468617172948683  1.0000
  H   H12       1.0  0.19514088160772047  0.6711697702551122  0.4652152681058793  1.0000
  H   H13       1.0  0.03204133531668418  0.5578685387461351  0.8029107319541138  1.0000
  H   H14       1.0  0.3206182194041034  0.557313296735586  0.7047391863054456  1.0000
  H   H15       1.0  0.12549145565773048  0.8118442860741484  0.5988879198627116  1.0000
  H   H16       1.0  0.3717977184782271  0.6876482292883285  0.6034268786485555  1.0000
  H   H17       1.0  0.9565996105432432  0.2724786155773557  0.0385592817432254  1.0000
  H   H18       1.0  0.7057568013641173  0.1525359391340189  0.03375980047395899  1.0000
  H   H19       1.0  0.9688112023572941  0.037255922834354714  0.2696575252974681  1.0000
  H   H20       1.0  0.708670880157058  0.03445344935023801  0.15167625428642845  1.0000
  H   H21       1.0  0.5910300938660171  0.13731945209225668  0.6749906316865903  1.0000
  H   H22       1.0  0.5393584482727647  0.34964246218378053  0.8864408808211195  1.0000
  H   H23       1.0  0.08063207616205399  0.8811742550761892  0.3328968922373718  1.0000
  H   H24       1.0  0.06533710778189317  0.6559451262220292  0.13435236384971458  1.0000
  H   H25       1.0  0.4689111174105136  0.9178011647943765  0.6902916807354271  1.0000
  H   H26       1.0  0.4075777005818679  0.688197761006002  0.8810550986401606  1.0000
  H   H27       1.0  0.6016184383491704  0.15626805940297575  0.3675745716905253  1.0000
  H   H28       1.0  0.5537533509698491  0.390579161521437  0.17740550122926627  1.0000
  C   C1        1.0  0.27421879026158547  0.09835549273815761  0.3684710024519617  1.0000
  C   C2        1.0  0.2732632950512155  0.13517867001739603  0.6044607076574664  1.0000
  C   C3        1.0  0.7828465990577981  0.9030493908754308  0.6297555751888879  1.0000
  C   C4        1.0  0.7752583774495603  0.8776471421282465  0.40297067778454476  1.0000
  C   C5        1.0  0.2386892781209298  0.3802196942464278  0.11061042376674378  1.0000
  C   C6        1.0  0.21329353253167938  0.40356242153517036  0.8768112654090457  1.0000
  C   C7        1.0  0.7204239018108112  0.6186024114128942  0.8887444542234488  1.0000
  C   C8        1.0  0.7341467626641602  0.6035672447351956  0.13490339389008446  1.0000
  C   C9        1.0  0.2278546446997538  0.34401289459381706  0.7994442115428908  1.0000
  C   C10       1.0  0.0694308807052266  0.337259956769998  0.7318411144100663  1.0000
  C   C11       1.0  0.40523955350010243  0.29199308726425255  0.7925849382386756  1.0000
  C   C12       1.0  0.8939738593290656  0.3925111838172199  0.7294915872314717  1.0000
  C   C13       1.0  0.7569538868298409  0.39088252311287164  0.6593431066431419  1.0000
  C   C14       1.0  0.2658839489582618  0.21430616698860663  0.6625301738895145  1.0000
  C   C15       1.0  0.42275239011554083  0.2254494011667916  0.724429792932213  1.0000
  C   C16       1.0  0.09453332966648989  0.27481328529648863  0.6609263452135534  1.0000
  C   C17       1.0  0.9557493364430203  0.2772339710572497  0.5883307794367808  1.0000
  C   C18       1.0  0.7899857093116084  0.3342872784821509  0.5869135625014863  1.0000
  C   C19       1.0  0.7459483659377212  0.6639798182635203  0.2120948980619772  1.0000
  C   C20       1.0  0.5891967545632966  0.6692379418593647  0.2766640189182467  1.0000
  C   C21       1.0  0.9167452929841957  0.7181791805984263  0.2195269598929812  1.0000
  C   C22       1.0  0.42851234052087495  0.6069358154465833  0.2778059519467674  1.0000
  C   C23       1.0  0.2866839926123248  0.6084432960734178  0.3433301093383746  1.0000
  C   C24       1.0  0.7681328132681386  0.7989016026767148  0.3447521472099027  1.0000
  C   C25       1.0  0.9255357266648332  0.7878274229196834  0.2849133922353387  1.0000
  C   C26       1.0  0.6029616094574166  0.7355299596911564  0.3451330176015403  1.0000
  C   C27       1.0  0.4590234806049835  0.7327345410679554  0.41299958232104916  1.0000
  C   C28       1.0  0.303225771586888  0.6713422852326901  0.4119983237313675  1.0000
  C   C29       1.0  0.7345310213476282  0.682933707154369  0.8151144618299992  1.0000
  C   C30       1.0  0.9078355562743212  0.6848852458884311  0.7585926183823799  1.0000
  C   C31       1.0  0.581010827349985  0.7468967396398086  0.8049215335905726  1.0000
  C   C32       1.0  0.05138330096863088  0.6139298339382152  0.7585973741457082  1.0000
  C   C33       1.0  0.21394360638934268  0.6135304901336484  0.7031157182582816  1.0000
  C   C34       1.0  0.7743014008954958  0.8267487740012738  0.6917165833572056  1.0000
  C   C35       1.0  0.6011221057766818  0.8196918053802451  0.7435539458779415  1.0000
  C   C36       1.0  0.9300192459710602  0.7574966296190554  0.6973955657957018  1.0000
  C   C37       1.0  0.10181026348900701  0.7558693696674157  0.6429622115829898  1.0000
  C   C38       1.0  0.24080023145344137  0.6860076447215065  0.6457637756005993  1.0000
  C   C39       1.0  0.2563200195072426  0.29813056808166755  0.163673298809357  1.0000
  C   C40       1.0  0.10384923681070997  0.22881300357300918  0.16043515160111346  1.0000
  C   C41       1.0  0.4261516038795676  0.2882325136386327  0.2201728161731467  1.0000
  C   C42       1.0  0.9555550877846528  0.2236640704963406  0.09178239368077357  1.0000
  C   C43       1.0  0.8151660380749136  0.15539435759408352  0.0885315558290642  1.0000
  C   C44       1.0  0.2752186382358133  0.15700223146684786  0.2899840569361629  1.0000
  C   C45       1.0  0.4385683933930337  0.21526273687099015  0.2821712050526556  1.0000
  C   C46       1.0  0.11075727647587999  0.15918520475624837  0.22563857240429283  1.0000
  C   C47       1.0  0.9640447973574168  0.0905482776571773  0.22079285275059135  1.0000
  C   C48       1.0  0.8180579195632305  0.08882270034841613  0.15419356020584724  1.0000
  O   O1        1.0  0.1069994675452932  0.07704678071746682  0.40181471574324223  1.0000
  O   O2        1.0  0.449084120596538  0.10464634866359998  0.5827844944289919  1.0000
  O   O3        1.0  0.6135505079980915  0.9455287648638874  0.6126429956317521  1.0000
  O   O4        1.0  0.9490332509640212  0.9160951135237241  0.41621930406588337  1.0000
  O   O5        1.0  0.9464358615356971  0.9255028769397313  0.5938764565002683  1.0000
  O   O6        1.0  0.6153155771312342  0.9081943302113942  0.43742402872566527  1.0000
  O   O7        1.0  0.4484749332832719  0.07567443650626163  0.4028021736666004  1.0000
  O   O8        1.0  0.1094013776714462  0.0976415078405921  0.58071407375472  1.0000
  O   O9        1.0  0.7788203641440035  0.06368426132041799  0.4971609686143167  1.0000
  O   O10       1.0  0.2821600492450925  0.9515685419284597  0.5097461065356298  1.0000
  O   O11       1.0  0.06866402362388868  0.4062004217731784  0.07868476170957449  1.0000
  O   O12       1.0  0.38139598531422797  0.4236658684039157  0.9181164967626072  1.0000
  O   O13       1.0  0.5435885987958072  0.593477023417485  0.9142225942506383  1.0000
  O   O14       1.0  0.9034926601546047  0.5716846639189156  0.10719296813818599  1.0000
  O   O15       1.0  0.8826149761151855  0.5928763416978171  0.9275342729947765  1.0000
  O   O16       1.0  0.5643810685979246  0.5886983050372904  0.0970931994929387  1.0000
  O   O17       1.0  0.40214563578928164  0.4264355522586953  0.09890124458878087  1.0000
  O   O18       1.0  0.0430971748666806  0.4316168095320307  0.9031371707731635  1.0000
  O   O19       1.0  0.7199059549834671  0.44846551847122385  0.0025275753175292978  1.0000
  O   O20       1.0  0.21934150193714436  0.5619140801216461  0.008751042895624998  1.0000
  O   O21       1.0  0.5922799824136291  0.17539210973028932  0.728663159305327  1.0000
  O   O22       1.0  0.5652627106872075  0.29612745009293934  0.847904603135383  1.0000
  O   O23       1.0  0.088982274613457  0.8400285341950706  0.2811180303152553  1.0000
  O   O24       1.0  0.07705428642115919  0.713713512115845  0.16691746240760347  1.0000
  O   O25       1.0  0.44487243904191603  0.877066425194016  0.7417524824794552  1.0000
  O   O26       1.0  0.4102703481899397  0.7474672001684652  0.8513025370481059  1.0000
  O   O27       1.0  0.6074093483042516  0.21308425121519292  0.3328075261002751  1.0000
  O   O28       1.0  0.5818172983724422  0.3452148251396494  0.22478199247218805  1.0000
