data_image0
_chemical_formula_structural       Zn4H64C32N8Cl8O16
_chemical_formula_sum              "Zn4 H64 C32 N8 Cl8 O16"
_cell_length_a       9.719262026732416
_cell_length_b       9.994310803001184
_cell_length_c       13.05878257865045
_cell_angle_alpha    89.99995902645618
_cell_angle_beta     101.5038717830314
_cell_angle_gamma    90.00004540897254

_space_group_name_H-M_alt    "P 1"
_space_group_IT_number       1

loop_
  _space_group_symop_operation_xyz
  'x, y, z'

loop_
  _atom_site_type_symbol
  _atom_site_label
  _atom_site_symmetry_multiplicity
  _atom_site_fract_x
  _atom_site_fract_y
  _atom_site_fract_z
  _atom_site_occupancy
  Zn  Zn1       1.0  0.22981688461607766  0.07359586500967907  0.2000709771804949  1.0000
  Zn  Zn2       1.0  0.7701815276252191  0.5735964866181716  0.29992916185032925  1.0000
  Zn  Zn3       1.0  0.7701843334654797  0.9264019705588139  0.7999302769436838  1.0000
  Zn  Zn4       1.0  0.22981759124952114  0.42640335008850627  0.700071013824605  1.0000
  H   H1        1.0  0.2321349845514504  0.9617589820854631  0.5788602748767318  1.0000
  H   H2        1.0  0.7678648655722924  0.46175756757276787  0.9211399217946478  1.0000
  H   H3        1.0  0.7678651843011722  0.0382428557600321  0.421140057193604  1.0000
  H   H4        1.0  0.23213425404930632  0.5382422691342724  0.07885948822317351  1.0000
  H   H5        1.0  0.9041952902275199  0.635248493528742  0.5557565617658966  1.0000
  H   H6        1.0  0.09580433331177571  0.1352495410319818  0.9442430137587223  1.0000
  H   H7        1.0  0.0958059293484652  0.36475134317895896  0.44424316104361583  1.0000
  H   H8        1.0  0.9041947855633123  0.8647512962439379  0.055757161915984475  1.0000
  H   H9        1.0  0.8047844163020342  0.7606567881900758  0.5862948520774296  1.0000
  H   H10       1.0  0.1952142445749914  0.2606569403597589  0.9137045115468468  1.0000
  H   H11       1.0  0.19521470331956436  0.23934304851695729  0.4137045579403917  1.0000
  H   H12       1.0  0.8047848743000969  0.7393438969161608  0.08629566412786717  1.0000
  H   H13       1.0  0.8687886280161125  0.7727377372636893  0.4766403658333758  1.0000
  H   H14       1.0  0.13121097360124884  0.2727382057462719  0.023359075797628703  1.0000
  H   H15       1.0  0.13121154158267254  0.22726209944367784  0.5233592005802876  1.0000
  H   H16       1.0  0.8687881452738324  0.7272626315296474  0.976641099877078  1.0000
  H   H17       1.0  0.31235960246083755  0.722221804122661  0.432408447568065  1.0000
  H   H18       1.0  0.6876399632378494  0.2222216595190645  0.06759178207813933  1.0000
  H   H19       1.0  0.6876405663903923  0.27777603144586027  0.5675918845031589  1.0000
  H   H20       1.0  0.3123591563837493  0.7777781771879687  0.932407627939682  1.0000
  H   H21       1.0  0.4798238290606064  0.7888017432434465  0.4410079440231415  1.0000
  H   H22       1.0  0.5201757829941583  0.2888014776074355  0.05899225615534216  1.0000
  H   H23       1.0  0.5201763390437577  0.21119609232471948  0.5589931537051953  1.0000
  H   H24       1.0  0.4798233366274331  0.7111983590995975  0.9410071538624794  1.0000
  H   H25       1.0  0.4305937682214064  0.7337633302245903  0.6153681529835282  1.0000
  H   H26       1.0  0.5694059239080643  0.23376279749983542  0.8846313789395736  1.0000
  H   H27       1.0  0.5694064006308679  0.2662375070516632  0.3846321790870277  1.0000
  H   H28       1.0  0.4305931957135343  0.7662370392071977  0.1153680310782477  1.0000
  H   H29       1.0  0.4729913418756624  0.9055070597828772  0.6050377881860811  1.0000
  H   H30       1.0  0.5270084683365895  0.4055074852682523  0.8949631990386564  1.0000
  H   H31       1.0  0.5270088277234706  0.09449377749373869  0.394961778227362  1.0000
  H   H32       1.0  0.4729906497916332  0.5944933520073048  0.10503774229317028  1.0000
  H   H33       1.0  0.3657996376178189  0.8080955252283174  0.7629598145860329  1.0000
  H   H34       1.0  0.6341990555412877  0.3080951807026934  0.7370402936994652  1.0000
  H   H35       1.0  0.6341984320269418  0.1919053120476306  0.23703943903571914  1.0000
  H   H36       1.0  0.3658011140575042  0.6919046560046735  0.2629592727141983  1.0000
  H   H37       1.0  0.19503365205839882  0.8742480978739519  0.7567156061629206  1.0000
  H   H38       1.0  0.8049661371368586  0.3742488797017884  0.7432846292395824  1.0000
  H   H39       1.0  0.8049665175407342  0.12575273940265666  0.2432839602505226  1.0000
  H   H40       1.0  0.1950340317154158  0.6257519575744651  0.2567157028309737  1.0000
  H   H41       1.0  0.37204263401007853  0.0290132521832831  0.8488320217256627  1.0000
  H   H42       1.0  0.6279579632999841  0.5290149040772291  0.651170054184867  1.0000
  H   H43       1.0  0.6279575348414993  0.9709855839544871  0.15116831034533354  1.0000
  H   H44       1.0  0.3720422055519421  0.47098493262978264  0.3488302778859165  1.0000
  H   H45       1.0  0.454532310157049  0.04307733512391109  0.7423766527382512  1.0000
  H   H46       1.0  0.5454682984380738  0.5430768225736243  0.7576238856338834  1.0000
  H   H47       1.0  0.545467859441743  0.956922501583456  0.2576229136754122  1.0000
  H   H48       1.0  0.45453292113790417  0.4569230141340767  0.24237583717562933  1.0000
  H   H49       1.0  0.18469484039074052  0.6704352162159423  0.5954509482019006  1.0000
  H   H50       1.0  0.8153048068998744  0.1704348543820728  0.904549377406788  1.0000
  H   H51       1.0  0.8153042784843477  0.3295656210599772  0.4045492274728133  1.0000
  H   H52       1.0  0.18469431197485867  0.8295649823246051  0.0954507982681463  1.0000
  H   H53       1.0  0.1222060317384006  0.7783716492817871  0.48869295687782716  1.0000
  H   H54       1.0  0.8777946237786055  0.27837170398017014  0.011306638655590019  1.0000
  H   H55       1.0  0.8777941378607325  0.2216291879948216  0.5113066095356161  1.0000
  H   H56       1.0  0.12220554582053471  0.7216291332964457  0.9886929277578532  1.0000
  H   H57       1.0  0.0240522612704908  0.7721899967297714  0.6977920181439572  1.0000
  H   H58       1.0  0.9759453576585104  0.2721878534528983  0.8022071839804781  1.0000
  H   H59       1.0  0.9759458083749596  0.22781284168466692  0.30220723547735423  1.0000
  H   H60       1.0  0.024053761215526496  0.7278099821152891  0.1977929916948966  1.0000
  H   H61       1.0  0.994535793304081  0.9134487746611692  0.6140501227340067  1.0000
  H   H62       1.0  0.005462975447351001  0.4134478059939965  0.8859476419517947  1.0000
  H   H63       1.0  0.005462277834745099  0.08655306318473777  0.3859475995732994  1.0000
  H   H64       1.0  0.9945361449211138  0.586552030713399  0.11405100240891393  1.0000
  C   C1        1.0  0.3114646205908898  0.9309995995552923  0.39400504190395225  1.0000
  C   C2        1.0  0.688535089722329  0.43100042023683466  0.10599586099579027  1.0000
  C   C3        1.0  0.6885376482147194  0.06899823601389699  0.6059956029589628  1.0000
  C   C4        1.0  0.3114640284055454  0.5689994164694808  0.8940050803362638  1.0000
  C   C5        1.0  0.3761557985822392  0.8114585850368954  0.458519722482464  1.0000
  C   C6        1.0  0.6238438299938521  0.3114574151471814  0.041479702011372376  1.0000
  C   C7        1.0  0.6238443702700351  0.1885422522393583  0.541480609588092  1.0000
  C   C8        1.0  0.37615633960493966  0.6885424215601857  0.9585198644022912  1.0000
  C   C9        1.0  0.39505056299192626  0.8282300789109623  0.5760959998220443  1.0000
  C   C10       1.0  0.6049491934160757  0.328229536796094  0.9239050216050658  1.0000
  C   C11       1.0  0.604948555135948  0.171769757795353  0.4239049415100028  1.0000
  C   C12       1.0  0.39505097543585077  0.6717702999109179  0.0760953104657105  1.0000
  C   C13       1.0  0.293460569161148  0.8878658959886535  0.7294414481535797  1.0000
  C   C14       1.0  0.7065381795382422  0.3878665763962985  0.7705586248259735  1.0000
  C   C15       1.0  0.7065385504604507  0.1121339407183797  0.2705579618642346  1.0000
  C   C16       1.0  0.29346199006054263  0.6121332603110685  0.22944094158769704  1.0000
  C   C17       1.0  0.3514229734488695  0.025501286355321895  0.7630783827915765  1.0000
  C   C18       1.0  0.6485765721856397  0.5255028738154692  0.7369227726203746  1.0000
  C   C19       1.0  0.6485771954030496  0.9744985503516901  0.23692194927919985  1.0000
  C   C20       1.0  0.3514235974134934  0.47449796346114664  0.2630767937930685  1.0000
  C   C21       1.0  0.25823347370734945  0.14188148211751883  0.7189153104960228  1.0000
  C   C22       1.0  0.7417672014393872  0.6418810989039015  0.7810874811175026  1.0000
  C   C23       1.0  0.7417677436280458  0.8581183545891019  0.28108670928482843  1.0000
  C   C24       1.0  0.2582340181362426  0.3581177372345578  0.2189122416922231  1.0000
  C   C25       1.0  0.14619153863782938  0.7718859286137556  0.5742579896488921  1.0000
  C   C26       1.0  0.8538071293104251  0.2718855766072892  0.9257421346626843  1.0000
  C   C27       1.0  0.8538075809841177  0.2281149086625262  0.42574142036870205  1.0000
  C   C28       1.0  0.14619093958712168  0.7281142600990547  0.0742578846164079  1.0000
  C   C29       1.0  0.0156985797023168  0.8055780264576738  0.6169591112404333  1.0000
  C   C30       1.0  0.9843011624277337  0.3055768144712161  0.8830403888982091  1.0000
  C   C31       1.0  0.9843005399199782  0.19442381138784973  0.38304029877694035  1.0000
  C   C32       1.0  0.0156990064241924  0.6944230222357887  0.11695994317256721  1.0000
  N   N1        1.0  0.2632606199669851  0.8682677893864291  0.6124157576232747  1.0000
  N   N2        1.0  0.7367391650640868  0.368267382882621  0.8875844804263268  1.0000
  N   N3        1.0  0.7367384989081033  0.13173304788949028  0.38758441805143923  1.0000
  N   N4        1.0  0.2632599545575117  0.6317324538244193  0.1124149295914876  1.0000
  N   N5        1.0  0.8910964192533513  0.7382961150064274  0.5542580041445931  1.0000
  N   N6        1.0  0.1089032752857477  0.23829717120272412  0.9457422914290917  1.0000
  N   N7        1.0  0.108903749598575  0.2617037217005772  0.4457423279261832  1.0000
  N   N8        1.0  0.8910958435893332  0.7617036660731955  0.05425788424562226  1.0000
  Cl  Cl1       1.0  0.3450083519128881  0.05620507821593888  0.06592077177876382  1.0000
  Cl  Cl2       1.0  0.6549910981968806  0.5562044847985703  0.4340795313451977  1.0000
  Cl  Cl3       1.0  0.6549897177318726  0.9437957590600091  0.9340784818429883  1.0000
  Cl  Cl4       1.0  0.34501011988537295  0.44379535190840597  0.5659217227785405  1.0000
  Cl  Cl5       1.0  0.9941488476798382  0.050824231044593694  0.14272126023269038  1.0000
  Cl  Cl6       1.0  0.0058505986844181995  0.5508262108939801  0.3572790452722145  1.0000
  Cl  Cl7       1.0  0.0058523696552086  0.9491746050927856  0.8572807595483809  1.0000
  Cl  Cl8       1.0  0.9941485194441457  0.4491756269508258  0.6427218960593919  1.0000
  O   O1        1.0  0.31647192565802135  0.9264470574495999  0.2957431666392836  1.0000
  O   O2        1.0  0.6835267315079249  0.4264467816566082  0.2042575818797658  1.0000
  O   O3        1.0  0.6835303438940983  0.0735497775507028  0.7042567125667318  1.0000
  O   O4        1.0  0.316471337389622  0.5735530550497356  0.7957424373993194  1.0000
  O   O5        1.0  0.25751619527403596  0.0241496339052247  0.4368564212213215  1.0000
  O   O6        1.0  0.7424821832870165  0.5241494553978329  0.0631429740370635  1.0000
  O   O7        1.0  0.7424829250937249  0.9758482016636876  0.5631422231398275  1.0000
  O   O8        1.0  0.2575169363345822  0.47585038130920754  0.9368564359807507  1.0000
  O   O9        1.0  0.1724394683405919  0.12820370758897326  0.6333039259189378  1.0000
  O   O10       1.0  0.8275611980302314  0.6282043108832766  0.8666981060909293  1.0000
  O   O11       1.0  0.8275617489947962  0.8717961291176477  0.3666980938619133  1.0000
  O   O12       1.0  0.1724389723154189  0.37179552582445297  0.1333006946656212  1.0000
  O   O13       1.0  0.27929760165392287  0.2513867650291957  0.7721409601221012  1.0000
  O   O14       1.0  0.7207042012065371  0.7513864154378564  0.7278604081068922  1.0000
  O   O15       1.0  0.7207025664511378  0.7486130716774538  0.2278601376057949  1.0000
  O   O16       1.0  0.2792980698403512  0.24861342127088898  0.2721379397842369  1.0000
