data_image0
_chemical_formula_structural       Zn8H35C70IO26
_chemical_formula_sum              "Zn8 H35 C70 I1 O26"
_cell_length_a       18.176824057641245
_cell_length_b       18.282351697275825
_cell_length_c       18.434348383222424
_cell_angle_alpha    90.10092029469557
_cell_angle_beta     120.1478424647088
_cell_angle_gamma    119.7090922245403

_space_group_name_H-M_alt    "P 1"
_space_group_IT_number       1

loop_
  _space_group_symop_operation_xyz
  'x, y, z'

loop_
  _atom_site_type_symbol
  _atom_site_label
  _atom_site_symmetry_multiplicity
  _atom_site_fract_x
  _atom_site_fract_y
  _atom_site_fract_z
  _atom_site_occupancy
  Zn  Zn1       1.0  0.07859161290969788  0.9457301348392808  0.5454964582161923  1.0000
  Zn  Zn2       1.0  0.09312306390865654  0.13296852822125527  0.5512594842543096  1.0000
  Zn  Zn3       1.0  0.9144627279474947  0.9605917532373031  0.5485987943013769  1.0000
  Zn  Zn4       1.0  0.920539927714046  0.9613424024247409  0.3759395402528727  1.0000
  Zn  Zn5       1.0  0.9062796991008925  0.542051941308657  0.9612290742379487  1.0000
  Zn  Zn6       1.0  0.0826797652702997  0.5446057154230605  0.9592173383713389  1.0000
  Zn  Zn7       1.0  0.9149128633482277  0.37094560107668445  0.9641713558538215  1.0000
  Zn  Zn8       1.0  0.08797490548638379  0.5487209357277153  0.13622897589321792  1.0000
  H   H1        1.0  0.9522659421423042  0.6125481798266394  0.2826957161393083  1.0000
  H   H2        1.0  0.4056040452239318  0.7569112277857288  0.29306462234710307  1.0000
  H   H3        1.0  0.05603840057813171  0.3072975555458016  0.40326573314996494  1.0000
  H   H4        1.0  0.830570790340694  0.6827982617482392  0.2280227318288795  1.0000
  H   H5        1.0  0.0039055645403963937  0.053163489050348386  0.2523174334914203  1.0000
  H   H6        1.0  0.0009251948756770312  0.014463679493943022  0.12289475152377351  1.0000
  H   H7        1.0  0.01196708801446533  0.11397622745094083  0.030372263973340818  1.0000
  H   H8        1.0  0.02252608743356895  0.24977656500567494  0.0666939382274663  1.0000
  H   H9        1.0  0.0574452050252959  0.4026471166673035  0.3060831479090211  1.0000
  H   H10       1.0  0.9462362439269472  0.10673170048652043  0.7469720409162691  1.0000
  H   H11       1.0  0.006102887893576079  0.26804573033032164  0.5555446812637471  1.0000
  H   H12       1.0  0.7956042516728773  0.44583890835066614  0.5624232677071036  1.0000
  H   H13       1.0  0.012536270935655375  0.4016681680171106  0.5259826277289152  1.0000
  H   H14       1.0  0.001906184957981539  0.49252816883992534  0.6173109126362136  1.0000
  H   H15       1.0  0.9881741517583652  0.4508569301180716  0.738462335191116  1.0000
  H   H16       1.0  0.8663485375124724  0.72022849713278  0.09471653794155094  1.0000
  H   H17       1.0  0.942635710490251  0.20069009372664248  0.842404444691404  1.0000
  H   H18       1.0  0.4062960516869652  0.12060190891973838  0.7790198233569329  1.0000
  H   H19       1.0  0.3992880837126693  0.2994671683202272  0.4548185661038176  1.0000
  H   H20       1.0  0.5861159926333885  0.42238152958066194  0.5635114163374981  1.0000
  H   H21       1.0  0.6840066805396892  0.4204854775648601  0.7159148880786648  1.0000
  H   H22       1.0  0.6003632567018333  0.22231677019234342  0.8740894895527377  1.0000
  H   H23       1.0  0.8842889542884936  0.5167285433849644  0.7217143047187806  1.0000
  H   H24       1.0  0.04538735395293994  0.8933736327535444  0.21839886535942551  1.0000
  H   H25       1.0  0.16767537022730059  0.8235110949219548  0.2742230754440769  1.0000
  H   H26       1.0  0.13081342652595432  0.7853402933773668  0.407064423276971  1.0000
  H   H27       1.0  0.04849348490886066  0.9019867707546328  0.8052272219450034  1.0000
  H   H28       1.0  0.884884220611788  0.700209597043113  0.5221437561291254  1.0000
  H   H29       1.0  0.7964171069310525  0.5379927704598516  0.4623994161314259  1.0000
  H   H30       1.0  0.052693278904037626  0.8106016763076556  0.9060560306716143  1.0000
  H   H31       1.0  0.5996656153207597  0.8494674560435842  0.39145556060051234  1.0000
  H   H32       1.0  0.694759389296529  0.7301576548137734  0.24786584057302732  1.0000
  H   H33       1.0  0.5978513848210768  0.6015031864274861  0.1168476042986769  1.0000
  H   H34       1.0  0.40377480616059114  0.5079963125101942  0.019193922190297134  1.0000
  H   H35       1.0  0.30803224375360855  0.5439244181007796  0.052501777895834406  1.0000
  C   C1        1.0  0.013643084521518755  0.14648848652954882  0.3721182429257297  1.0000
  C   C2        1.0  0.8847003812446989  0.5572557764797923  0.6784666033486675  1.0000
  C   C3        1.0  0.9355596805524873  0.6504371764177111  0.7149945662199146  1.0000
  C   C4        1.0  0.9874704523799029  0.856350503534927  0.6392754606226208  1.0000
  C   C5        1.0  0.9349626949155554  0.7033669923123614  0.657407923263911  1.0000
  C   C6        1.0  0.9797267689979141  0.7957084830895272  0.6933546278813696  1.0000
  C   C7        1.0  0.017993724391431352  0.832148739054631  0.7803379289067608  1.0000
  C   C8        1.0  0.020089942318286647  0.7806786910437826  0.8370180522834193  1.0000
  C   C9        1.0  0.9827107636911881  0.6924372588747194  0.8060339444691781  1.0000
  C   C10       1.0  0.6102585637300565  0.6894699778199184  0.20584740880190117  1.0000
  C   C11       1.0  0.5559455454612563  0.6176759256723232  0.13234309420757748  1.0000
  C   C12       1.0  0.9252274756224355  0.7354249262362134  0.16434507651607097  1.0000
  C   C13       1.0  0.44630705628298983  0.5648939597668489  0.07709481474987001  1.0000
  C   C14       1.0  0.39250653137988684  0.584758161627363  0.09589912314442729  1.0000
  C   C15       1.0  0.4455950108927882  0.6580505198517629  0.1713036191113133  1.0000
  C   C16       1.0  0.2745389262373053  0.12386088457112274  0.6324844692496258  1.0000
  C   C17       1.0  0.5576633250360531  0.7117610076738786  0.22796329245686314  1.0000
  C   C18       1.0  0.6114334001048936  0.7828844690610598  0.3063859319874427  1.0000
  C   C19       1.0  0.556808129420702  0.7964594570437316  0.3301368875026825  1.0000
  C   C20       1.0  0.44795544564178186  0.7445359883537466  0.2749225891102471  1.0000
  C   C21       1.0  0.3926322293032103  0.6783891579129603  0.19565670748349379  1.0000
  C   C22       1.0  0.008692232728321966  0.09697232642407985  0.21265648874362605  1.0000
  C   C23       1.0  0.02467404758704113  0.8304644287710446  0.2322089132759046  1.0000
  C   C24       1.0  0.006647700251200251  0.07515053328360476  0.13978160201514814  1.0000
  C   C25       1.0  0.01241817394224408  0.13108452936376125  0.08737711294916295  1.0000
  C   C26       1.0  0.018705224685177883  0.20741915871553127  0.1078225170645695  1.0000
  C   C27       1.0  0.020640084816335554  0.23217343659274559  0.18227955724862713  1.0000
  C   C28       1.0  0.7270733218905862  0.847440350087105  0.36505629915731663  1.0000
  C   C29       1.0  0.01680005994262508  0.17587545190278323  0.236956794593823  1.0000
  C   C30       1.0  0.026102746396226634  0.20383207488841046  0.31563249565793683  1.0000
  C   C31       1.0  0.045119855595111065  0.2860156312487947  0.34135053444057223  1.0000
  C   C32       1.0  0.04654853899553067  0.3397452227393033  0.287176069466753  1.0000
  C   C33       1.0  0.030546051023307583  0.31257675543511715  0.2073244893324926  1.0000
  C   C34       1.0  0.09288159595566023  0.7929580457819939  0.2645667983014734  1.0000
  C   C35       1.0  0.0016209136740671325  0.30733699317247704  0.595571794096692  1.0000
  C   C36       1.0  0.005585168024922249  0.38233495158384323  0.5793587078924392  1.0000
  C   C37       1.0  0.9999411611621132  0.4337887298503634  0.630979423687464  1.0000
  C   C38       1.0  0.9914467169499235  0.41009166879548115  0.6987079772734222  1.0000
  C   C39       1.0  0.9869276922041555  0.3331647308036242  0.717584651252871  1.0000
  C   C40       1.0  0.989606210659744  0.1423446693257092  0.6306973149884315  1.0000
  C   C41       1.0  0.9913031226319409  0.27997033376239266  0.6639864320735074  1.0000
  C   C42       1.0  0.9798054531416228  0.19925100426812045  0.6787515191526837  1.0000
  C   C43       1.0  0.9586002704660287  0.17015356057665812  0.739552093007383  1.0000
  C   C44       1.0  0.9560820934794664  0.22259060249474064  0.7927298467450825  1.0000
  C   C45       1.0  0.07260034040587753  0.7705490089934559  0.33736000945161493  1.0000
  C   C46       1.0  0.9734852001326362  0.30405827135340513  0.7848136565348369  1.0000
  C   C47       1.0  0.38844251460315604  0.23578188446857945  0.5500073747476293  1.0000
  C   C48       1.0  0.4401002234820129  0.30185232317320065  0.5237259410858998  1.0000
  C   C49       1.0  0.5464235183941285  0.370451158773058  0.5850615293839923  1.0000
  C   C50       1.0  0.600983247359409  0.36965181823621446  0.6701645257139293  1.0000
  C   C51       1.0  0.550315239696353  0.3032160697618309  0.6996784073059317  1.0000
  C   C52       1.0  0.006699506986031505  0.8660554715327894  0.3640553198516798  1.0000
  C   C53       1.0  0.43897907005441567  0.23671400686105695  0.6398727608774595  1.0000
  C   C54       1.0  0.38882200621746704  0.17556844757682924  0.6740414001633256  1.0000
  C   C55       1.0  0.4466972144963819  0.16959214772781186  0.7558764337676678  1.0000
  C   C56       1.0  0.005964484994919695  0.8089277857764048  0.3062920367853439  1.0000
  C   C57       1.0  0.5553315566979152  0.22798864362213345  0.8101546373703175  1.0000
  C   C58       1.0  0.6064928616308268  0.2966386535386934  0.7855137275459328  1.0000
  C   C59       1.0  0.277325161817558  0.6315515660540784  0.1386069979596415  1.0000
  C   C60       1.0  0.7214147093219979  0.3604709356837574  0.853130188123778  1.0000
  C   C61       1.0  0.9932192445784557  0.641649843380272  0.8697577764314703  1.0000
  C   C62       1.0  0.019367363215103277  0.3683281178907692  0.14865798383235074  1.0000
  C   C63       1.0  0.9821460385867699  0.3602630964266426  0.8515521627983988  1.0000
  C   C64       1.0  0.9051535221647812  0.7130901248087725  0.23722125237689076  1.0000
  C   C65       1.0  0.9898565407087504  0.6365488319938636  0.13988389824919523  1.0000
  C   C66       1.0  0.9732047606385239  0.6757675501963477  0.26956377845557716  1.0000
  C   C67       1.0  0.884867433898471  0.6605338203007494  0.5661419155533665  1.0000
  C   C68       1.0  0.9929824158697614  0.6980134144414054  0.19557629188484074  1.0000
  C   C69       1.0  0.8357174276682005  0.5698231673228096  0.5328746895530473  1.0000
  C   C70       1.0  0.8351615703828731  0.5176183111750776  0.5893234508629918  1.0000
  I   I1        1.0  0.238067390845366  0.12588851821574565  0.4439177742801946  1.0000
  O   O1        1.0  0.0030735144106941647  0.0018192097183984729  0.5061617482491415  1.0000
  O   O2        1.0  0.9581755457544151  0.3278368783401719  0.06462475527222014  1.0000
  O   O3        1.0  0.048941786303963807  0.4444420585636597  0.8792113017451871  1.0000
  O   O4        1.0  0.9454468794604054  0.06253878548711367  0.3318875094643304  1.0000
  O   O5        1.0  0.06361429975559947  0.6262127509313445  0.18036090003590036  1.0000
  O   O6        1.0  0.9246048989369772  0.3193036734952417  0.8781541955812601  1.0000
  O   O7        1.0  0.9142095056950481  0.5986517657703844  0.05740629694138734  1.0000
  O   O8        1.0  0.952940428227173  0.636836715669418  0.9111355025317424  1.0000
  O   O9        1.0  0.06892494150518068  0.45168495704032113  0.18716880149598591  1.0000
  O   O10       1.0  0.23093260285612174  0.6100792826456926  0.054258148911039035  1.0000
  O   O11       1.0  0.7675997355491834  0.32611722170838714  0.8992492263092092  1.0000
  O   O12       1.0  0.22767940778364715  0.040873221856919974  0.6229491674272368  1.0000
  O   O13       1.0  0.02977724506475759  0.8581138419917667  0.6005348807615862  1.0000
  O   O14       1.0  0.2377574152875186  0.1703491959781119  0.6183299244759299  1.0000
  O   O15       1.0  0.769047540085147  0.8730060380590177  0.4484353646116617  1.0000
  O   O16       1.0  0.0625269378980563  0.1813569052302242  0.6200636386076184  1.0000
  O   O17       1.0  0.9603424177452881  0.9033717004803707  0.32646127928620694  1.0000
  O   O18       1.0  0.9245907945549731  0.05811547183642323  0.6063276575965233  1.0000
  O   O19       1.0  0.051094675785180094  0.8715644644175813  0.44575752416000836  1.0000
  O   O20       1.0  0.7737472239390188  0.8737693271955325  0.32716981947513807  1.0000
  O   O21       1.0  0.06968380113475098  0.1863049935724562  0.45580312235922804  1.0000
  O   O22       1.0  0.9532589732636368  0.9030647328575301  0.6379145086913809  1.0000
  O   O23       1.0  0.9981801400372208  0.5017663875542767  0.005603291436472175  1.0000
  O   O24       1.0  0.23482408011314976  0.6190773626201748  0.17947271755922864  1.0000
  O   O25       1.0  0.7642930788770957  0.44353177509084696  0.8620983921617978  1.0000
  O   O26       1.0  0.0429743953668693  0.6081659603985586  0.8778091999040641  1.0000
