data_image0
_chemical_formula_structural       Zn4H38C48N42O2
_chemical_formula_sum              "Zn4 H38 C48 N42 O2"
_cell_length_a       8.43706624061981
_cell_length_b       9.540812638467687
_cell_length_c       18.520410627327163
_cell_angle_alpha    80.9765782931278
_cell_angle_beta     79.84301272474704
_cell_angle_gamma    73.53120684356334

_space_group_name_H-M_alt    "P 1"
_space_group_IT_number       1

loop_
  _space_group_symop_operation_xyz
  'x, y, z'

loop_
  _atom_site_type_symbol
  _atom_site_label
  _atom_site_symmetry_multiplicity
  _atom_site_fract_x
  _atom_site_fract_y
  _atom_site_fract_z
  _atom_site_occupancy
  Zn  Zn1       1.0  0.7834530883678  0.9540942367035182  0.18203207009716496  1.0000
  Zn  Zn2       1.0  0.2165475367852494  0.04590574534007891  0.8179676177204058  1.0000
  Zn  Zn3       1.0  0.2069815013915602  0.7585614010561484  0.13895622361814472  1.0000
  Zn  Zn4       1.0  0.7930194515059982  0.24143748206657284  0.8610440671503952  1.0000
  H   H1        1.0  0.9978190048557138  0.9484976846703433  0.06850088098871512  1.0000
  H   H2        1.0  0.0021810729500658034  0.051500097358086784  0.9314990295058508  1.0000
  H   H3        1.0  0.4570039538159919  0.49449371047779067  0.3256782751017155  1.0000
  H   H4        1.0  0.54299667068792  0.5055062726824956  0.6743219526223144  1.0000
  H   H5        1.0  0.3924303358424552  0.4693391673313698  0.24394250245143917  1.0000
  H   H6        1.0  0.6075718205405352  0.5306597168480707  0.7560582316355635  1.0000
  H   H7        1.0  0.6181565659912921  0.7835483982728988  0.3606532847698957  1.0000
  H   H8        1.0  0.3818437314172486  0.2164526826915747  0.6393458000967129  1.0000
  H   H9        1.0  0.7135594859749971  0.7455541761069142  0.4426721622693606  1.0000
  H   H10       1.0  0.2864396066498287  0.2544469060342252  0.5573275590916964  1.0000
  H   H11       1.0  0.6630559814650571  0.5959804304362563  0.0600611528027812  1.0000
  H   H12       1.0  0.33694278211697787  0.404021752859144  0.9399390454202319  1.0000
  H   H13       1.0  0.8596440954530565  0.7264872427187825  0.08696668261568163  1.0000
  H   H14       1.0  0.14035652775256582  0.27351274267489595  0.9130346249212663  1.0000
  H   H15       1.0  0.2359107659493915  0.13478410681257463  0.32134963318005566  1.0000
  H   H16       1.0  0.7640896383026146  0.8652125785283715  0.6786519600783977  1.0000
  H   H17       1.0  0.09158517566086029  0.004832788809707699  0.257415719468014  1.0000
  H   H18       1.0  0.9084136960629227  0.99516499662878  0.7425859073339183  1.0000
  H   H19       1.0  0.7413886385634357  0.3258361843040162  0.06381675444193043  1.0000
  H   H20       1.0  0.25861045471053506  0.674164896720427  0.9361824270126676  1.0000
  H   H21       1.0  0.8136240785887524  0.5189397385226256  0.3256049909100228  1.0000
  H   H22       1.0  0.186375997918745  0.4810580457391963  0.6743959993974685  1.0000
  H   H23       1.0  0.021698254017302115  0.17217819983478927  0.0909675600525119  1.0000
  H   H24       1.0  0.9783008392566688  0.827822881189654  0.9090316214020862  1.0000
  H   H25       1.0  0.09841230786607012  0.3848768711622128  0.3559116024495381  1.0000
  H   H26       1.0  0.9015871112049824  0.6151231142914426  0.6440898016753992  1.0000
  H   H27       1.0  0.8650174352642922  0.8948024007733577  0.5117141192582936  1.0000
  H   H28       1.0  0.13498789958358512  0.10520197665387339  0.4882826738154762  1.0000
  H   H29       1.0  0.6989611143116151  0.3471626113749481  0.5576887968839515  1.0000
  H   H30       1.0  0.3010361173913339  0.6528406709013055  0.4423108949760887  1.0000
  H   H31       1.0  0.49695116078633816  0.411133059186767  0.46427542829130186  1.0000
  H   H32       1.0  0.5030464006085538  0.5888691208185293  0.5357232468003232  1.0000
  H   H33       1.0  0.8706290960208989  0.0960253246756366  0.58163892845851  1.0000
  H   H34       1.0  0.129372953518626  0.9039779551273384  0.41835929723664833  1.0000
  H   H35       1.0  0.2938996799052234  0.09980729877697309  0.12334398145876695  1.0000
  H   H36       1.0  0.7060985363295416  0.9001926845032671  0.8766564394412413  1.0000
  H   H37       1.0  0.40387022554776314  0.15207201585149477  0.18338077596434493  1.0000
  H   H38       1.0  0.5961291948215789  0.8479279673687683  0.8166195483476741  1.0000
  C   C1        1.0  0.09542223978223771  0.36713182494956  0.10564096018499922  1.0000
  C   C2        1.0  0.9045771818853866  0.6328681560373184  0.8943582843141017  1.0000
  C   C3        1.0  0.049683110176552185  0.5214056603833654  0.105904447926882  1.0000
  C   C4        1.0  0.950317842721006  0.4785932227393558  0.894095842841651  1.0000
  C   C5        1.0  0.49291550323103916  0.49311323859610207  0.2658240109422749  1.0000
  C   C6        1.0  0.5070851212728655  0.5068867445641841  0.7341762167817549  1.0000
  C   C7        1.0  0.8682238997742929  0.18836308740532806  0.25874906408560616  1.0000
  C   C8        1.0  0.13177344007041122  0.8116357970140058  0.7412520563533535  1.0000
  C   C9        1.0  0.7065296930420362  0.8123928504793695  0.3888388571870537  1.0000
  C   C10       1.0  0.2934693995827899  0.18760823166176976  0.6111608641740034  1.0000
  C   C11       1.0  0.7848632270794269  0.5329029504362096  0.07480723494578001  1.0000
  C   C12       1.0  0.2151367412863223  0.4670992316825249  0.9251923267827847  1.0000
  C   C13       1.0  0.7918591945197947  0.3327539179955465  0.2772914564593592  1.0000
  C   C14       1.0  0.20814175837776366  0.6672449651271819  0.7227088343091737  1.0000
  C   C15       1.0  0.8925883952123641  0.6072065537049909  0.0895447199355388  1.0000
  C   C16       1.0  0.10741069741246892  0.39279452843615564  0.9104550014255182  1.0000
  C   C17       1.0  0.1099673428066907  0.18797415092271308  0.3084876882846217  1.0000
  C   C18       1.0  0.8900299957397309  0.812024735730006  0.691514511967263  1.0000
  C   C19       1.0  0.03072152097406191  0.11434040050509246  0.27345157051049546  1.0000
  C   C20       1.0  0.9692792110224531  0.8856551859149704  0.7265506256989198  1.0000
  C   C21       1.0  0.8313551984633136  0.3779036137992192  0.07587219403330892  1.0000
  C   C22       1.0  0.16864236293157125  0.622098566206077  0.9241264810583161  1.0000
  C   C23       1.0  0.8720585010662418  0.4069598060436165  0.3128206742255558  1.0000
  C   C24       1.0  0.12794004291303201  0.5930390783157478  0.6871803496254145  1.0000
  C   C25       1.0  0.9868852844541464  0.29135208967777965  0.09083027322700596  1.0000
  C   C26       1.0  0.013116873876278145  0.7086467911515868  0.9091688411406197  1.0000
  C   C27       1.0  0.031266409600213825  0.3315773250124607  0.3282690508848987  1.0000
  C   C28       1.0  0.9687324627727141  0.6684204593093311  0.6717320360105746  1.0000
  C   C29       1.0  0.8762839428185389  0.7782774285829746  0.344624589130362  1.0000
  C   C30       1.0  0.12371394502257971  0.2217236547348307  0.6553757687251505  1.0000
  C   C31       1.0  0.6763662874658537  0.043463063710532907  0.44844052498527287  1.0000
  C   C32       1.0  0.323635541172628  0.9565369193897907  0.551559606150775  1.0000
  C   C33       1.0  0.5707208068864419  0.18688393367072817  0.43585244068852097  1.0000
  C   C34       1.0  0.42927970947572214  0.8131204473464846  0.5641463584565898  1.0000
  C   C35       1.0  0.786280708894381  0.0059290826536156  0.5010938473542551  1.0000
  C   C36       1.0  0.21372068320870616  0.9940763983411924  0.4989047921583564  1.0000
  C   C37       1.0  0.6870805070881049  0.26395032977950444  0.5262515808435921  1.0000
  C   C38       1.0  0.31291946127764464  0.736051852339237  0.4737479808849727  1.0000
  C   C39       1.0  0.5767842777593304  0.30015185219509277  0.4746307690776561  1.0000
  C   C40       1.0  0.4232154729510852  0.6998470276375243  0.5253679985594888  1.0000
  C   C41       1.0  0.7883095477519007  0.11885398780132311  0.5396880717069338  1.0000
  C   C42       1.0  0.21169348761772272  0.8811459907722464  0.46030980321527437  1.0000
  C   C43       1.0  0.5181053699337427  0.6388815786012216  0.23081956072694962  1.0000
  C   C44       1.0  0.48189525392102445  0.3611184056757607  0.7691812069035465  1.0000
  C   C45       1.0  0.36656980561010494  0.17595754031056288  0.12805365448435427  1.0000
  C   C46       1.0  0.6334272064900903  0.8240424430296469  0.8719468630036431  1.0000
  C   C47       1.0  0.5179652070804934  0.15604036380344866  0.07108197018467172  1.0000
  C   C48       1.0  0.48203333754792516  0.8439585194392194  0.9289185137598465  1.0000
  N   N1        1.0  0.18554238668053818  0.5584606662096689  0.1211807515289749  1.0000
  N   N2        1.0  0.8144570336887966  0.4415393170106015  0.8788195727830442  1.0000
  N   N3        1.0  0.7557204915153974  0.14802110578342823  0.2258855462560448  1.0000
  N   N4        1.0  0.2442789288539444  0.851978877436835  0.7741147780559743  1.0000
  N   N5        1.0  0.6389530160858641  0.3685093163906927  0.2528004806751838  1.0000
  N   N6        1.0  0.3610467326771243  0.6314895667920054  0.7471999066813382  1.0000
  N   N7        1.0  0.6200353360438057  0.2561105060208178  0.22269578059988498  1.0000
  N   N8        1.0  0.37996528910924343  0.7438894760227797  0.7773039072176857  1.0000
  N   N9        1.0  0.9118563938811591  0.815753376737909  0.2717051193416681  1.0000
  N   N10       1.0  0.08814390287824382  0.18424770534325316  0.7282945054314  1.0000
  N   N11       1.0  0.3090741299301812  0.4395957355274405  0.12978575740769574  1.0000
  N   N12       1.0  0.6909264952228755  0.5604042465161568  0.8702139304098749  1.0000
  N   N13       1.0  0.2567950937501352  0.3241732633632494  0.1205593410093257  1.0000
  N   N14       1.0  0.7432043272683445  0.6758267187403176  0.8794404433962343  1.0000
  N   N15       1.0  0.13733741276717387  0.6816152515242067  0.3157643386136968  1.0000
  N   N16       1.0  0.8626623359958147  0.31838363165849165  0.6842360487428253  1.0000
  N   N17       1.0  0.07616758545140107  0.7535181404395814  0.2553794751514502  1.0000
  N   N18       1.0  0.9238339141442821  0.2464829438150034  0.7446211328465466  1.0000
  N   N19       1.0  0.013967105338778742  0.695315476426927  0.3729099011040661  1.0000
  N   N20       1.0  0.9860323143814183  0.3046845079100321  0.6270909631144194  1.0000
  N   N21       1.0  0.6369081755668802  0.9660055041968365  0.4011013417391212  1.0000
  N   N22       1.0  0.3630909177070904  0.033995576827607  0.5988978397154768  1.0000
  N   N23       1.0  0.5145492566723817  0.05460354012107159  0.3627442060585722  1.0000
  N   N24       1.0  0.4854501656443873  0.9453964397491105  0.6372544985340697  1.0000
  N   N25       1.0  0.4736808796285885  0.18653919821475282  0.3831434001311678  1.0000
  N   N26       1.0  0.5263194184290967  0.8134618816330315  0.6168551448289821  1.0000
  N   N27       1.0  0.4259441031245855  0.7329356864933203  0.181588698085271  1.0000
  N   N28       1.0  0.5740577248647583  0.2670642977236922  0.8184119729572288  1.0000
  N   N29       1.0  0.4883980243387852  0.8497380117287464  0.1648068728176071  1.0000
  N   N30       1.0  0.5116029285587801  0.15026087139397498  0.8351934179509328  1.0000
  N   N31       1.0  0.6135815643002334  0.826185228073733  0.20266647359319018  1.0000
  N   N32       1.0  0.38642026368910365  0.1738147561432797  0.7973341974493168  1.0000
  N   N33       1.0  0.6350683747279361  0.6959853855978722  0.24490589170363822  1.0000
  N   N34       1.0  0.3649325781696291  0.3040134975248492  0.7550943990648946  1.0000
  N   N35       1.0  0.6698726519227876  0.06963379689765502  0.08345338137715429  1.0000
  N   N36       1.0  0.3301267684465474  0.9303661863226153  0.9165469429348648  1.0000
  N   N37       1.0  0.5212642779604266  0.21790457170359898  0.0010336304984476944  1.0000
  N   N38       1.0  0.47873547145169953  0.7820943103624032  0.9989662169516152  1.0000
  N   N39       1.0  0.7698807297625622  0.07743454117079548  0.01893544657858834  1.0000
  N   N40       1.0  0.23011869060677265  0.9225654420494678  0.981064877733438  1.0000
  N   N41       1.0  0.6797410805531287  0.1667944878883034  0.9702958533011953  1.0000
  N   N42       1.0  0.32025954395078327  0.8332054952719901  0.029704374422834735  1.0000
  O   O1        1.0  0.0038487228136078644  0.9152994405395984  0.12080355881445122  1.0000
  O   O2        1.0  0.9961494934211572  0.08470054274063442  0.8791968620855641  1.0000
