data_image0
_chemical_formula_structural       Co4H36C48N4O26
_chemical_formula_sum              "Co4 H36 C48 N4 O26"
_cell_length_a       10.136081099024342
_cell_length_b       17.90547728924152
_cell_length_c       18.080359408352
_cell_angle_alpha    90.00820792852
_cell_angle_beta     93.81739190790911
_cell_angle_gamma    89.99783154431998

_space_group_name_H-M_alt    "P 1"
_space_group_IT_number       1

loop_
  _space_group_symop_operation_xyz
  'x, y, z'

loop_
  _atom_site_type_symbol
  _atom_site_label
  _atom_site_symmetry_multiplicity
  _atom_site_fract_x
  _atom_site_fract_y
  _atom_site_fract_z
  _atom_site_occupancy
  Co  Co1       1.0  0.5029524990329294  0.6953152978479265  0.6371792667245657  1.0000
  Co  Co2       1.0  0.2837564994240225  0.7396456735436134  0.5021189017394362  1.0000
  Co  Co3       1.0  0.4970930939971153  0.19529367358135372  0.362950764502841  1.0000
  Co  Co4       1.0  0.7161848396198139  0.23967077651290952  0.4977957243473126  1.0000
  H   H1        1.0  0.6740654306694013  0.009522513550614101  0.7723587853103806  1.0000
  H   H2        1.0  0.839392781542408  0.14143163230453842  0.08680013839059339  1.0000
  H   H3        1.0  0.001830644110945904  0.15958770018211516  0.7869235684439102  1.0000
  H   H4        1.0  0.11140251952402022  0.1676565388283393  0.9156600631970946  1.0000
  H   H5        1.0  0.7630764513964863  0.07316622833620559  0.0027705614012418886  1.0000
  H   H6        1.0  0.6575155323028528  0.0632038614427231  0.8775778262191094  1.0000
  H   H7        1.0  0.5885003777048254  0.9123339623960124  0.6980877968228751  1.0000
  H   H8        1.0  0.43996712988249703  0.9623554686923442  0.4754885025158372  1.0000
  H   H9        1.0  0.6191523670716209  0.1364752753418941  0.6103947342911196  1.0000
  H   H10       1.0  0.18725754696917113  0.15456407263949506  0.168748826190388  1.0000
  H   H11       1.0  0.048416995669079206  0.20782624683833015  0.3821990301806578  1.0000
  H   H12       1.0  0.7668365701123179  0.1601997104998105  0.20003042999064746  1.0000
  H   H13       1.0  0.11710410434052682  0.8546336079632939  0.503392642645565  1.0000
  H   H14       1.0  0.15682643524482393  0.8361246732270331  0.42377102906552006  1.0000
  H   H15       1.0  0.0663939528482231  0.6672110019940762  0.4642117148706573  1.0000
  H   H16       1.0  0.156674320387225  0.644682062876811  0.3996996478516975  1.0000
  H   H17       1.0  0.27918888587867496  0.7343244474654753  0.3408028902759809  1.0000
  H   H18       1.0  0.3937278733055151  0.7900043583320837  0.3696107474302223  1.0000
  H   H19       1.0  0.32590190932209856  0.5094593806545691  0.22762615164574376  1.0000
  H   H20       1.0  0.16063071415710792  0.6414399034461982  0.9131709226671418  1.0000
  H   H21       1.0  0.9982279667042138  0.6596174136827672  0.21309575881981146  1.0000
  H   H22       1.0  0.8886547481696567  0.6677397098898015  0.08435648117551858  1.0000
  H   H23       1.0  0.23691460021961325  0.5731565883227534  0.9972094208455431  1.0000
  H   H24       1.0  0.3424671542795111  0.5631217219990462  0.12239763174978437  1.0000
  H   H25       1.0  0.41151414555473304  0.4122651051569761  0.30187582526168905  1.0000
  H   H26       1.0  0.5600012316424667  0.4623425801933436  0.5244930086237787  1.0000
  H   H27       1.0  0.3807549205517589  0.6364250151236136  0.389631663379923  1.0000
  H   H28       1.0  0.8127062752209894  0.6545999809931119  0.831275279104112  1.0000
  H   H29       1.0  0.9515107718342507  0.7078627525819385  0.6178139683459207  1.0000
  H   H30       1.0  0.23311930781228093  0.6602162061365959  0.7999747838810689  1.0000
  H   H31       1.0  0.8831439177066611  0.3544974416805786  0.49663109169080133  1.0000
  H   H32       1.0  0.8432325766236844  0.3361009111916858  0.5762494806802536  1.0000
  H   H33       1.0  0.9334846246958934  0.1671330546971888  0.5357780162214283  1.0000
  H   H34       1.0  0.843239018002521  0.1446333134699174  0.6002866773205965  1.0000
  H   H35       1.0  0.7207470364673084  0.23434051745864076  0.6591688348431717  1.0000
  H   H36       1.0  0.6062344424253824  0.2900449628986765  0.63040865676912  1.0000
  C   C1        1.0  0.8241830742723978  0.10970680004604821  0.8234126291697021  1.0000
  C   C2        1.0  0.951296419042045  0.1405225245893433  0.8347855544436057  1.0000
  C   C3        1.0  0.0114782656962475  0.1457027245251865  0.905810641776462  1.0000
  C   C4        1.0  0.9445849273311708  0.12286613585416008  0.9674165628959056  1.0000
  C   C5        1.0  0.817051861555669  0.09271949762737111  0.9562193812699816  1.0000
  C   C6        1.0  0.7577000273770835  0.08561264830969151  0.8847776158311261  1.0000
  C   C7        1.0  0.7657837870909178  0.10490605103226612  0.745832791831006  1.0000
  C   C8        1.0  0.0177347527254739  0.1324170950724408  0.042029688161498796  1.0000
  C   C9        1.0  0.6135831556903711  0.027564976249401203  0.6626694660497846  1.0000
  C   C10       1.0  0.5710063744325353  0.9535272783286147  0.6539912619636894  1.0000
  C   C11       1.0  0.5054585725206097  0.9304659495685785  0.587339498701226  1.0000
  C   C12       1.0  0.4872857134078501  0.9804968182080676  0.5282370393243738  1.0000
  C   C13       1.0  0.5315217394238944  0.05409720050055001  0.5368963541290268  1.0000
  C   C14       1.0  0.5905982787938626  0.07843482666113033  0.604673079798971  1.0000
  C   C15       1.0  0.4587550901477259  0.851194062573903  0.5796659417860397  1.0000
  C   C16       1.0  0.519951831223736  0.10655541501567004  0.4732315835475801  1.0000
  C   C17       1.0  0.973981020534268  0.15616728207560734  0.17502311194217407  1.0000
  C   C18       1.0  0.10552849660105322  0.1629744219224634  0.20373073653347254  1.0000
  C   C19       1.0  0.13032345229871822  0.18135610028957677  0.2786459183929607  1.0000
  C   C20       1.0  0.026493223484713706  0.19294638340601009  0.3243563155433051  1.0000
  C   C21       1.0  0.8957599836372337  0.18501221637965415  0.29580060502290445  1.0000
  C   C22       1.0  0.8696718261644918  0.16631503570560818  0.2212932736794002  1.0000
  C   C23       1.0  0.2687424819553997  0.18890049691229654  0.3114925660153815  1.0000
  C   C24       1.0  0.7844487665338208  0.1964436551256057  0.34486906035689907  1.0000
  C   C25       1.0  0.17582784512652694  0.6096774599216062  0.17657831509174565  1.0000
  C   C26       1.0  0.04874155187517461  0.6405450960403131  0.16521750371183686  1.0000
  C   C27       1.0  0.9885703223240301  0.6457578053222051  0.0941935893996728  1.0000
  C   C28       1.0  0.05545010907768951  0.6229078140905244  0.0325728177179343  1.0000
  C   C29       1.0  0.18294998161469073  0.5927120231844328  0.043771554056647184  1.0000
  C   C30       1.0  0.2423012104716875  0.585566250209091  0.1152100748083171  1.0000
  C   C31       1.0  0.23419673520634632  0.6048554551958463  0.25415511066910307  1.0000
  C   C32       1.0  0.9822829422311373  0.6324739108048263  0.9579647520757247  1.0000
  C   C33       1.0  0.38637536769795133  0.5275058753476997  0.337318210393171  1.0000
  C   C34       1.0  0.4289843986246923  0.45347394947899033  0.34597277802631504  1.0000
  C   C35       1.0  0.49452436641179526  0.4304437955404766  0.4126275974698784  1.0000
  C   C36       1.0  0.512669899982214  0.48047839850593016  0.4717448498188758  1.0000
  C   C37       1.0  0.4683857982253202  0.5540669041933057  0.46311066796244665  1.0000
  C   C38       1.0  0.4093190417317699  0.5783842219417324  0.39532838226767797  1.0000
  C   C39       1.0  0.5412761393751212  0.35118374467555924  0.42030411310510357  1.0000
  C   C40       1.0  0.47997689748754624  0.60655702327378  0.5267776467685792  1.0000
  C   C41       1.0  0.026020610644408696  0.6561963490859242  0.8249778915801824  1.0000
  C   C42       1.0  0.8944695550754533  0.6629872846512087  0.7962926510839452  1.0000
  C   C43       1.0  0.8697617513445622  0.6813725673172685  0.7213781362965789  1.0000
  C   C44       1.0  0.9735481714613172  0.6929807711525131  0.6756459983311487  1.0000
  C   C45       1.0  0.10428692606168972  0.685061128956761  0.7041869886717577  1.0000
  C   C46       1.0  0.13030774368404963  0.6663435018620448  0.7786927661526163  1.0000
  C   C47       1.0  0.7313639640835277  0.6889246692940462  0.6885439418755652  1.0000
  C   C48       1.0  0.21558667615995125  0.6964847082775949  0.6551213342659208  1.0000
  N   N1        1.0  0.6797698091259008  0.04774686392602231  0.7311317138910807  1.0000
  N   N2        1.0  0.9382485319980207  0.1402034130379306  0.10004462650179137  1.0000
  N   N3        1.0  0.32019364754623336  0.5476887315166367  0.2688584659323467  1.0000
  N   N4        1.0  0.0617727795640803  0.6402364660764944  0.8999471903040684  1.0000
  O   O1        1.0  0.7981175402490025  0.15098643285530503  0.6977951495359205  1.0000
  O   O2        1.0  0.1398467420280625  0.1345887249006523  0.04790803899589239  1.0000
  O   O3        1.0  0.4989461530290242  0.8068031271553693  0.6310459764763579  1.0000
  O   O4        1.0  0.3824566288607302  0.8355502708886534  0.5225906360989185  1.0000
  O   O5        1.0  0.4749099094226494  0.0856146968138205  0.4100403198645424  1.0000
  O   O6        1.0  0.5558200763429114  0.17586191192301476  0.4830885618112504  1.0000
  O   O7        1.0  0.36742857276775  0.17972445098840242  0.2712181328290839  1.0000
  O   O8        1.0  0.2891088521838583  0.20400120891563492  0.3801664948711263  1.0000
  O   O9        1.0  0.8148850782955892  0.2235933189582582  0.40906979754072376  1.0000
  O   O10       1.0  0.6685119939098456  0.1789679323198214  0.3190957892938754  1.0000
  O   O11       1.0  0.11173607213879679  0.8158377569402689  0.4655446411944268  1.0000
  O   O12       1.0  0.15526432858418102  0.6516118209101978  0.4537489422182403  1.0000
  O   O13       1.0  0.3052609594721574  0.7726844274661816  0.37828198505616223  1.0000
  O   O14       1.0  0.20185772515750244  0.6509485455559771  0.3021984969717905  1.0000
  O   O15       1.0  0.8601823993170826  0.6346774802201479  0.9521115196357284  1.0000
  O   O16       1.0  0.5011472243807802  0.30674487922034643  0.368950234793104  1.0000
  O   O17       1.0  0.6176079798117727  0.3355873746446036  0.4773808019913446  1.0000
  O   O18       1.0  0.5250971467238799  0.5856295454373992  0.5899564653105711  1.0000
  O   O19       1.0  0.4440572907078889  0.6758421947667301  0.5168857531711665  1.0000
  O   O20       1.0  0.6327331301723192  0.6797688971582332  0.7288641628795602  1.0000
  O   O21       1.0  0.7109572071139924  0.7040152786243256  0.6198771158676235  1.0000
  O   O22       1.0  0.18518471890919844  0.723602795901812  0.5909170017126896  1.0000
  O   O23       1.0  0.33150400371131644  0.6790052083539637  0.6809339205073639  1.0000
  O   O24       1.0  0.8881923947014556  0.31570642200991034  0.5344720263749991  1.0000
  O   O25       1.0  0.8445853489788036  0.15158701748499231  0.5462385002788324  1.0000
  O   O26       1.0  0.6947072617429201  0.27273303192102116  0.6217274720926581  1.0000
