data_image0
_chemical_formula_structural       Zn6H96C138N6O24
_chemical_formula_sum              "Zn6 H96 C138 N6 O24"
_cell_length_a       13.974070667781959
_cell_length_b       17.847337664029887
_cell_length_c       17.847310865221264
_cell_angle_alpha    104.81421231133494
_cell_angle_beta     92.08009918293098
_cell_angle_gamma    92.08008564849051

_space_group_name_H-M_alt    "P 1"
_space_group_IT_number       1

loop_
  _space_group_symop_operation_xyz
  'x, y, z'

loop_
  _atom_site_type_symbol
  _atom_site_label
  _atom_site_symmetry_multiplicity
  _atom_site_fract_x
  _atom_site_fract_y
  _atom_site_fract_z
  _atom_site_occupancy
  Zn  Zn1       1.0  0.10139814118517881  0.9203323490852852  0.0885949887595956  1.0000
  Zn  Zn2       1.0  0.898601653791438  0.9114020983349391  0.07966614790623784  1.0000
  Zn  Zn3       1.0  0.4159902703038155  0.4574162358534863  0.2896536215029144  1.0000
  Zn  Zn4       1.0  0.5840068437520145  0.7103443026215288  0.5425838801499907  1.0000
  Zn  Zn5       1.0  0.21161843739996303  0.44651171134381684  0.2771295006120341  1.0000
  Zn  Zn6       1.0  0.7883787752808332  0.7228734550836221  0.5534912899615989  1.0000
  H   H1        1.0  0.8468986662847656  0.897124914921726  0.31660524102242255  1.0000
  H   H2        1.0  0.15310498055042393  0.6833925293977997  0.102867025118222  1.0000
  H   H3        1.0  0.14878281783568073  0.9559527316903382  0.3339714132484346  1.0000
  H   H4        1.0  0.8512197570450938  0.6660284923821607  0.04404515118918083  1.0000
  H   H5        1.0  0.24267884973631484  0.9644818646129636  0.44874769659529795  1.0000
  H   H6        1.0  0.757322005155473  0.5512528072429889  0.03551764919511413  1.0000
  H   H7        1.0  0.20053463929003357  0.9073375142508978  0.5106432813841977  1.0000
  H   H8        1.0  0.7994690127946243  0.48935844654806004  0.09266209157144802  1.0000
  H   H9        1.0  0.18168929154780503  0.0076400835368772985  0.5341688164895331  1.0000
  H   H10       1.0  0.8183074725784181  0.46582961719175847  0.9923581951697218  1.0000
  H   H11       1.0  0.8533237773851781  0.8909946079067835  0.45541428270441026  1.0000
  H   H12       1.0  0.1466787431807219  0.5445835617787793  0.10899992129325399  1.0000
  H   H13       1.0  0.8500572742317658  0.8950733948471169  0.6909855201308588  1.0000
  H   H14       1.0  0.14994378579185513  0.30901385635885253  0.10492641874726161  1.0000
  H   H15       1.0  0.24264679189686683  0.9485398035027685  0.757135685162851  1.0000
  H   H16       1.0  0.7573541091035451  0.2428659175207386  0.051459452113192604  1.0000
  H   H17       1.0  0.1825747820309687  0.9987860797266351  0.6963056672841291  1.0000
  H   H18       1.0  0.8174232572426164  0.3036950222572159  0.0012138759085828959  1.0000
  H   H19       1.0  0.19819815275596406  0.8989370347168019  0.6614389495541105  1.0000
  H   H20       1.0  0.8018034301058138  0.3385607444139751  0.1010629236566913  1.0000
  H   H21       1.0  0.14750901634779723  0.9270950016451137  0.8595497201270206  1.0000
  H   H22       1.0  0.8524904495404613  0.14045125103268669  0.0729039323741247  1.0000
  H   H23       1.0  0.8421756102960103  0.8897600484959014  0.8295534294781746  1.0000
  H   H24       1.0  0.1578247566719355  0.17044560631138952  0.11023777092671591  1.0000
  H   H25       1.0  0.25032955622988606  0.8146384202608558  0.11354331478253238  1.0000
  H   H26       1.0  0.7496703531103039  0.8864553733785597  0.18535911343933983  1.0000
  H   H27       1.0  0.25628277614787015  0.0263518144069081  0.0594091474846508  1.0000
  H   H28       1.0  0.7437179742975035  0.9405889381522455  0.9736434684628037  1.0000
  H   H29       1.0  0.43587324810265227  0.0291703292081635  0.05266384265964061  1.0000
  H   H30       1.0  0.5641262242687333  0.9473347281086862  0.9708252004493333  1.0000
  H   H31       1.0  0.42952451992933754  0.8096202643058419  0.11375433975996437  1.0000
  H   H32       1.0  0.5704747799020353  0.8862449112623239  0.19037729894957073  1.0000
  H   H33       1.0  0.4655565079886658  0.22471770727651116  0.28312618660648076  1.0000
  H   H34       1.0  0.5344435380280929  0.7168773342188003  0.7752870710462219  1.0000
  H   H35       1.0  0.1591484722394796  0.1965448222823625  0.2568245445919644  1.0000
  H   H36       1.0  0.8408504242967894  0.7431750005342223  0.8034575768384613  1.0000
  H   H37       1.0  0.1683699070964622  0.05790782339718701  0.2618683939235211  1.0000
  H   H38       1.0  0.8316318947645699  0.7381291477894864  0.9420934929488426  1.0000
  H   H39       1.0  0.5111044325602592  0.062005687599331304  0.3493089486993171  1.0000
  H   H40       1.0  0.48889788783732513  0.6506925208434566  0.9379976066267306  1.0000
  H   H41       1.0  0.5630158239821768  0.12065201732145431  0.2929560572593815  1.0000
  H   H42       1.0  0.4369858455620062  0.7070453327972361  0.8793497003316803  1.0000
  H   H43       1.0  0.5143527605359355  0.0254269955640609  0.24805077646361443  1.0000
  H   H44       1.0  0.48564816219607826  0.7519509284643038  0.9745763033209232  1.0000
  H   H45       1.0  0.5224934026061022  0.8832177772982135  0.31530277250380584  1.0000
  H   H46       1.0  0.4775071048948405  0.6846982857080803  0.11678469332127152  1.0000
  H   H47       1.0  0.5377570017390667  0.8324596328685204  0.3887027391027901  1.0000
  H   H48       1.0  0.4622410207112964  0.6112997135606405  0.1675431114437913  1.0000
  H   H49       1.0  0.4688532717132575  0.9168256245067639  0.4044656550781341  1.0000
  H   H50       1.0  0.531144708739788  0.5955348843288488  0.08317603268754674  1.0000
  H   H51       1.0  0.1752335097487148  0.8203788041201605  0.24487890738326004  1.0000
  H   H52       1.0  0.8247660105480606  0.7551215209047156  0.17962325442242394  1.0000
  H   H53       1.0  0.16878703122537084  0.6810061427841916  0.24839521151885444  1.0000
  H   H54       1.0  0.8312146005481297  0.7516040573438402  0.3189978071640311  1.0000
  H   H55       1.0  0.4534358577984819  0.711978865515988  0.3552220541748454  1.0000
  H   H56       1.0  0.546564316948782  0.6447788712583601  0.2880234496570679  1.0000
  H   H57       1.0  0.4787594309568491  0.457040980776611  0.055093489475240204  1.0000
  H   H58       1.0  0.5212392518802957  0.9449095643427867  0.5429632329906227  1.0000
  H   H59       1.0  0.17381430221563932  0.4136942465747779  0.028316278401902706  1.0000
  H   H60       1.0  0.8261873831428516  0.9716796902595134  0.5862995902444013  1.0000
  H   H61       1.0  0.178250548151091  0.4200240463904592  0.8904790787791654  1.0000
  H   H62       1.0  0.8217538520992138  0.10951616208297568  0.5799666057071492  1.0000
  H   H63       1.0  0.5706120215565635  0.48071696673380865  0.9527814695661904  1.0000
  H   H64       1.0  0.42938949984929314  0.04722414278671041  0.5192866730875352  1.0000
  H   H65       1.0  0.5092460835261576  0.5189321388143853  0.8823926596717515  1.0000
  H   H66       1.0  0.4907569567383661  0.11761059532359042  0.481072187016764  1.0000
  H   H67       1.0  0.5299761112586481  0.4192862503149756  0.8610792024480107  1.0000
  H   H68       1.0  0.47003164520852897  0.13892451207193804  0.5807180057056485  1.0000
  H   H69       1.0  0.1868977166225108  0.3991778452841643  0.6459018156241856  1.0000
  H   H70       1.0  0.8131037328192365  0.35409975854151543  0.6008192092170719  1.0000
  H   H71       1.0  0.5345166548342632  0.4928718740156767  0.7047172287061088  1.0000
  H   H72       1.0  0.4654836514924909  0.2952835911434377  0.5071303509562668  1.0000
  H   H73       1.0  0.46412515466675336  0.5682050407248339  0.7543767974514851  1.0000
  H   H74       1.0  0.5358729604699521  0.24562285600562464  0.4317962389831536  1.0000
  H   H75       1.0  0.525705754588735  0.5779065096961061  0.6710113461908591  1.0000
  H   H76       1.0  0.4742934668837223  0.32898866921520653  0.4220945985943345  1.0000
  H   H77       1.0  0.4522562951267873  0.5317329029886224  0.5447391147830984  1.0000
  H   H78       1.0  0.5477439766638099  0.4552576321762345  0.4682655042865349  1.0000
  H   H79       1.0  0.17865899226250553  0.4066057322260122  0.5074774115318165  1.0000
  H   H80       1.0  0.8213386150039597  0.4925225343590468  0.59339105565833  1.0000
  H   H81       1.0  0.5524362674644864  0.3414523687491097  0.2207482808981425  1.0000
  H   H82       1.0  0.4475590108528563  0.7792517617796335  0.6585519510532549  1.0000
  H   H83       1.0  0.582790147390199  0.5600443044803215  0.37259309349306596  1.0000
  H   H84       1.0  0.41720666808326723  0.6274071334422616  0.4399593361154786  1.0000
  H   H85       1.0  0.7608186778211348  0.5595992064706862  0.3720977865674868  1.0000
  H   H86       1.0  0.2391774937288247  0.6279000305482755  0.44040383114821685  1.0000
  H   H87       1.0  0.7304312656208224  0.3306996018021735  0.21376297114792212  1.0000
  H   H88       1.0  0.2695633983607452  0.7862351421790805  0.6693050351672768  1.0000
  H   H89       1.0  0.8841592786642993  0.5674519810323347  0.2895072387495929  1.0000
  H   H90       1.0  0.11583840539599781  0.7104945132632995  0.4325556115237462  1.0000
  H   H91       1.0  0.8776784254693979  0.32222961882158074  0.27904192728274074  1.0000
  H   H92       1.0  0.12231656591694669  0.7209600425259096  0.6777770170257683  1.0000
  H   H93       1.0  0.0561190875461079  0.3282787846954562  0.2710166400728369  1.0000
  H   H94       1.0  0.9438761841201712  0.7289836635055379  0.6717263900604848  1.0000
  H   H95       1.0  0.06276670032187333  0.5624292223975405  0.28157856308467905  1.0000
  H   H96       1.0  0.937231728212339  0.7184248194909699  0.4375777561052915  1.0000
  C   C1        1.0  0.9957143138620097  0.9283955805793837  0.23367044180373137  1.0000
  C   C2        1.0  0.0042859562559627185  0.7663294802611489  0.071596856274212  1.0000
  C   C3        1.0  0.9976447239655073  0.9273912620662444  0.3172998818038124  1.0000
  C   C4        1.0  0.0023605238552449064  0.6827016847216713  0.07260224560586441  1.0000
  C   C5        1.0  0.9140232520072972  0.9090469989700766  0.3513292789246805  1.0000
  C   C6        1.0  0.08598113615204281  0.6486698621994547  0.0909496275086354  1.0000
  C   C7        1.0  0.08439842520202491  0.9424477404366058  0.3615393824355452  1.0000
  C   C8        1.0  0.9156034605258156  0.6384614939732314  0.05754901146191565  1.0000
  C   C9        1.0  0.0901778447566102  0.9399587590305458  0.438945213549303  1.0000
  C   C10       1.0  0.9098245559971617  0.5610555512611838  0.060035847137683555  1.0000
  C   C11       1.0  0.18396114879443104  0.9557320233296022  0.48524884769418003  1.0000
  C   C12       1.0  0.8160397753111186  0.5147516659640416  0.044265200737243035  1.0000
  C   C13       1.0  0.9174547772039718  0.9058422752444885  0.4282477384829876  1.0000
  C   C14       1.0  0.0825502870711645  0.5717486081421654  0.09414785381839859  1.0000
  C   C15       1.0  0.0048589464438251115  0.9218988493326137  0.4729981409179658  1.0000
  C   C16       1.0  0.9951422069879146  0.5270014751171956  0.07809357464874006  1.0000
  C   C17       1.0  0.006661552828703107  0.9206415735933575  0.5518051033476895  1.0000
  C   C18       1.0  0.9933382409503652  0.44819334472313693  0.07935676249675083  1.0000
  C   C19       1.0  0.006335271175672111  0.9203089292941159  0.6201808306822302  1.0000
  C   C20       1.0  0.9936641082905028  0.3798240172029281  0.07968714722995426  1.0000
  C   C21       1.0  0.0033970345923819076  0.9175721647458133  0.6984249932791826  1.0000
  C   C22       1.0  0.9966011710093311  0.3015758868910723  0.08242494875788249  1.0000
  C   C23       1.0  0.9145668215705244  0.9037890311254344  0.7289401774658587  1.0000
  C   C24       1.0  0.08543189192660353  0.2710609060106108  0.09620739850768699  1.0000
  C   C25       1.0  0.08924382665193063  0.927193663452698  0.7458039309063977  1.0000
  C   C26       1.0  0.9107570458347212  0.2541943372420478  0.07280270350761242  1.0000
  C   C27       1.0  0.1833179742677089  0.9440663447821508  0.7139748172856315  1.0000
  C   C28       1.0  0.8166811953389229  0.2860251753019157  0.05593212117238271  1.0000
  C   C29       1.0  0.08305748521681983  0.920815173461378  0.8217065695682282  1.0000
  C   C30       1.0  0.9169429757960897  0.1782929041448327  0.07918230758000529  1.0000
  C   C31       1.0  0.9104183178451635  0.8998541472923165  0.8054005065950706  1.0000
  C   C32       1.0  0.08958245741958851  0.1946008454106973  0.100144999681163  1.0000
  C   C33       1.0  0.9947821742727284  0.9075209444001544  0.8521855966878109  1.0000
  C   C34       1.0  0.0052194789204094  0.1478138296803237  0.0924744651919625  1.0000
  C   C35       1.0  0.9911001377141133  0.9035504659930355  0.9348299059483409  1.0000
  C   C36       1.0  0.0089001976464331  0.0651698542908221  0.0964458475913474  1.0000
  C   C37       1.0  0.29503200073455826  0.8608463944881208  0.10105562219694522  1.0000
  C   C38       1.0  0.7049682389776989  0.8989426461304718  0.13914989842977832  1.0000
  C   C39       1.0  0.2983810067167454  0.9792165378235751  0.06934005058052149  1.0000
  C   C40       1.0  0.7016186734160642  0.9306562917523494  0.020779105781095167  1.0000
  C   C41       1.0  0.3975641589507575  0.9801113189692076  0.06577521486642723  1.0000
  C   C42       1.0  0.6024341390301514  0.9342222154370816  0.019885674098652786  1.0000
  C   C43       1.0  0.3941684135894548  0.8584752874800969  0.10054498012215163  1.0000
  C   C44       1.0  0.6058322352434119  0.8994523848954046  0.1415200290987073  1.0000
  C   C45       1.0  0.4473199305517923  0.9188773637528201  0.08215934335010644  1.0000
  C   C46       1.0  0.5526774210123264  0.9178373946953969  0.08111852442216617  1.0000
  C   C47       1.0  0.30798798583692394  0.30212608243266464  0.2698247373708044  1.0000
  C   C48       1.0  0.6920121687248083  0.7301730496316025  0.6978744363539704  1.0000
  C   C49       1.0  0.3121187637929097  0.2186384967779205  0.2702295858853319  1.0000
  C   C50       1.0  0.6878803558298044  0.7297711159298644  0.7813627627857969  1.0000
  C   C51       1.0  0.40116996477866723  0.18725499463997863  0.27887880316710323  1.0000
  C   C52       1.0  0.5988293298758264  0.7211242305065255  0.8127483847823244  1.0000
  C   C53       1.0  0.22795056407640152  0.17200343581976096  0.2642299662491254  1.0000
  C   C54       1.0  0.7720502333402877  0.7357697082204737  0.8279980895047033  1.0000
  C   C55       1.0  0.2329000573200944  0.09553184526976112  0.2678945504102331  1.0000
  C   C56       1.0  0.7671021661756826  0.7321044248612194  0.9044698989962754  1.0000
  C   C57       1.0  0.4085734673337242  0.1110652115634352  0.28375958961945  1.0000
  C   C58       1.0  0.5914278736296127  0.7162415587061872  0.8889386864616358  1.0000
  C   C59       1.0  0.5043197299735028  0.07845642255835371  0.2940504308752879  1.0000
  C   C60       1.0  0.49568269689818584  0.7059509907269829  0.921547369880834  1.0000
  C   C61       1.0  0.32251790037723543  0.06483915263226693  0.2789796181566544  1.0000
  C   C62       1.0  0.6774848147111644  0.721020574261651  0.9351628681977076  1.0000
  C   C63       1.0  0.32510987214322284  0.9879010997987406  0.28594294070273923  1.0000
  C   C64       1.0  0.6748906933819896  0.7140556862709672  0.012097435386486648  1.0000
  C   C65       1.0  0.3229065153900308  0.9213475429134376  0.2923395412989578  1.0000
  C   C66       1.0  0.6770951274499097  0.7076585882264795  0.07865661146742303  1.0000
  C   C67       1.0  0.31881301799417383  0.8436909323538232  0.2973385165094201  1.0000
  C   C68       1.0  0.6811852642793143  0.702660225488259  0.1563121134025351  1.0000
  C   C69       1.0  0.39843072945590313  0.8135453331219864  0.32975036548683795  1.0000
  C   C70       1.0  0.6015667525665621  0.6702501744715335  0.18645703713625755  1.0000
  C   C71       1.0  0.48664064700302845  0.8637468179329131  0.3614309674523213  1.0000
  C   C72       1.0  0.5133571379166925  0.6385700888634461  0.1362555177211675  1.0000
  C   C73       1.0  0.23561792999561962  0.7958448332087684  0.2691621523638545  1.0000
  C   C74       1.0  0.7643819508586772  0.7308367737460416  0.20415819890673967  1.0000
  C   C75       1.0  0.23198480566151147  0.7185650990605624  0.2712488632881502  1.0000
  C   C76       1.0  0.7680157664847729  0.7287498700659966  0.2814374397655683  1.0000
  C   C77       1.0  0.3928765787526842  0.735720164075687  0.33049939691284896  1.0000
  C   C78       1.0  0.6071243155669636  0.669500253394112  0.2642820555447116  1.0000
  C   C79       1.0  0.3116055496695509  0.6875960537073738  0.3005113708269391  1.0000
  C   C80       1.0  0.688394229883258  0.6994866339373047  0.3124056826898994  1.0000
  C   C81       1.0  0.3117532076034948  0.6031550963594656  0.2975443948786065  1.0000
  C   C82       1.0  0.68824905144011  0.702453605669497  0.3968464342871343  1.0000
  C   C83       1.0  0.32426427073782105  0.43672628574323374  0.13405826881268013  1.0000
  C   C84       1.0  0.675737307914858  0.865940876434415  0.5632726099546659  1.0000
  C   C85       1.0  0.32642460772477483  0.4358441777495727  0.050054502325117795  1.0000
  C   C86       1.0  0.6735753656470536  0.9499457579059581  0.5641555383191277  1.0000
  C   C87       1.0  0.41354371895699427  0.44930467964803705  0.017966641311517182  1.0000
  C   C88       1.0  0.5864579160573697  0.9820329093125719  0.550695262993294  1.0000
  C   C89       1.0  0.24142822527049657  0.4245386147232112  0.003554367362731638  1.0000
  C   C90       1.0  0.7585749392061345  0.9964448378518681  0.5754596063238537  1.0000
  C   C91       1.0  0.24400901541567782  0.4282213799875479  0.9269516913239645  1.0000
  C   C92       1.0  0.7559963918739285  0.07304710370677012  0.5717745467926181  1.0000
  C   C93       1.0  0.41812033188208636  0.4540907869376056  0.9413911258218662  1.0000
  C   C94       1.0  0.5818816272341537  0.05860971490701418  0.5459068632975956  1.0000
  C   C95       1.0  0.5119816177705515  0.469221370421998  0.908144253070134  1.0000
  C   C96       1.0  0.4880231224312368  0.09185890444248909  0.5307816199225073  1.0000
  C   C97       1.0  0.33126366338319013  0.4439194176805685  0.8950675126977644  1.0000
  C   C98       1.0  0.6687399599769676  0.1049303233734946  0.5560755925650086  1.0000
  C   C99       1.0  0.330856250188063  0.4499831046415038  0.8175307722481692  1.0000
  C   C100      1.0  0.6691492518934297  0.1824663848324235  0.550009748186021  1.0000
  C   C101      1.0  0.32801868268402506  0.4558077844932099  0.7506791806755615  1.0000
  C   C102      1.0  0.6719848045943028  0.2493205066000144  0.5441882580859598  1.0000
  C   C103      1.0  0.32414004268409974  0.46185446306840555  0.6730871770782869  1.0000
  C   C104      1.0  0.6758598056428511  0.3269122176047005  0.538145721882934  1.0000
  C   C105      1.0  0.24435278178961542  0.4286364589832772  0.6231146880571856  1.0000
  C   C106      1.0  0.7556507105089593  0.376884722855266  0.5713611634475697  1.0000
  C   C107      1.0  0.39993659071967597  0.5007617993368852  0.6448700908874798  1.0000
  C   C108      1.0  0.6000598432438622  0.3551266159150899  0.4992339784884977  1.0000
  C   C109      1.0  0.4854388424419724  0.5372854584367487  0.6963420902158433  1.0000
  C   C110      1.0  0.5145617757723856  0.3036574130498266  0.46271558235304167  1.0000
  C   C111      1.0  0.3939696691469122  0.5029853263542351  0.5673194743048171  1.0000
  C   C112      1.0  0.6060290597751319  0.4326805194863185  0.4970150123285181  1.0000
  C   C113      1.0  0.23968376957591894  0.4325043808959919  0.5463757129901056  1.0000
  C   C114      1.0  0.7603143272358893  0.45362609365761136  0.5674946468352148  1.0000
  C   C115      1.0  0.3155233785634621  0.4688349884906629  0.5176366076866756  1.0000
  C   C116      1.0  0.6844755899823767  0.4823623019604071  0.5311615046343761  1.0000
  C   C117      1.0  0.31505491648081124  0.4687859861702676  0.4338290956534935  1.0000
  C   C118      1.0  0.6849377395050525  0.5661695146709391  0.5312130999070419  1.0000
  C   C119      1.0  0.6021645999102887  0.3880974868692136  0.2527743503052804  1.0000
  C   C120      1.0  0.397830797587723  0.7472255786645335  0.611905860423022  1.0000
  C   C121      1.0  0.6184230388301446  0.5109766600273176  0.33719465049538405  1.0000
  C   C122      1.0  0.38157395560394763  0.6628064029992659  0.4890283911653129  1.0000
  C   C123      1.0  0.7177854500195765  0.5103798395673351  0.3364438249258868  1.0000
  C   C124      1.0  0.2822115001179313  0.6635541270355745  0.4896225516080506  1.0000
  C   C125      1.0  0.7008076860675205  0.38268827549143225  0.24971266513414755  1.0000
  C   C126      1.0  0.2991867657001706  0.7502843152191404  0.6173153326899553  1.0000
  C   C127      1.0  0.7607911475276551  0.44567564699013223  0.29090559514686026  1.0000
  C   C128      1.0  0.23920452219562796  0.7090905467768496  0.5543284415801965  1.0000
  C   C129      1.0  0.8658137023164657  0.4449761609060445  0.28584198419065393  1.0000
  C   C130      1.0  0.1341827703830702  0.7141579981675787  0.5550288665961389  1.0000
  C   C131      1.0  0.9193226738105551  0.513317545550528  0.2866521943245459  1.0000
  C   C132      1.0  0.08067336730562862  0.7133491569691657  0.4866890014343568  1.0000
  C   C133      1.0  0.9153361649295205  0.3769009138640556  0.2795254480125848  1.0000
  C   C134      1.0  0.0846619003454308  0.7204754835925938  0.6231045666979753  1.0000
  C   C135      1.0  0.014418720030676005  0.37956439527130215  0.2755239270432527  1.0000
  C   C136      1.0  0.9855787407571198  0.7244803018333171  0.6204413302621887  1.0000
  C   C137      1.0  0.0180863166052987  0.5111358435569  0.2817531311883315  1.0000
  C   C138      1.0  0.9819102687834729  0.7182482823927574  0.48886927894564997  1.0000
  N   N1        1.0  0.2481585306731517  0.9203224135411148  0.08621066278345069  1.0000
  N   N2        1.0  0.7518429849246788  0.9137866718333923  0.07967289649502615  1.0000
  N   N3        1.0  0.5617542316406556  0.4515797577723859  0.2950763666959304  1.0000
  N   N4        1.0  0.4382434889837015  0.7049245343842473  0.5484242921111077  1.0000
  N   N5        1.0  0.06495751357510221  0.445548521390137  0.2767489761988173  1.0000
  N   N6        1.0  0.935038239295494  0.7232524989254048  0.554457913329344  1.0000
  O   O1        1.0  0.07031998457733832  0.898480068804112  0.9704176382310408  1.0000
  O   O2        1.0  0.9296812640976099  0.02957957136042919  0.10151519613226871  1.0000
  O   O3        1.0  0.9087098915509985  0.9063581829969962  0.9637655610084437  1.0000
  O   O4        1.0  0.09129186462481441  0.03623342403158599  0.0936381220102902  1.0000
  O   O5        1.0  0.9150260081208685  0.9139756659931776  0.19588261599094636  1.0000
  O   O6        1.0  0.08497673746081351  0.804116319231298  0.08601947657123794  1.0000
  O   O7        1.0  0.07513721704966513  0.94232244756369  0.2056788601626138  1.0000
  O   O8        1.0  0.9248604422301767  0.7943197236258612  0.05766957846334012  1.0000
  O   O9        1.0  0.3878450722359617  0.3409338974886396  0.27807787148768176  1.0000
  O   O10       1.0  0.612156608788773  0.721920061083267  0.6590657976303974  1.0000
  O   O11       1.0  0.2257971949283331  0.3287766448213246  0.2625453692272757  1.0000
  O   O12       1.0  0.7742025175930819  0.7374543942076315  0.6712247870268371  1.0000
  O   O13       1.0  0.39358985349506537  0.5740479167410796  0.29962915421726427  1.0000
  O   O14       1.0  0.6064113158916059  0.700358926623565  0.42595035142686305  1.0000
  O   O15       1.0  0.23082991084703516  0.5664880863175553  0.2931542511185086  1.0000
  O   O16       1.0  0.7691717040301784  0.7068525454013114  0.4335155178642723  1.0000
  O   O17       1.0  0.40456606724318084  0.4407485328496961  0.17142673567239095  1.0000
  O   O18       1.0  0.5954374125659214  0.828570871696549  0.5592476227144729  1.0000
  O   O19       1.0  0.24190014276528876  0.4350700639736473  0.1625521316586358  1.0000
  O   O20       1.0  0.7581034311937458  0.837450201565211  0.5649366438110803  1.0000
  O   O21       1.0  0.39651075233135213  0.4783271767787626  0.4063943584379999  1.0000
  O   O22       1.0  0.6034804157154525  0.5936020015835338  0.5216766117997125  1.0000
  O   O23       1.0  0.23478434590770556  0.4586965147461086  0.39560092572160954  1.0000
  O   O24       1.0  0.7652065363923555  0.6044017246837684  0.5412998697124182  1.0000
