data_image0
_chemical_formula_structural       Ho2H50C34N12O16
_chemical_formula_sum              "Ho2 H50 C34 N12 O16"
_cell_length_a       8.58618674588594
_cell_length_b       11.008679108099704
_cell_length_c       13.412
_cell_angle_alpha    101.49839275113928
_cell_angle_beta     107.6589532299395
_cell_angle_gamma    106.53118692269365

_space_group_name_H-M_alt    "P 1"
_space_group_IT_number       1

loop_
  _space_group_symop_operation_xyz
  'x, y, z'

loop_
  _atom_site_type_symbol
  _atom_site_label
  _atom_site_symmetry_multiplicity
  _atom_site_fract_x
  _atom_site_fract_y
  _atom_site_fract_z
  _atom_site_occupancy
  Ho  Ho1       1.0  0.2575009370639378  0.1100428480610276  0.06156497164464272  1.0000
  Ho  Ho2       1.0  0.742495191434287  0.889955360604091  0.9384354000489097  1.0000
  H   H1        1.0  0.2022149898029468  0.5313242713003916  0.04352757574280018  1.0000
  H   H2        1.0  0.7977859986309284  0.4686839130560045  0.9564761175813957  1.0000
  H   H3        1.0  0.053072986673029676  0.43816827343541576  0.208404749231093  1.0000
  H   H4        1.0  0.9469270443162829  0.5618329279370825  0.7915953787958545  1.0000
  H   H5        1.0  0.1266512210551127  0.7033829993317724  0.149414346663292  1.0000
  H   H6        1.0  0.873343434919846  0.2966172044715947  0.8505823375050312  1.0000
  H   H7        1.0  0.1569031095655546  0.6916964769991409  0.28408322630568256  1.0000
  H   H8        1.0  0.8430915464094042  0.3083037268042261  0.7159171858674115  1.0000
  H   H9        1.0  0.9432762689438335  0.6294591366824065  0.18257473513963166  1.0000
  H   H10       1.0  0.05671838703112541  0.3705410671209677  0.8174241858315554  1.0000
  H   H11       1.0  0.8367650482663791  0.39956035304980014  0.3298928968710655  1.0000
  H   H12       1.0  0.16323621952070513  0.600435860477063  0.6701044184277762  1.0000
  H   H13       1.0  0.8724226247848678  0.1273267307699655  0.26324174128870237  1.0000
  H   H14       1.0  0.1275781570086565  0.8726684851877663  0.736759790012897  1.0000
  H   H15       1.0  0.13958354719615332  0.4065353563916503  0.4247341435468073  1.0000
  H   H16       1.0  0.8604143040934106  0.5934588619969574  0.5752651642235165  1.0000
  H   H17       1.0  0.18632477407631853  0.2986342892480849  0.32917398301904655  1.0000
  H   H18       1.0  0.8136769797043399  0.7013629218479025  0.6708258266856221  1.0000
  H   H19       1.0  0.14450547954003673  0.24910996989653  0.4378614704242594  1.0000
  H   H20       1.0  0.8554996907381422  0.7508892363377129  0.5621385836117909  1.0000
  H   H21       1.0  0.8812845991854275  0.8588052670181909  0.21770964108324628  1.0000
  H   H22       1.0  0.11871471008483069  0.1411919440777964  0.7822934218998016  1.0000
  H   H23       1.0  0.2470094048116351  0.004631713460554499  0.4049314646133624  1.0000
  H   H24       1.0  0.752988431935357  0.9953674927736884  0.5950656740415852  1.0000
  H   H25       1.0  0.9011091860659662  0.7908598361519594  0.38548111777419086  1.0000
  H   H26       1.0  0.0988893869426519  0.2091383725131521  0.614521219847667  1.0000
  H   H27       1.0  0.058034933106213785  0.9196480056942135  0.5097490111021942  1.0000
  H   H28       1.0  0.9419699869038993  0.0803531956782919  0.4902520663775506  1.0000
  H   H29       1.0  0.11750004412493804  0.7925596939457974  0.4510472613555478  1.0000
  H   H30       1.0  0.8825041396235421  0.20744250499583217  0.5489560731668348  1.0000
  H   H31       1.0  0.1130239218848601  0.8197175158820825  0.9475420828497436  1.0000
  H   H32       1.0  0.8869758588363936  0.1802856806286712  0.052458323019941126  1.0000
  H   H33       1.0  0.3277143494425374  0.8563293004428942  0.999415143251703  1.0000
  H   H34       1.0  0.672284459291582  0.1436719009296041  0.000583256210134679  1.0000
  H   H35       1.0  0.4067191243223007  0.027158819505409295  0.9006143560172222  1.0000
  H   H36       1.0  0.5932769896333596  0.9728443770053444  0.09938384656096133  1.0000
  H   H37       1.0  0.41767700299504174  0.1707409392135091  0.8898216722956678  1.0000
  H   H38       1.0  0.5823235139878449  0.8292612597281205  0.11017423972852211  1.0000
  H   H39       1.0  0.4821436438013507  0.5860080181811327  0.5757413399784144  1.0000
  H   H40       1.0  0.517855164932769  0.4139931831913728  0.4242555682815167  1.0000
  H   H41       1.0  0.5167222966342068  0.7528285107222317  0.6282814376092888  1.0000
  H   H42       1.0  0.4832748038511454  0.24717169308113543  0.37171646688639026  1.0000
  H   H43       1.0  0.5218835450350738  0.0344141397721813  0.4194632699060535  1.0000
  H   H44       1.0  0.47811574969261267  0.9655880591694411  0.5805353871587542  1.0000
  H   H45       1.0  0.5380189120500561  0.9898369695289517  0.29155080931155203  1.0000
  H   H46       1.0  0.4619828271880237  0.0101652294126779  0.7084483224796543  1.0000
  H   H47       1.0  0.6108575009826254  0.5904950841181531  0.08959967248431155  1.0000
  H   H48       1.0  0.38914375226188713  0.4095061172543523  0.9103992017039317  1.0000
  H   H49       1.0  0.5574681775042337  0.4540814961627007  0.22107780239005598  1.0000
  H   H50       1.0  0.4425335617338533  0.545920702778929  0.7789220750021072  1.0000
  C   C1        1.0  0.17696725144823236  0.3375993393814696  0.0688008097692574  1.0000
  C   C2        1.0  0.8230357100450479  0.662402859560153  0.9311978137841949  1.0000
  C   C3        1.0  0.15601123782160187  0.46678653657485814  0.08881538914032207  1.0000
  C   C4        1.0  0.8439914734036051  0.5332176575050269  0.9111857490587312  1.0000
  C   C5        1.0  0.093870373860625  0.5073466997436569  0.1646537934362016  1.0000
  C   C6        1.0  0.9061289208670616  0.4926554991979728  0.8353463548305201  1.0000
  C   C7        1.0  0.07992394646926469  0.6396522980306614  0.19563247881519888  1.0000
  C   C8        1.0  0.9200753482584219  0.36034990091096114  0.8043713974562934  1.0000
  C   C9        1.0  0.6151625369706223  0.2225077939644535  0.2135576274123707  1.0000
  C   C10       1.0  0.38483678684220024  0.7774844292858987  0.7864446222822323  1.0000
  C   C11       1.0  0.7992561719206039  0.2934379516611756  0.2888945762380075  1.0000
  C   C12       1.0  0.20074509586648048  0.7065582618656875  0.7111057214646479  1.0000
  C   C13       1.0  0.9173112896436422  0.2339329531855867  0.3066448716014564  1.0000
  C   C14       1.0  0.08269095013057641  0.7660652554795249  0.6933566869080892  1.0000
  C   C15       1.0  0.1057468432616844  0.3020798930156445  0.3790029480397479  1.0000
  C   C16       1.0  0.8942549105189669  0.6979173180803429  0.6209961160639637  1.0000
  C   C17       1.0  0.0973235697486743  0.9967910239191156  0.1961269227369513  1.0000
  C   C18       1.0  0.9026750032599509  0.0032071847460030996  0.8038731780820498  1.0000
  C   C19       1.0  0.01839124440896712  0.9259656109808105  0.2611497659360679  1.0000
  C   C20       1.0  0.981607328599651  0.074032597684301  0.7388503348829261  1.0000
  C   C21       1.0  0.11006476471115433  0.9353627121650588  0.36519291794657244  1.0000
  C   C22       1.0  0.8899338082974709  0.06463549650005969  0.6348064372714717  1.0000
  C   C23       1.0  0.04038449145209459  0.8551232393673374  0.4299413201889806  1.0000
  C   C24       1.0  0.9596162757988579  0.1448769644360297  0.5700610244010633  1.0000
  C   C25       1.0  0.49445947042352156  0.694955535339794  0.4704334589999418  1.0000
  C   C26       1.0  0.5055410465593584  0.3050466636018356  0.5295654354280687  1.0000
  C   C27       1.0  0.5351832342408329  0.627737332367758  0.314981731192141  1.0000
  C   C28       1.0  0.4648204635140802  0.3722638690047404  0.6850183633234508  1.0000
  C   C29       1.0  0.5444428885892734  0.7481868215703997  0.2920329771484234  1.0000
  C   C30       1.0  0.4555605588975667  0.2518163749403541  0.7079659040079989  1.0000
  C   C31       1.0  0.528279151038241  0.846667843439775  0.3703899471537683  1.0000
  C   C32       1.0  0.47172551870379925  0.1533353530709789  0.6296091713658498  1.0000
  C   C33       1.0  0.5854676639896468  0.6248463770352828  0.16275446481478184  1.0000
  C   C34       1.0  0.41453407524843305  0.3751558219063469  0.8372446669764245  1.0000
  N   N1        1.0  0.503482900121675  0.8168594803308267  0.4590360388715667  1.0000
  N   N2        1.0  0.49651761686121176  0.183142718610803  0.5409621099554869  1.0000
  N   N3        1.0  0.4672542834055307  0.6710557741750307  0.560884047173694  1.0000
  N   N4        1.0  0.5327462335773491  0.328946424766599  0.43911335605240254  1.0000
  N   N5        1.0  0.5080233023938376  0.594687867162456  0.40077970051189743  1.0000
  N   N6        1.0  0.49198063108657664  0.4053163269174291  0.5992201838484448  1.0000
  N   N7        1.0  0.5405131864203483  0.9687443678899257  0.3623418516546479  1.0000
  N   N8        1.0  0.4594856223137783  0.031256833482572695  0.6376565478071897  1.0000
  N   N9        1.0  0.5753182054221497  0.7434324071071217  0.19544150291275025  1.0000
  N   N10       1.0  0.42468304782237004  0.2565687942653767  0.8045573712754859  1.0000
  N   N11       1.0  0.5644030082952227  0.5523450479622127  0.23269050255031223  1.0000
  N   N12       1.0  0.43560166144681745  0.44765814854854813  0.7673093615702627  1.0000
  O   O1        1.0  0.1121664907844462  0.25148218928252664  0.11295503364291189  1.0000
  O   O2        1.0  0.8878318319561133  0.7485180145208402  0.887040871413099  1.0000
  O   O3        1.0  0.2634583178065597  0.3100534630544587  0.010983032425812672  1.0000
  O   O4        1.0  0.7365402406594939  0.6899497334562952  0.9890156448787621  1.0000
  O   O5        1.0  0.5477803510689156  0.0957347140604341  0.16686096672832212  1.0000
  O   O6        1.0  0.4522177504887139  0.9042575091899109  0.833144028006892  1.0000
  O   O7        1.0  0.5149202090806642  0.2895135147122545  0.1930236881042831  1.0000
  O   O8        1.0  0.4850783784705328  0.7104797061072219  0.8069763450272234  1.0000
  O   O9        1.0  0.2571012444992604  0.0755888055237293  0.23342751385731483  1.0000
  O   O10       1.0  0.7428973285093579  0.9244094031413823  0.7665733325626364  1.0000
  O   O11       1.0  0.00047359770483985  0.9747188093965562  0.09404038198619702  1.0000
  O   O12       1.0  0.9995227665188794  0.0252823919759493  0.9059627619559266  1.0000
  O   O13       1.0  0.2305571581266435  0.8865556450164149  0.9999872432542392  1.0000
  O   O14       1.0  0.7694419008755418  0.1134435612178351  1.3860768682168945e-05  1.0000
  O   O15       1.0  0.4189654716565201  0.1164223026335591  0.9443881117819615  1.0000
  O   O16       1.0  0.5810313785607664  0.8835798963080705  0.05561007055644754  1.0000
