data_image0
_chemical_formula_structural       Ni2H30C46N8O12
_chemical_formula_sum              "Ni2 H30 C46 N8 O12"
_cell_length_a       7.416079722581272
_cell_length_b       9.816289603158175
_cell_length_c       15.663461218968774
_cell_angle_alpha    78.26050264060312
_cell_angle_beta     80.9460356517778
_cell_angle_gamma    70.41074598043654

_space_group_name_H-M_alt    "P 1"
_space_group_IT_number       1

loop_
  _space_group_symop_operation_xyz
  'x, y, z'

loop_
  _atom_site_type_symbol
  _atom_site_label
  _atom_site_symmetry_multiplicity
  _atom_site_fract_x
  _atom_site_fract_y
  _atom_site_fract_z
  _atom_site_occupancy
  Ni  Ni1       1.0  0.4832194572819121  0.388076531709359  0.2610501201644837  1.0000
  Ni  Ni2       1.0  0.5168038639373266  0.6119147786085292  0.7389468966290593  1.0000
  H   H1        1.0  0.7642692191012089  0.5324697512711649  0.2974164541108237  1.0000
  H   H2        1.0  0.23574275307192497  0.4675160318727121  0.7025821287784525  1.0000
  H   H3        1.0  0.9360361279206871  0.5170887157134202  0.4266732822245203  1.0000
  H   H4        1.0  0.063939845489692  0.4829408343385138  0.5733237078630964  1.0000
  H   H5        1.0  0.8467450892463049  0.37166788773318155  0.572196159237194  1.0000
  H   H6        1.0  0.153219558355346  0.6283824652053481  0.4278137127095434  1.0000
  H   H7        1.0  0.6092684611915473  0.24418292010113862  0.5776658896177835  1.0000
  H   H8        1.0  0.390703555974234  0.755833438600625  0.42235096268021266  1.0000
  H   H9        1.0  0.375774247986989  0.16435061308946078  0.5742797091917639  1.0000
  H   H10       1.0  0.6242564373271692  0.8356626588169005  0.4257388408786938  1.0000
  H   H11       1.0  0.1558855435889299  0.037005897862087495  0.5538308994011983  1.0000
  H   H12       1.0  0.8441039347289347  0.9629918548280897  0.4462125466830643  1.0000
  H   H13       1.0  0.08155979764455171  0.04647654792233169  0.3976167923827346  1.0000
  H   H14       1.0  0.9184524084372828  0.953492758793814  0.6024177161844759  1.0000
  H   H15       1.0  0.24209113758646345  0.18019666618832983  0.274521405452063  1.0000
  H   H16       1.0  0.7579292225895954  0.819779254683446  0.7255097246972255  1.0000
  H   H17       1.0  0.5403795695980662  0.3437725350472078  0.07214255778060158  1.0000
  H   H18       1.0  0.4596142415275396  0.6562307367713271  0.9278653792974297  1.0000
  H   H19       1.0  0.3331790519535147  0.41529457607911263  0.9496992597959419  1.0000
  H   H20       1.0  0.6668446623350661  0.584708809637135  0.050290437476888904  1.0000
  H   H21       1.0  0.8408064397941575  0.5218561678755262  0.14296799699738466  1.0000
  H   H22       1.0  0.15919138818149747  0.47814383291476753  0.8570260086329782  1.0000
  H   H23       1.0  0.07138538836613158  0.454236233563719  0.25405108312366315  1.0000
  H   H24       1.0  0.9286106797497878  0.5457483957705093  0.7459488516497856  1.0000
  H   H25       1.0  0.4251058096792591  0.8024540614929447  0.053859668505296596  1.0000
  H   H26       1.0  0.5748755569981868  0.19755247235667633  0.9461200645105022  1.0000
  H   H27       1.0  0.9583602118329113  0.20554911706965837  0.06693513902536807  1.0000
  H   H28       1.0  0.041651259052208935  0.7944377654211151  0.9330556801015389  1.0000
  H   H29       1.0  0.04891020620273418  0.8652427230575268  0.2918672604689974  1.0000
  H   H30       1.0  0.9510612550089164  0.13476815643669227  0.7081305431124606  1.0000
  C   C1        1.0  0.8235799361851692  0.1370274771969662  0.2414521599376158  1.0000
  C   C2        1.0  0.17645478523230923  0.8629364412176198  0.7585430266816076  1.0000
  C   C3        1.0  0.7388412497216877  0.46715828098038487  0.3605262890450973  1.0000
  C   C4        1.0  0.26115388988599614  0.5328252495500577  0.6394700259428774  1.0000
  C   C5        1.0  0.8306726604019729  0.45971793657641036  0.4331104354895317  1.0000
  C   C6        1.0  0.16934830924392943  0.5402788579212155  0.5668745664589779  1.0000
  C   C7        1.0  0.7839187400891064  0.37849271889577085  0.512475019280572  1.0000
  C   C8        1.0  0.2160812994907532  0.6215380154853348  0.4875168047754173  1.0000
  C   C9        1.0  0.6487163807514589  0.3070255975522612  0.5161492196488525  1.0000
  C   C10       1.0  0.3512755275014215  0.6929919378414268  0.4838480998542635  1.0000
  C   C11       1.0  0.5651452866146444  0.3167460705502662  0.44021560182217456  1.0000
  C   C12       1.0  0.4348529559107349  0.6832725868831274  0.5597766255344894  1.0000
  C   C13       1.0  0.42496757298954435  0.2424377294248216  0.43565732473315677  1.0000
  C   C14       1.0  0.5750552727528059  0.7575546781474995  0.5643363956258157  1.0000
  C   C15       1.0  0.3421427263735596  0.16814481014456814  0.5084430404472401  1.0000
  C   C16       1.0  0.6578719322372283  0.8318771923739516  0.4915583694111234  1.0000
  C   C17       1.0  0.21693582569470493  0.0962738206846439  0.4964707573853673  1.0000
  C   C18       1.0  0.7830662557618455  0.9037163069081514  0.5035484488283046  1.0000
  C   C19       1.0  0.17962088548063088  0.09886285164227357  0.4115553881741931  1.0000
  C   C20       1.0  0.8203771057015247  0.9011272614380627  0.5884641296389859  1.0000
  C   C21       1.0  0.26603259160210513  0.17581679106657327  0.3420094828995701  1.0000
  C   C22       1.0  0.7339972910671548  0.8241525824228685  0.6580153789371863  1.0000
  C   C23       1.0  0.3843404824185584  0.3854140182267756  0.0837340719398796  1.0000
  C   C24       1.0  0.615647858501653  0.6145694866216331  0.9162659533290451  1.0000
  C   C25       1.0  0.26631174411131303  0.4248464059743497  0.016282649529927102  1.0000
  C   C26       1.0  0.7336787829236898  0.5751645430381912  0.9837098707823699  1.0000
  C   C27       1.0  0.0654978587062018  0.4770798645669883  0.03482652128514731  1.0000
  C   C28       1.0  0.934482191194519  0.5229398266356853  0.9651650362808654  1.0000
  C   C29       1.0  0.9941349154445904  0.48404004701565373  0.12286456953150794  1.0000
  C   C30       1.0  0.005854237103712017  0.5159708980561672  0.8771261400782322  1.0000
  C   C31       1.0  0.12191676823314872  0.444881716068906  0.18580003986325985  1.0000
  C   C32       1.0  0.8780669961955783  0.5550995808991244  0.8141942299470986  1.0000
  C   C33       1.0  0.34950585074339807  0.6632617981864256  0.21870828976589252  1.0000
  C   C34       1.0  0.6504870506321936  0.33673708181458295  0.7812983624206495  1.0000
  C   C35       1.0  0.2500105424384956  0.8169511758501358  0.1780814094758085  1.0000
  C   C36       1.0  0.7499589732613926  0.18305751321063468  0.8218938379822518  1.0000
  C   C37       1.0  0.3038023972782259  0.8692169639064243  0.09140019631158935  1.0000
  C   C38       1.0  0.6961839060960314  0.13080056439310536  0.9085713728804379  1.0000
  C   C39       1.0  0.19617981431261464  0.0079347142941941  0.0530588672406367  1.0000
  C   C40       1.0  0.8038008002037106  0.9920772894416596  0.9469495912034916  1.0000
  C   C41       1.0  0.0402066354331225  0.09815749293387198  0.09888189226206381  1.0000
  C   C42       1.0  0.9598026538163255  0.9018315684671162  0.9011254126908882  1.0000
  C   C43       1.0  0.9899472844827814  0.046778775954962284  0.1863765471754988  1.0000
  C   C44       1.0  0.01010934119189957  0.9531753381278701  0.8136297259687808  1.0000
  C   C45       1.0  0.09374008077482907  0.9060159548658003  0.2246987475835169  1.0000
  C   C46       1.0  0.9062632692017871  0.09396431077904308  0.7753011936684757  1.0000
  N   N1        1.0  0.6118366394291215  0.39595939485365506  0.3637088423229926  1.0000
  N   N2        1.0  0.3881406704813842  0.6040438302740795  0.6362760899450353  1.0000
  N   N3        1.0  0.24836868153122543  0.05908040906331987  0.9603008931119348  1.0000
  N   N4        1.0  0.7516119071739806  0.94093159676499  0.039703098004395164  1.0000
  N   N5        1.0  0.3822250888561456  0.24849906399275307  0.3535825983031771  1.0000
  N   N6        1.0  0.6178145445605738  0.7515021828183277  0.6464074437897693  1.0000
  N   N7        1.0  0.31427844197607874  0.3969945581217259  0.16747907935111067  1.0000
  N   N8        1.0  0.6857231438100729  0.6029769194042484  0.8325278649631755  1.0000
  O   O1        1.0  0.716517199455687  0.2569275070001566  0.19992593305961756  1.0000
  O   O2        1.0  0.28350657897724574  0.743023209627239  0.8000602783769751  1.0000
  O   O3        1.0  0.15002248538834814  0.18184621616052962  0.9260867335885763  1.0000
  O   O4        1.0  0.8499566089061334  0.8181855444073417  0.07390016108196562  1.0000
  O   O5        1.0  0.3872037885033348  0.9761702979924607  0.920962200366752  1.0000
  O   O6        1.0  0.6127967653567551  0.023839587030195692  0.07903416569396171  1.0000
  O   O7        1.0  0.5127251611206275  0.5917793163401228  0.1837319099224999  1.0000
  O   O8        1.0  0.48724354775202994  0.4082282640524466  0.8162607780097062  1.0000
  O   O9        1.0  0.26365245412620913  0.6027502477906026  0.2850109644285652  1.0000
  O   O10       1.0  0.7363188841175586  0.3972738076445664  0.7149692031110674  1.0000
  O   O11       1.0  0.8031927573840039  0.08964335634089339  0.32168912988500853  1.0000
  O   O12       1.0  0.1968578598993174  0.910367797450114  0.6783160514226623  1.0000
