data_image0
_chemical_formula_structural       Cd2H40C32Se4N12
_chemical_formula_sum              "Cd2 H40 C32 Se4 N12"
_cell_length_a       6.054753103522046
_cell_length_b       11.130139209880053
_cell_length_c       14.402945580554023
_cell_angle_alpha    90.00098367961407
_cell_angle_beta     99.90171411871056
_cell_angle_gamma    89.99947921803071

_space_group_name_H-M_alt    "P 1"
_space_group_IT_number       1

loop_
  _space_group_symop_operation_xyz
  'x, y, z'

loop_
  _atom_site_type_symbol
  _atom_site_label
  _atom_site_symmetry_multiplicity
  _atom_site_fract_x
  _atom_site_fract_y
  _atom_site_fract_z
  _atom_site_occupancy
  Cd  Cd1       1.0  0.9999465576443144  4.269981062099998e-06  5.047300696510263e-06  1.0000
  Cd  Cd2       1.0  4.68201228543015e-05  0.5000021572686109  0.5000002782736743  1.0000
  H   H1        1.0  0.6449955857058001  0.7786414062409934  0.9967879743184367  1.0000
  H   H2        1.0  0.6450055026280168  0.7213417078074472  0.49679000728529127  1.0000
  H   H3        1.0  0.35498579178233314  0.22134561560849164  0.003208817047642799  1.0000
  H   H4        1.0  0.3549878992437742  0.2786480094276484  0.5032173129281715  1.0000
  H   H5        1.0  0.618742130748096  0.5712891742598671  0.04904353146252299  1.0000
  H   H6        1.0  0.6187414616547572  0.928706412630483  0.5490360652709468  1.0000
  H   H7        1.0  0.38127457608521803  0.4287050350499514  0.9509597996811862  1.0000
  H   H8        1.0  0.3812619575980919  0.0712868983599293  0.45097053927444347  1.0000
  H   H9        1.0  0.3224289348020479  0.5995989203504736  0.17970416333901798  1.0000
  H   H10       1.0  0.3224361773227571  0.900405905466485  0.6797092974395225  1.0000
  H   H11       1.0  0.6775840886539657  0.4004006796486763  0.8202878106965628  1.0000
  H   H12       1.0  0.6775785641239268  0.09960896837598908  0.3202841808449931  1.0000
  H   H13       1.0  0.31483930080358397  0.8034368173995434  0.11879662602042629  1.0000
  H   H14       1.0  0.3148642355019149  0.6965606715508557  0.6188095756500971  1.0000
  H   H15       1.0  0.6851282934029257  0.19656008751007187  0.8811867410020681  1.0000
  H   H16       1.0  0.6851557211506999  0.3034497100050758  0.38119050217881056  1.0000
  H   H17       1.0  0.6052390363977835  0.4271508583002657  0.1351059955986287  1.0000
  H   H18       1.0  0.6052216066780148  0.07284654059110103  0.6351100550143867  1.0000
  H   H19       1.0  0.3947827410820183  0.572843350984087  0.8648990649253461  1.0000
  H   H20       1.0  0.39475852846140924  0.9271548567901463  0.3649012344520486  1.0000
  H   H21       1.0  0.7443591289708851  0.3348168046368869  0.0604579802559897  1.0000
  H   H22       1.0  0.7443326502848748  0.16516875780676094  0.5604607500918347  1.0000
  H   H23       1.0  0.2556656503974112  0.6651935768151985  0.9395354780342512  1.0000
  H   H24       1.0  0.2556404482330947  0.8348137718328134  0.4395389567955873  1.0000
  H   H25       1.0  0.7643565857314983  0.30146872481669373  0.18241560038434557  1.0000
  H   H26       1.0  0.7643409932830423  0.19853592606988713  0.6824140530992577  1.0000
  H   H27       1.0  0.23566653756197553  0.698521890504864  0.817578440848102  1.0000
  H   H28       1.0  0.23564193696204686  0.8014699634161034  0.3175786766006681  1.0000
  H   H29       1.0  0.2997914226096228  0.43966258829600247  0.21948577054364896  1.0000
  H   H30       1.0  0.2997686116922154  0.06032623870876821  0.7194899728011706  1.0000
  H   H31       1.0  0.7002322380143441  0.5603379102703344  0.7805263600980508  1.0000
  H   H32       1.0  0.7002066385215144  0.939659884913624  0.2805258488430126  1.0000
  H   H33       1.0  0.11358096820779913  0.3531059994699461  0.2744673253001863  1.0000
  H   H34       1.0  0.11358074785343318  0.14689955973002364  0.7744708874818185  1.0000
  H   H35       1.0  0.8864206299504434  0.6468855145648646  0.7255342963957998  1.0000
  H   H36       1.0  0.8864109159283802  0.8531126190323021  0.22553423306357695  1.0000
  H   H37       1.0  0.1867627476475562  0.3037204182395784  0.1660537781049172  1.0000
  H   H38       1.0  0.1867739110873927  0.19627374941963882  0.6660539941489672  1.0000
  H   H39       1.0  0.8132471915972631  0.6962845726383337  0.8339470153766297  1.0000
  H   H40       1.0  0.8132425683957862  0.8037150690501775  0.3339416837727427  1.0000
  C   C1        1.0  0.7919306692306733  0.7351292401030776  0.03745560755454141  1.0000
  C   C2        1.0  0.7919657711970913  0.7648578545184109  0.5374619447612261  1.0000
  C   C3        1.0  0.20804238819280843  0.264868563366541  0.9625427079775902  1.0000
  C   C4        1.0  0.20804783073738523  0.23513994874091543  0.46254951006977035  1.0000
  C   C5        1.0  0.7780225286718334  0.6178858274432102  0.0673843895233475  1.0000
  C   C6        1.0  0.7780255847169429  0.8821164505685245  0.5673792437904693  1.0000
  C   C7        1.0  0.22197923484046814  0.3821101789506471  0.9326227981571831  1.0000
  C   C8        1.0  0.22195614408673242  0.11787596216015572  0.43262937525707196  1.0000
  C   C9        1.0  0.9681104511129635  0.561045411389401  0.12180446698899057  1.0000
  C   C10       1.0  0.9680987030531583  0.938949365868908  0.6218082159803727  1.0000
  C   C11       1.0  0.031902778965417204  0.43895508713642784  0.8781944644867535  1.0000
  C   C12       1.0  0.0318979899196208  0.06105382824129182  0.3781972423816312  1.0000
  C   C13       1.0  0.16599798353726672  0.6325437102354102  0.13896242043055904  1.0000
  C   C14       1.0  0.1660010991297085  0.867456640911918  0.6389737207170112  1.0000
  C   C15       1.0  0.8340117488444962  0.3674442098113602  0.8610314154719205  1.0000
  C   C16       1.0  0.8340070397081477  0.1325483499396469  0.3610227856738106  1.0000
  C   C17       1.0  0.16321737040323114  0.7486012525287506  0.10487806820624  1.0000
  C   C18       1.0  0.1632136372984121  0.7513930972744804  0.6048857579853717  1.0000
  C   C19       1.0  0.8367888028206777  0.25140912901236595  0.8951085851942009  1.0000
  C   C20       1.0  0.8367709488476791  0.2486208783443687  0.39510638867201914  1.0000
  C   C21       1.0  0.7564672194981343  0.3746848109563743  0.1311419426237919  1.0000
  C   C22       1.0  0.7564595477225496  0.12531628754875607  0.6311412048319551  1.0000
  C   C23       1.0  0.24354770770945322  0.6253174844858622  0.8688577972418937  1.0000
  C   C24       1.0  0.2435270039037718  0.8746833127669477  0.36886079473865147  1.0000
  C   C25       1.0  0.1501371996368448  0.3833454492343549  0.20607990798053064  1.0000
  C   C26       1.0  0.1501444406428689  0.11665189535163728  0.7060828180330672  1.0000
  C   C27       1.0  0.849857734224031  0.6166559479398402  0.7939226547618006  1.0000
  C   C28       1.0  0.8498487960620554  0.88334590798344  0.2939189363038963  1.0000
  C   C29       1.0  0.44863534652066056  0.9409984180947435  0.8847400675373576  1.0000
  C   C30       1.0  0.4487189347807644  0.5590064638206867  0.3847348648878181  1.0000
  C   C31       1.0  0.5512773800418744  0.059024542761847015  0.1152548892287939  1.0000
  C   C32       1.0  0.5513543785219285  0.4409886433896802  0.6152590766047437  1.0000
  Se  Se1       1.0  0.6929152505315984  0.9410506596289923  0.8292243896973728  1.0000
  Se  Se2       1.0  0.6930156637325667  0.5589607729579599  0.32922239974898554  1.0000
  Se  Se3       1.0  0.30701935210731085  0.058951636475491405  0.1707748140706187  1.0000
  Se  Se4       1.0  0.3070709374714938  0.44105679564443523  0.6707682685271051  1.0000
  N   N1        1.0  0.9803528122850979  0.8022384141137594  0.054932641986532395  1.0000
  N   N2        1.0  0.9803693797889681  0.6977593632285775  0.5549443533060483  1.0000
  N   N3        1.0  0.019623350090697003  0.19775938925178593  0.9450575498891707  1.0000
  N   N4        1.0  0.019643953634030698  0.30224383071399075  0.44505805690907607  1.0000
  N   N5        1.0  0.9576178372539773  0.44769234136833796  0.15519288983929158  1.0000
  N   N6        1.0  0.9576063779120787  0.05230408100555201  0.6551928724381921  1.0000
  N   N7        1.0  0.0423955787323962  0.5523054618322051  0.8448123033025039  1.0000
  N   N8        1.0  0.0423802976395322  0.9476928239652626  0.3448133015687347  1.0000
  N   N9        1.0  0.28628034207082464  0.9390010273528234  0.9196937398767628  1.0000
  N   N10       1.0  0.28639495058738623  0.5609865615320828  0.41971703699702795  1.0000
  N   N11       1.0  0.7136133855629014  0.061006659625590515  0.08028119274674593  1.0000
  N   N12       1.0  0.7137057023161831  0.4390094440974366  0.5802961001845046  1.0000
