data_image0
_chemical_formula_structural       Ag4H56C30N12Cl4O26
_chemical_formula_sum              "Ag4 H56 C30 N12 Cl4 O26"
_cell_length_a       10.012805681494028
_cell_length_b       10.068297202346033
_cell_length_c       13.191
_cell_angle_alpha    100.97854714470625
_cell_angle_beta     92.29674805976404
_cell_angle_gamma    108.45452878638723

_space_group_name_H-M_alt    "P 1"
_space_group_IT_number       1

loop_
  _space_group_symop_operation_xyz
  'x, y, z'

loop_
  _atom_site_type_symbol
  _atom_site_label
  _atom_site_symmetry_multiplicity
  _atom_site_fract_x
  _atom_site_fract_y
  _atom_site_fract_z
  _atom_site_occupancy
  Ag  Ag1       1.0  0.5476597092243408  0.4092828806058008  0.6056897669453605  1.0000
  Ag  Ag2       1.0  0.4523407095161289  0.5907178138153029  0.3943114838713413  1.0000
  Ag  Ag3       1.0  0.0509856445454133  0.07567775048028838  0.8193923744732386  1.0000
  Ag  Ag4       1.0  0.9490154237161335  0.9243218719724524  0.18060874028211057  1.0000
  H   H1        1.0  0.8865133097708268  0.8622088091499548  0.91978494077636  1.0000
  H   H2        1.0  0.11348775849071303  0.1377908133027859  0.0802154158863502  1.0000
  H   H3        1.0  0.7079420710020444  0.5087583287313535  0.4551804693058088  1.0000
  H   H4        1.0  0.29205799773548347  0.4912412937213873  0.5448190988592145  1.0000
  H   H5        1.0  0.6208447010851402  0.3422494829998968  0.4035144396997481  1.0000
  H   H6        1.0  0.3791553676523876  0.657750139452844  0.5964851284652752  1.0000
  H   H7        1.0  0.04358417623515009  0.8565498881648566  0.9095508683198973  1.0000
  H   H8        1.0  0.9564168920263897  0.1434497342878913  0.09044948834282  1.0000
  H   H9        1.0  0.41572891198121203  0.7216512455038213  0.8910314835071205  1.0000
  H   H10       1.0  0.5842701572322967  0.2783483769489195  0.1089680542528555  1.0000
  H   H11       1.0  0.5765159773145712  0.7907524700807969  0.8345720945383946  1.0000
  H   H12       1.0  0.4234830918989445  0.209247152371951  0.16542592703630277  1.0000
  H   H13       1.0  0.6202544751466874  0.8989912595689588  0.02008191279124108  1.0000
  H   H14       1.0  0.37974664359966687  0.1010115787888708  0.979916638587696  1.0000
  H   H15       1.0  0.5509196028261344  0.7268342125360192  0.052889196129441984  1.0000
  H   H16       1.0  0.44908116591727787  0.2731675538534475  0.9471107049683738  1.0000
  H   H17       1.0  0.6780625086701093  0.5656927123950979  0.020380802120563098  1.0000
  H   H18       1.0  0.3219372605492836  0.4343090539943688  0.9796198266648446  1.0000
  H   H19       1.0  0.8460344985141434  0.6227610921041418  0.9721460376768363  1.0000
  H   H20       1.0  0.15396492070230752  0.3772396023169691  0.0278536665495324  1.0000
  H   H21       1.0  0.5579026253588211  0.1807788885717159  0.7348522080483733  1.0000
  H   H22       1.0  0.4420974433787066  0.8192207338810249  0.2651481182092965  1.0000
  H   H23       1.0  0.5055053903304838  0.0936450122024652  0.6010725515796977  1.0000
  H   H24       1.0  0.49449402888596694  0.9063556822186385  0.3989279107393102  1.0000
  H   H25       1.0  0.5825650228933341  0.9334325310844847  0.6916689794959295  1.0000
  H   H26       1.0  0.41743604536821277  0.0665670913682632  0.3083306190741482  1.0000
  H   H27       1.0  0.47122230062538517  0.9555847572934582  0.7918863487341739  1.0000
  H   H28       1.0  0.5287777681121426  0.0444148651592826  0.20811321943084954  1.0000
  H   H29       1.0  0.2207468038582476  0.8489303370449193  0.7497236450072294  1.0000
  H   H30       1.0  0.779253914400357  0.1510682134394585  0.250276545189088  1.0000
  H   H31       1.0  0.1557561121714173  0.7481846064099216  0.6198547643697552  1.0000
  H   H32       1.0  0.8442443065690526  0.2518160880111822  0.3801449702616608  1.0000
  H   H33       1.0  0.23615417093871832  0.9690358163048458  0.5504457426413936  1.0000
  H   H34       1.0  0.7638472473257707  0.0309648781162579  0.4495547804877162  1.0000
  H   H35       1.0  0.12163731304351437  0.9877298725767217  0.646738130148364  1.0000
  H   H36       1.0  0.8783627556940132  0.0122697498760189  0.3532614380166663  1.0000
  H   H37       1.0  0.11559555626007519  0.596627575397207  0.808998603406323  1.0000
  H   H38       1.0  0.8844041624745103  0.4033709750871708  0.1910015563849399  1.0000
  H   H39       1.0  0.948680160976629  0.49568889045698233  0.8429471218363319  1.0000
  H   H40       1.0  0.05131990776089882  0.5043107319957585  0.1570532044213309  1.0000
  H   H41       1.0  0.9079079255117223  0.6394569993485035  0.7180963569835725  1.0000
  H   H42       1.0  0.0920921432258055  0.3605426231042372  0.2819032111814508  1.0000
  H   H43       1.0  0.008314432156218705  0.5649487663515913  0.6283345395217452  1.0000
  H   H44       1.0  0.9916842870543549  0.4350497841327865  0.3716663479571096  1.0000
  H   H45       1.0  0.9189166927234639  0.32573366644041357  0.5442928330095356  1.0000
  H   H46       1.0  0.0810833760140639  0.6742659560123272  0.4557074932481271  1.0000
  H   H47       1.0  0.7492014464483675  0.21819058441944614  0.5721090726840856  1.0000
  H   H48       1.0  0.25079862228916033  0.7818090380333018  0.42789049548093777  1.0000
  H   H49       1.0  0.8489741183259198  0.2206218086653635  0.7455422363436385  1.0000
  H   H50       1.0  0.1510256004086656  0.7793767418190142  0.2544571653549923  1.0000
  H   H51       1.0  0.9569960730037296  0.168140381579029  0.6524352945815649  1.0000
  H   H52       1.0  0.04300499525781726  0.8318592408737118  0.34756430398851285  1.0000
  H   H53       1.0  0.7303907558864895  0.6210963252373318  0.8018196234783517  1.0000
  H   H54       1.0  0.2696096628539735  0.37890436918377185  0.1981801111530714  1.0000
  H   H55       1.0  0.6571737270108003  0.4501698978844288  0.8342237415030525  1.0000
  H   H56       1.0  0.34282569220565057  0.5498307965366749  0.1657767208159626  1.0000
  C   C1        1.0  0.17507957131651614  0.3674793303773214  0.7587799040433721  1.0000
  C   C2        1.0  0.8249191478940503  0.6325192201070564  0.2412209834354826  1.0000
  C   C3        1.0  0.4122787443552625  0.4716307044996597  0.7962661841503618  1.0000
  C   C4        1.0  0.5877213243822652  0.528368917953081  0.20373490019994017  1.0000
  C   C5        1.0  0.31983709411735356  0.2307025991453671  0.7248649169956635  1.0000
  C   C6        1.0  0.6801639741441861  0.7692970233073737  0.2751354396670465  1.0000
  C   C7        1.0  0.5254394939890689  0.7237201444432486  0.8882894516105324  1.0000
  C   C8        1.0  0.4745619242754202  0.2762805499778551  0.11171031342593808  1.0000
  C   C9        1.0  0.6069611959123193  0.7848555721192341  0.99589191367334  1.0000
  C   C10       1.0  0.39303822330413857  0.21514512230186966  0.004106274367757102  1.0000
  C   C11       1.0  0.7378400222517171  0.6259233987732172  0.9659349031830757  1.0000
  C   C12       1.0  0.2621593969647336  0.3740772956478864  0.034064801043299994  1.0000
  C   C13       1.0  0.4793932726250176  0.0904687699446782  0.681466149759892  1.0000
  C   C14       1.0  0.5206071461154522  0.9095319244764326  0.3185335848715312  1.0000
  C   C15       1.0  0.4825759421570411  0.9508337935113076  0.7086148916717434  1.0000
  C   C16       1.0  0.5174241265804868  0.0491658289414332  0.291384676493287  1.0000
  C   C17       1.0  0.23580553247730762  0.8438727903111243  0.6667227413126469  1.0000
  C   C18       1.0  0.7641935367362079  0.15612683214162357  0.3332775545399683  1.0000
  C   C19       1.0  0.22516546002727722  0.9766585833298649  0.6339706216859469  1.0000
  C   C20       1.0  0.7748346087102506  0.0233410391228759  0.3660289464790765  1.0000
  C   C21       1.0  0.015718336907916425  0.5104745500795573  0.7789221306215667  1.0000
  C   C22       1.0  0.9842817318296117  0.48952507237319054  0.2210789537287354  1.0000
  C   C23       1.0  0.9391582384733752  0.54494047686741  0.6908650371843237  1.0000
  C   C24       1.0  0.06084148026121031  0.4550580736169678  0.30913512260694637  1.0000
  C   C25       1.0  0.8487699394706852  0.3032480580707286  0.6059696016788578  1.0000
  C   C26       1.0  0.15123382784477  0.6967537083187381  0.3940311487267465  1.0000
  C   C27       1.0  0.9228707488406728  0.2570933882592712  0.6891479849725002  1.0000
  C   C28       1.0  0.0771279703698937  0.7429051622251066  0.31085138632107606  1.0000
  C   C29       1.0  0.6668513869203991  0.5634137076566361  0.8558391880577573  1.0000
  C   C30       1.0  0.33314768229311653  0.43658591479610454  0.1441611077948579  1.0000
  N   N1        1.0  0.43541228828914313  0.3503535638196311  0.7434645255962878  1.0000
  N   N2        1.0  0.5645877804483846  0.6496460586331096  0.2565365587540143  1.0000
  N   N3        1.0  0.1871456092632471  0.2330791530048089  0.7401967749517908  1.0000
  N   N4        1.0  0.8128544594742807  0.7669204694479389  0.259803551305879  1.0000
  N   N5        1.0  0.28470451274278474  0.4881647445213062  0.7955802444246843  1.0000
  N   N6        1.0  0.7152942064677887  0.5118338059630786  0.20442064305417773  1.0000
  N   N7        1.0  0.045191868104304  0.3775461852686135  0.7418617886336846  1.0000
  N   N8        1.0  0.9548082006332239  0.6224534371841273  0.258138537623978  1.0000
  N   N9        1.0  0.5265152507598785  0.5781661362599735  0.8491637864251871  1.0000
  N   N10       1.0  0.4734848179776493  0.4218334861927673  0.1508357817398362  1.0000
  N   N11       1.0  0.33885522621386605  0.1026527623517026  0.6915646247996817  1.0000
  N   N12       1.0  0.6611451925266039  0.897347932069401  0.30843586792437344  1.0000
  Cl  Cl1       1.0  0.7919233981318996  0.1868837483955801  0.949947325764569  1.0000
  Cl  Cl2       1.0  0.20807702060857036  0.8131169460255308  0.05005240886685411  1.0000
  Cl  Cl3       1.0  0.7712923761351151  0.7838221946178834  0.5752269729545816  1.0000
  Cl  Cl4       1.0  0.2287080426053549  0.2161784998032203  0.4247742778621202  1.0000
  O   O1        1.0  0.6145529530285785  0.43329282798681856  0.44453208579147946  1.0000
  O   O2        1.0  0.3854474657118914  0.5667078664342853  0.5554676488399437  1.0000
  O   O3        1.0  0.9647993890427672  0.8761754849436585  0.8749629699462531  1.0000
  O   O4        1.0  0.0352013292158375  0.1238230655407264  0.1250372202500643  1.0000
  O   O5        1.0  0.7032570790222864  0.2716153436646919  0.9323692451233185  1.0000
  O   O6        1.0  0.2967429897152414  0.7283842787880488  0.0676303230417048  1.0000
  O   O7        1.0  0.7453133884233409  0.0497039570593572  0.8756319340869538  1.0000
  O   O8        1.0  0.25468703031712187  0.9502967373617465  0.12436780054446932  1.0000
  O   O9        1.0  0.7842344163390323  0.1610139359057996  0.0566830824680693  1.0000
  O   O10       1.0  0.2157656523984954  0.8389856865469412  0.9433164856969538  1.0000
  O   O11       1.0  0.9401017878484126  0.2646432614356513  0.9391593928272641  1.0000
  O   O12       1.0  0.059898280889115085  0.7353563610170966  0.0608401753377663  1.0000
  O   O13       1.0  0.8125589032318531  0.4278750998832521  0.6476618404699934  1.0000
  O   O14       1.0  0.1874411655056747  0.5721245225694886  0.3523384857876692  1.0000
  O   O15       1.0  0.7480764649891896  0.7748680428867658  0.9968595566907297  1.0000
  O   O16       1.0  0.2519243037542225  0.22513372350270086  0.0031403444070861  1.0000
  O   O17       1.0  0.3713076197414864  0.8284825405321569  0.6487379426940834  1.0000
  O   O18       1.0  0.6286927989989836  0.1715181538889468  0.3512610338447004  1.0000
  O   O19       1.0  0.6617918866242505  0.813621843124217  0.515364935763742  1.0000
  O   O20       1.0  0.3382105816490579  0.1863820672019756  0.4846353286719207  1.0000
  O   O21       1.0  0.7079229711191246  0.7099914456260022  0.65545951866779  1.0000
  O   O22       1.0  0.2920760980943911  0.29000817682673835  0.3445400190921859  1.0000
  O   O23       1.0  0.8819219363704178  0.9183938869283849  0.6224350882377295  1.0000
  O   O24       1.0  0.11807978141219883  0.0816046635559999  0.37756740664156047  1.0000
  O   O25       1.0  0.8341567020064107  0.6925783915471939  0.5054272918635974  1.0000
  O   O26       1.0  0.1658437167340594  0.3074223028739098  0.494573200860465  1.0000
