data_image0
_chemical_formula_structural       Ag2H20C22N6O6
_chemical_formula_sum              "Ag2 H20 C22 N6 O6"
_cell_length_a       5.399586255829851
_cell_length_b       8.18497530224398
_cell_length_c       12.80528558758012
_cell_angle_alpha    90.00056122652943
_cell_angle_beta     94.5492441591517
_cell_angle_gamma    90.00063395209342

_space_group_name_H-M_alt    "P 1"
_space_group_IT_number       1

loop_
  _space_group_symop_operation_xyz
  'x, y, z'

loop_
  _atom_site_type_symbol
  _atom_site_label
  _atom_site_symmetry_multiplicity
  _atom_site_fract_x
  _atom_site_fract_y
  _atom_site_fract_z
  _atom_site_occupancy
  Ag  Ag1       1.0  0.9999975415548124  0.2460416906341293  0.24999882352299346  1.0000
  Ag  Ag2       1.0  1.78654599380138e-06  0.7539568844096394  0.749997895249443  1.0000
  H   H1        1.0  0.33525914674810053  0.5576883920583101  0.247412837942008  1.0000
  H   H2        1.0  0.3352552693433566  0.442307752919028  0.7474117309431705  1.0000
  H   H3        1.0  0.6647700455944375  0.4423260659327539  0.7525941726639757  1.0000
  H   H4        1.0  0.664779345419298  0.5576749394919888  0.25258529443932076  1.0000
  H   H5        1.0  0.1369293966771963  0.4743129577160091  0.0908627832451927  1.0000
  H   H6        1.0  0.13693454086838128  0.5256793092708776  0.5908655881379943  1.0000
  H   H7        1.0  0.8630625930208355  0.5256953913555903  0.9091399569156096  1.0000
  H   H8        1.0  0.863068665074664  0.47430949186762916  0.4091421833252085  1.0000
  H   H9        1.0  0.1349137951006227  0.314347129344867  0.9217193319916461  1.0000
  H   H10       1.0  0.13492008862847632  0.6856564577027414  0.4217244200846437  1.0000
  H   H11       1.0  0.8650688476662368  0.6856709936667756  0.0782792153953764  1.0000
  H   H12       1.0  0.8650793437701338  0.31433723039378236  0.5782793303720979  1.0000
  H   H13       1.0  0.5063714689921283  0.13776003209325444  0.8938301695289824  1.0000
  H   H14       1.0  0.506394060541325  0.86224085993868  0.3938384021504788  1.0000
  H   H15       1.0  0.493599980468197  0.862250760346626  0.10616490906589597  1.0000
  H   H16       1.0  0.4936090294536797  0.1377467193869322  0.6061615563079171  1.0000
  H   H17       1.0  0.844771073769273  0.11827730288771218  0.0356277738711697  1.0000
  H   H18       1.0  0.844795850791357  0.8817166645439796  0.5356357048550251  1.0000
  H   H19       1.0  0.15519293268503992  0.8817151632560397  0.9643662943174576  1.0000
  H   H20       1.0  0.1552090739514043  0.1182843540348841  0.4643627483093979  1.0000
  C   C1        1.0  0.5000110666102415  0.4781261416233989  0.24999778979078968  1.0000
  C   C2        1.0  0.5000050397435771  0.521871211763951  0.7500033508289335  1.0000
  C   C3        1.0  0.489475082094252  0.3786173861284182  0.1509756420998229  1.0000
  C   C4        1.0  0.48948011747691583  0.6213771068912307  0.650977467201784  1.0000
  C   C5        1.0  0.5105261502032121  0.6213824106980114  0.8490242591382113  1.0000
  C   C6        1.0  0.5105396812543148  0.3786141377438453  0.349022225319807  1.0000
  C   C7        1.0  0.28824485674411454  0.3918891792879506  0.0757138414251699  1.0000
  C   C8        1.0  0.2882514809932175  0.6081075859915825  0.575714072426976  1.0000
  C   C9        1.0  0.7117321661142598  0.6081179479206824  0.9242814089411197  1.0000
  C   C10       1.0  0.7117478470849649  0.3918885455506143  0.4242826463372893  1.0000
  C   C11       1.0  0.2884208256898333  0.30498587410295386  0.9821342387731207  1.0000
  C   C12       1.0  0.2884291502708791  0.6950050939896711  0.4821394466982127  1.0000
  C   C13       1.0  0.7115730217623054  0.6950163662217504  0.017868558628478606  1.0000
  C   C14       1.0  0.711579594345757  0.304986150652887  0.5178661526566087  1.0000
  C   C15       1.0  0.4917778912340367  0.20600632750944925  0.966012936519185  1.0000
  C   C16       1.0  0.4917918108854877  0.7939943793874492  0.4660220462276428  1.0000
  C   C17       1.0  0.5081823766039193  0.7940069083711594  0.0339794546163148  1.0000
  C   C18       1.0  0.5081964051436785  0.2060054173835226  0.5339766728817565  1.0000
  C   C19       1.0  0.6841954582311587  0.1959581628388349  0.0445569019288641  1.0000
  C   C20       1.0  0.6842113423468065  0.8040445816344713  0.5445625217259575  1.0000
  C   C21       1.0  0.31579458080502587  0.8040391904189761  0.9554395305333756  1.0000
  C   C22       1.0  0.315799225514418  0.1959698762614011  0.45544079106750246  1.0000
  N   N1        1.0  0.684136617138016  0.27992003644725133  0.1352712148605448  1.0000
  N   N2        1.0  0.6841527693314192  0.720074366328646  0.6352739864089044  1.0000
  N   N3        1.0  0.31583857100653734  0.7200773167604878  0.8647255408119818  1.0000
  N   N4        1.0  0.31585213221269026  0.2799254304870118  0.36472290415129294  1.0000
  N   N5        1.0  1.1323800670500156e-05  0.8711579322769724  0.2500038679203129  1.0000
  N   N6        1.0  7.191601447700379e-06  0.12884320831779664  0.7499992734700243  1.0000
  O   O1        1.0  0.9144084801441821  0.9487478285974476  0.32528151810179645  1.0000
  O   O2        1.0  0.9144066499062191  0.05125609395773271  0.8252780818207341  1.0000
  O   O3        1.0  0.08560578003789492  0.05125441179222181  0.6747203465731175  1.0000
  O   O4        1.0  0.08560387143324992  0.94874248115309  0.1747221057193258  1.0000
  O   O5        1.0  1.9221023734399955e-05  0.7158343115357652  0.2500067599830516  1.0000
  O   O6        1.0  8.629806380602198e-06  0.28416682911903013  0.749999792913684  1.0000
