data_image0
_chemical_formula_structural       Cu2H32C32S4N20
_chemical_formula_sum              "Cu2 H32 C32 S4 N20"
_cell_length_a       8.893605164024818
_cell_length_b       8.853670589954833
_cell_length_c       13.913298304008118
_cell_angle_alpha    90.00000395079712
_cell_angle_beta     90.0001059865416
_cell_angle_gamma    120.14916511590411

_space_group_name_H-M_alt    "P 1"
_space_group_IT_number       1

loop_
  _space_group_symop_operation_xyz
  'x, y, z'

loop_
  _atom_site_type_symbol
  _atom_site_label
  _atom_site_symmetry_multiplicity
  _atom_site_fract_x
  _atom_site_fract_y
  _atom_site_fract_z
  _atom_site_occupancy
  Cu  Cu1       1.0  6.530853297999997e-07  1.3061754486999996e-06  2.1562109183e-06  1.0000
  Cu  Cu2       1.0  0.5000013151629615  1.7890652940999993e-06  0.4999989241955162  1.0000
  H   H1        1.0  0.4019057132957541  0.5232025311166381  0.1422131126394532  1.0000
  H   H2        1.0  0.09809577690931792  0.4767953290005308  0.6422129902548122  1.0000
  H   H3        1.0  0.6213058080305911  0.5232059244446957  0.3577897336825231  1.0000
  H   H4        1.0  0.8786987976458815  0.47679360416304917  0.8577913863008033  1.0000
  H   H5        1.0  0.5980958836982282  0.47679551015563953  0.8577897800616225  1.0000
  H   H6        1.0  0.9019037530366346  0.5232053246118722  0.3577920586555691  1.0000
  H   H7        1.0  0.37869709512142435  0.4767947291716225  0.6422110028088639  1.0000
  H   H8        1.0  0.12130279934949326  0.523204437109996  0.1422122251371079  1.0000
  H   H9        1.0  0.6857621153064172  0.6018098310629368  0.0266612445506169  1.0000
  H   H10       1.0  0.8142373528739029  0.39819030113461207  0.5266642550386748  1.0000
  H   H11       1.0  0.4160534891661951  0.6018148506910989  0.4733380574305954  1.0000
  H   H12       1.0  0.08395154279666883  0.3981837119984207  0.973338634698919  1.0000
  H   H13       1.0  0.31423723287228705  0.39818821020063666  0.9733387732017672  1.0000
  H   H14       1.0  0.185765624237888  0.601819495688602  0.47334223134757275  1.0000
  H   H15       1.0  0.5839509019054887  0.39819102761502023  0.526662679061765  1.0000
  H   H16       1.0  0.9160524847615786  0.6018169416214858  0.026662820529985296  1.0000
  H   H17       1.0  0.7425251526042655  0.07335529965032352  0.1360853613215625  1.0000
  H   H18       1.0  0.7574752141522224  0.9266437585388374  0.6360796925905132  1.0000
  H   H19       1.0  0.8308320367532784  0.07335837598383678  0.3639163665722194  1.0000
  H   H20       1.0  0.6691658464164758  0.9266411656058791  0.8639177789855522  1.0000
  H   H21       1.0  0.25747194676759483  0.9266427416091148  0.8639160939031425  1.0000
  H   H22       1.0  0.24252674634256263  0.07335950741279619  0.363916012742493  1.0000
  H   H23       1.0  0.16917039506661516  0.9266435837982314  0.6360800574978924  1.0000
  H   H24       1.0  0.33083303044694645  0.0733581818325959  0.1360865511875815  1.0000
  H   H25       1.0  0.3622817138450428  0.7245619675452346  0.26974359940872006  1.0000
  H   H26       1.0  0.13771719067582208  0.2754322446350486  0.7697406444410503  1.0000
  H   H27       1.0  0.8622813226629373  0.7245618781111104  0.23025865457393724  1.0000
  H   H28       1.0  0.6377200649063537  0.2754386860705367  0.730259293292498  1.0000
  H   H29       1.0  0.4776108607625885  0.9552177555185322  0.24698271368656313  1.0000
  H   H30       1.0  0.022390203691600198  0.04477640837347251  0.7469788951888815  1.0000
  H   H31       1.0  0.9776096158066067  0.9552203267174804  0.2530189663532524  1.0000
  H   H32       1.0  0.522390736228587  0.044780285752224806  0.7530187415408489  1.0000
  C   C1        1.0  0.5139044685906811  0.6473765997778216  0.1226419775914636  1.0000
  C   C2        1.0  0.9860947212759894  0.35262242988903836  0.6226401624466007  1.0000
  C   C3        1.0  0.6334761345669547  0.647381089511228  0.37736310288765645  1.0000
  C   C4        1.0  0.8665253560751224  0.35262109295833705  0.8773618626508152  1.0000
  C   C5        1.0  0.48609281254140047  0.3526240538266308  0.8773609151070544  1.0000
  C   C6        1.0  0.013906767913333307  0.6473821422428402  0.37736488646500976  1.0000
  C   C7        1.0  0.36652423021052266  0.35262348261400694  0.6226383523390948  1.0000
  C   C8        1.0  0.13347529827284885  0.6473795606553664  0.12264174878657029  1.0000
  C   C9        1.0  0.6567451416891004  0.687823807876029  0.0673791074576187  1.0000
  C   C10       1.0  0.8432527079911479  0.3121751045358322  0.567379275638558  1.0000
  C   C11       1.0  0.5310798328007492  0.6878277975349221  0.43262168598929657  1.0000
  C   C12       1.0  0.9689203856948437  0.3121692774924226  0.9326227240684019  1.0000
  C   C13       1.0  0.34325018019539744  0.312172927206653  0.9326216290291638  1.0000
  C   C14       1.0  0.15675103000361904  0.6878294675994212  0.4326236170638963  1.0000
  C   C15       1.0  0.4689216563787538  0.31217677459162013  0.5673783317644591  1.0000
  C   C16       1.0  0.03107830940975725  0.6878274576018057  0.0673808873677473  1.0000
  C   C17       1.0  0.6926077101822941  0.935472768885873  0.12158626444791308  1.0000
  C   C18       1.0  0.80739484877337  0.06452625854774399  0.6215827892946209  1.0000
  C   C19       1.0  0.74286928917882  0.9354757802122649  0.3784146844611698  1.0000
  C   C20       1.0  0.7571284688468082  0.06452117979669228  0.8784168987410224  1.0000
  C   C21       1.0  0.30739098491669375  0.06452396620530008  0.8784144720408945  1.0000
  C   C22       1.0  0.19260888921157718  0.9354783135821733  0.3784150722499788  1.0000
  C   C23       1.0  0.25713248956135  0.06452487339740999  0.6215824583453653  1.0000
  C   C24       1.0  0.2428675061244333  0.9354768614621988  0.1215867126935137  1.0000
  C   C25       1.0  0.41279547023439267  0.825590483553448  0.21376912507514584  1.0000
  C   C26       1.0  0.08720339747689107  0.17440622220461674  0.7137646692142923  1.0000
  C   C27       1.0  0.9127993239120968  0.8255918190651599  0.28623319232961103  1.0000
  C   C28       1.0  0.5872005047368489  0.1744075577054431  0.7862344863593903  1.0000
  C   C29       1.0  0.13316346516161554  0.26632631544579505  0.20785446411496616  1.0000
  C   C30       1.0  0.3668445225952581  0.7336886641897138  0.7078525155454044  1.0000
  C   C31       1.0  0.6331585623015457  0.2663146017632343  0.2921417523146062  1.0000
  C   C32       1.0  0.8668323280115116  0.7336691134475046  0.7921283039511806  1.0000
  S   S1        1.0  0.1618008211169624  0.32360343422094934  0.3205423556459336  1.0000
  S   S2        1.0  0.3382022741912819  0.6764078659803373  0.8205382149089075  1.0000
  S   S3        1.0  0.6618006289551204  0.32359278763293275  0.17945964663513783  1.0000
  S   S4        1.0  0.838194972070198  0.6763919946799675  0.679447599788574  1.0000
  N   N1        1.0  0.7673821077680997  0.8665135754096198  0.06830490939393029  1.0000
  N   N2        1.0  0.7326150924415414  0.13348403279098156  0.5683027835806198  1.0000
  N   N3        1.0  0.5991357661798489  0.8665200682600728  0.431695996226466  1.0000
  N   N4        1.0  0.9008651017821376  0.13347831097624405  0.9316969477423597  1.0000
  N   N5        1.0  0.23261303235898373  0.13348054732957587  0.9316958270927028  1.0000
  N   N6        1.0  0.2673854540905509  0.866523151676219  0.4316972341726099  1.0000
  N   N7        1.0  0.4008692779687451  0.13348711621691928  0.568302584055793  1.0000
  N   N8        1.0  0.09913424640358677  0.8665197302911382  0.06830666369420868  1.0000
  N   N9        1.0  0.5378384966056088  0.805313730450969  0.1560280388282109  1.0000
  N   N10       1.0  0.9621601705427522  0.19468406387972687  0.6560261907386361  1.0000
  N   N11       1.0  0.7674771859983308  0.8053145078937547  0.34397139089914924  1.0000
  N   N12       1.0  0.7325199662138784  0.19468368520603715  0.8439742977391871  1.0000
  N   N13       1.0  0.46215925584737505  0.1946856169816229  0.8439734163969064  1.0000
  N   N14       1.0  0.037841608203031195  0.8053165897329959  0.3439738270152404  1.0000
  N   N15       1.0  0.23252459274324613  0.19468614571668041  0.6560264706442211  1.0000
  N   N16       1.0  0.2674726355414733  0.8053143560436027  0.15602859495648144  1.0000
  N   N17       1.0  0.11373729736886415  0.22748063765834559  0.12489784632038689  1.0000
  N   N18       1.0  0.3862635460862264  0.7725250227442757  0.6248944846619081  1.0000
  N   N19       1.0  0.613740010151126  0.22747693704749136  0.3751084080404041  1.0000
  N   N20       1.0  0.8862512041128595  0.7725069541928349  0.8750899528991241  1.0000
