data_image0
_chemical_formula_structural       Ni2P4H56C36S10N4O8
_chemical_formula_sum              "Ni2 P4 H56 C36 S10 N4 O8"
_cell_length_a       8.125356059484908
_cell_length_b       9.344781086703351
_cell_length_c       17.75788647903467
_cell_angle_alpha    100.02434741244788
_cell_angle_beta     100.118250872065
_cell_angle_gamma    94.60217244369179

_space_group_name_H-M_alt    "P 1"
_space_group_IT_number       1

loop_
  _space_group_symop_operation_xyz
  'x, y, z'

loop_
  _atom_site_type_symbol
  _atom_site_label
  _atom_site_symmetry_multiplicity
  _atom_site_fract_x
  _atom_site_fract_y
  _atom_site_fract_z
  _atom_site_occupancy
  Ni  Ni1       1.0  1.174087458429324e-06  0.49999900049982676  0.500000389579725  1.0000
  Ni  Ni2       1.0  0.9999990958851795  1.4822323209001153e-06  1.999391940882868e-06  1.0000
  P   P1        1.0  0.27142976808202224  0.7535957070597732  0.5343596633750849  1.0000
  P   P2        1.0  0.7285716529393512  0.2464037318760788  0.4656391674298774  1.0000
  P   P3        1.0  0.7876041023508408  0.24083593502599138  0.974071934222863  1.0000
  P   P4        1.0  0.2123978883903064  0.7591678856631888  0.025927893842450134  1.0000
  H   H1        1.0  0.5004605523957296  0.572199202705349  0.605522323547639  1.0000
  H   H2        1.0  0.4995357187935952  0.42779912192060726  0.3944748726890879  1.0000
  H   H3        1.0  0.4016481754713723  0.6707351999152849  0.6777431932110929  1.0000
  H   H4        1.0  0.5983505965391628  0.3292631286094405  0.3222542021839061  1.0000
  H   H5        1.0  0.7085949490327081  0.6571463522360118  0.7287043331464248  1.0000
  H   H6        1.0  0.29140852494976593  0.34284976473352197  0.2712904240979555  1.0000
  H   H7        1.0  0.668122542488  0.842125941064623  0.7296858850269388  1.0000
  H   H8        1.0  0.3318782956486217  0.15786909080584624  0.270309692662579  1.0000
  H   H9        1.0  0.7649796160695245  0.7482564364789255  0.6556529980193275  1.0000
  H   H10       1.0  0.23502010668112658  0.25173967464245106  0.34434146048764097  1.0000
  H   H11       1.0  0.1258673050945447  0.0425377966223621  0.463525928456356  1.0000
  H   H12       1.0  0.8741353630461931  0.9574616379348694  0.5364724379639725  1.0000
  H   H13       1.0  0.04414386808893059  0.8547950303383728  0.43865764834517046  1.0000
  H   H14       1.0  0.9558589416589385  0.14520549807517827  0.5613408263993023  1.0000
  H   H15       1.0  0.11904603260867219  0.9464918492629548  0.32223749306739796  1.0000
  H   H16       1.0  0.8809549603000589  0.0535043017759094  0.677760448801365  1.0000
  H   H17       1.0  0.24557662901455055  0.8082260540076193  0.3471986377585026  1.0000
  H   H18       1.0  0.7544233966978383  0.1917722827945099  0.6527994211794095  1.0000
  H   H19       1.0  0.3302306174881053  0.9967301926953664  0.37338328565364526  1.0000
  H   H20       1.0  0.6697703754206259  0.003265958343497701  0.6266146562151178  1.0000
  H   H21       1.0  0.8586329999923806  0.21459271500334148  0.8240219168911693  1.0000
  H   H22       1.0  0.14136996123635737  0.7854089262505894  0.17597835806877532  1.0000
  H   H23       1.0  0.0017140567287369961  0.36887936836120616  0.8789142594357954  1.0000
  H   H24       1.0  0.9982880558720668  0.6311255082161936  0.12108229317100692  1.0000
  H   H25       1.0  0.8735434933586745  0.4104747830385307  0.7448609080195681  1.0000
  H   H26       1.0  0.1264513858129135  0.589522445781711  0.2551360803138749  1.0000
  H   H27       1.0  0.818862276985726  0.5384400419332136  0.8206359755242899  1.0000
  H   H28       1.0  0.18113427083537204  0.46156045774934995  0.1793603094331715  1.0000
  H   H29       1.0  0.6701476525968246  0.3871293142865255  0.7674590714499417  1.0000
  H   H30       1.0  0.3298495956625729  0.6128668435602193  0.2325396996089637  1.0000
  H   H31       1.0  0.747185304097954  0.26820380415828987  0.12775643745334256  1.0000
  H   H32       1.0  0.2528154263588576  0.7317999955974485  0.8722415991415104  1.0000
  H   H33       1.0  0.5585976505031667  0.15403898279019757  0.07785838692772272  1.0000
  H   H34       1.0  0.4414039121253381  0.845961550001988  0.9221405522013838  1.0000
  H   H35       1.0  0.49932250983915344  0.3447627107358784  0.1846223808633951  1.0000
  H   H36       1.0  0.5006805897054748  0.6552400180463637  0.8153774384569132  1.0000
  H   H37       1.0  0.3964297333292208  0.37579522510844754  0.0928217851104947  1.0000
  H   H38       1.0  0.6035691967446722  0.6242042289126883  0.90717853842753  1.0000
  H   H39       1.0  0.5853006334606192  0.4859480150611901  0.14239309172604922  1.0000
  H   H40       1.0  0.414698560080069  0.514053588704492  0.8576040646776093  1.0000
  H   H41       1.0  0.9593495752499521  0.5224907141479775  0.3317778013183599  1.0000
  H   H42       1.0  0.040649358115189195  0.4775087462011739  0.6682230861834314  1.0000
  H   H43       1.0  0.8198800630946365  0.6750769838510849  0.2433394396787065  1.0000
  H   H44       1.0  0.18011930496563622  0.3249257770510924  0.7566634646868522  1.0000
  H   H45       1.0  0.5609333966880854  0.843125309179129  0.427932933916125  1.0000
  H   H46       1.0  0.4390737702150744  0.1568796764440847  0.5720730404276395  1.0000
  H   H47       1.0  0.7140424800975751  0.685581427456455  0.5078021537793731  1.0000
  H   H48       1.0  0.28596675293166374  0.31442026151250957  0.4922020028589031  1.0000
  H   H49       1.0  0.0357255850006126  0.11498325164381379  0.1722608193385469  1.0000
  H   H50       1.0  0.9642661488626203  0.8850184226897754  0.8277430711193716  1.0000
  H   H51       1.0  0.8779400137462687  0.080847117445181  0.278943141554528  1.0000
  H   H52       1.0  0.12205226249191271  0.9191490895561641  0.7210603068618084  1.0000
  H   H53       1.0  0.5458402519807066  0.7412928480128612  0.11183133856069818  1.0000
  H   H54       1.0  0.4541549235701224  0.2587065938321018  0.8881681222761345  1.0000
  H   H55       1.0  0.7109390707447574  0.7956378881905123  0.012382734596649  1.0000
  H   H56       1.0  0.2890614028277483  0.20436377447671117  0.9876195970601175  1.0000
  C   C1        1.0  0.49874182781564963  0.6797361282747261  0.642124602743877  1.0000
  C   C2        1.0  0.5012579113912281  0.3202600144867417  0.357872675581973  1.0000
  C   C3        1.0  0.6700583865877191  0.7361674922562003  0.6918792633844292  1.0000
  C   C4        1.0  0.32994134274542825  0.26382863152120717  0.3081163230500934  1.0000
  C   C5        1.0  0.15644586880296169  0.9319516210650248  0.4431784379912571  1.0000
  C   C6        1.0  0.8435555456359226  0.06804780521479611  0.5568192648861583  1.0000
  C   C7        1.0  0.21718751331605554  0.9198127955699036  0.366951799107035  1.0000
  C   C8        1.0  0.7828148716104194  0.08018445127467537  0.6330463506650048  1.0000
  C   C9        1.0  0.869590785407574  0.3311953805198087  0.8510863399005189  1.0000
  C   C10       1.0  0.1304109155368138  0.6688062398006807  0.1489121435889587  1.0000
  C   C11       1.0  0.8034857728971901  0.4226449286533125  0.7926792332003317  1.0000
  C   C12       1.0  0.19651300240458616  0.5773534061994283  0.2073187261584408  1.0000
  C   C13       1.0  0.6226297772040539  0.26646357146690763  0.091042610819251  1.0000
  C   C14       1.0  0.37736942621036473  0.7335380512828279  0.9089562374757277  1.0000
  C   C15       1.0  0.5197778771528617  0.3745501006427432  0.1295610262638789  1.0000
  C   C16       1.0  0.4802211846544325  0.625450428250666  0.8704377137069558  1.0000
  C   C17       1.0  0.8714054349944148  0.5965236701901019  0.3508095699434505  1.0000
  C   C18       1.0  0.12859614409031647  0.40347689424216787  0.6491921890045376  1.0000
  C   C19       1.0  0.7926707818933139  0.6813732622361286  0.3016368807335041  1.0000
  C   C20       1.0  0.20732998147594373  0.3186306007997858  0.6983667954991049  1.0000
  C   C21       1.0  0.6801430492744841  0.7751513931410302  0.32871305981599624  1.0000
  C   C22       1.0  0.3198558972556427  0.22484809252019033  0.671290083540903  1.0000
  C   C23       1.0  0.6473563025198104  0.7735589936381118  0.4036617535929352  1.0000
  C   C24       1.0  0.3526497522886274  0.22644707756402482  0.5963436655320606  1.0000
  C   C25       1.0  0.734171913351048  0.6865792984104148  0.4488807100990684  1.0000
  C   C26       1.0  0.2658363557730965  0.3134245826498372  0.5511241275721376  1.0000
  C   C27       1.0  0.9263446337324268  0.0336181105432303  0.16168437628892457  1.0000
  C   C28       1.0  0.07364973597666598  0.966384648889424  0.8383186937238564  1.0000
  C   C29       1.0  0.8399200239330539  0.013117419219895501  0.22076287264839314  1.0000
  C   C30       1.0  0.16006863609794666  0.9868798631335879  0.779239257427129  1.0000
  C   C31       1.0  0.6997740934442761  0.9074212275885503  0.20331741211420964  1.0000
  C   C32       1.0  0.30021859115907285  0.09257822934169012  0.7966835414556783  1.0000
  C   C33       1.0  0.6531577433218415  0.825191726350667  0.1278654041973013  1.0000
  C   C34       1.0  0.3468336875796539  0.1748077223021696  0.8721348858296737  1.0000
  C   C35       1.0  0.7450767346237014  0.8551803747642311  0.07218699688279172  1.0000
  C   C36       1.0  0.25492012274162335  0.14482236325512327  0.9278140164331604  1.0000
  S   S1        1.0  0.24879888740829156  0.5794009302524542  0.4489983180054082  1.0000
  S   S2        1.0  0.7511971170229969  0.4205952383009333  0.5510014814019044  1.0000
  S   S3        1.0  0.08084039730022854  0.7355367468342777  0.5910390539563863  1.0000
  S   S4        1.0  0.9191613135179041  0.26446489247026506  0.40896112142441154  1.0000
  S   S5        1.0  0.01137718452002901  0.2673267917507332  0.044927716768299306  1.0000
  S   S6        1.0  0.9886232923437177  0.7326748772445059  0.9550751788522476  1.0000
  S   S7        1.0  0.7287594288182505  0.030798873244478397  0.9217200701169048  1.0000
  S   S8        1.0  0.2712424334807508  0.9692038789004445  0.07828190547937204  1.0000
  S   S9        1.0  0.573251792370641  0.8901104029021097  0.2738986408625834  1.0000
  S   S10       1.0  0.42674019077954023  0.10988359740254343  0.7261028990141442  1.0000
  N   N1        1.0  0.8474844638119946  0.6009413191976948  0.424253343747452  1.0000
  N   N2        1.0  0.1525183689745901  0.39905925351197874  0.5757490787434492  1.0000
  N   N3        1.0  0.8785357953716257  0.9578134484043088  0.08815657883597083  1.0000
  N   N4        1.0  0.12145717902847508  0.0421882088946219  0.9118457193097599  1.0000
  O   O1        1.0  0.45293580414583806  0.782751035800878  0.5913458268419448  1.0000
  O   O2        1.0  0.5470665807806298  0.21724621104370095  0.4086523229301022  1.0000
  O   O3        1.0  0.29026800509233647  0.9049836213699078  0.5040410948769107  1.0000
  O   O4        1.0  0.7097334093465478  0.09501580490991297  0.49595660800050473  1.0000
  O   O5        1.0  0.769407902672519  0.34724692139696595  0.9116613962707446  1.0000
  O   O6        1.0  0.2305976976933195  0.6527558112840453  0.0883386222078357  1.0000
  O   O7        1.0  0.6465307687629503  0.3085856583331364  0.01822998537113558  1.0000
  O   O8        1.0  0.3534684346514751  0.6914159644165992  0.9817688629238434  1.0000
