data_image0
_chemical_formula_structural       Cd2H44C48N12O16
_chemical_formula_sum              "Cd2 H44 C48 N12 O16"
_cell_length_a       6.848847453864014
_cell_length_b       13.062318355944509
_cell_length_c       15.774534972058593
_cell_angle_alpha    67.84852411005744
_cell_angle_beta     77.23990902815719
_cell_angle_gamma    74.72639588112257

_space_group_name_H-M_alt    "P 1"
_space_group_IT_number       1

loop_
  _space_group_symop_operation_xyz
  'x, y, z'

loop_
  _atom_site_type_symbol
  _atom_site_label
  _atom_site_symmetry_multiplicity
  _atom_site_fract_x
  _atom_site_fract_y
  _atom_site_fract_z
  _atom_site_occupancy
  Cd  Cd1       1.0  0.6974780710176419  0.7493586671884458  0.2494392332737903  1.0000
  Cd  Cd2       1.0  0.30250681292643833  0.2506359224267456  0.7505640901365213  1.0000
  H   H1        1.0  0.20687406281768966  0.337973388840993  0.3694086724063439  1.0000
  H   H2        1.0  0.9123368957552742  0.161529606610614  0.131576354774424  1.0000
  H   H3        1.0  0.7931209246446753  0.6620203572599337  0.6306119893134863  1.0000
  H   H4        1.0  0.08765362117635786  0.838465826518835  0.8684357429252217  1.0000
  H   H5        1.0  0.14428719618889824  0.6807269729897882  0.33631011906916797  1.0000
  H   H6        1.0  0.16169821282428387  0.819167063778913  0.1635132942840228  1.0000
  H   H7        1.0  0.855736643169337  0.3192777387965151  0.6636821589940425  1.0000
  H   H8        1.0  0.8382964825698307  0.1808368044931328  0.836471301303206  1.0000
  H   H9        1.0  0.8619132440707777  0.462487902722323  0.2842821255727728  1.0000
  H   H10       1.0  0.6061242537995354  0.036709740567396  0.21554154641712134  1.0000
  H   H11       1.0  0.13808909689426208  0.537507530407126  0.7157360834240479  1.0000
  H   H12       1.0  0.3938748186914294  0.9632772574194561  0.7844748570969527  1.0000
  H   H13       1.0  0.0896471788789555  0.6011844218462912  0.017218722773627276  1.0000
  H   H14       1.0  0.706683430827887  0.8993878003869327  0.4823142165928189  1.0000
  H   H15       1.0  0.9103524415859708  0.3988194464257475  0.9827803776842501  1.0000
  H   H16       1.0  0.293294711660664  0.1006245030277029  0.5176785543588664  1.0000
  H   H17       1.0  0.23993790439863005  0.6331510817333026  0.13300685404977483  1.0000
  H   H18       1.0  0.006394992596106655  0.8669875741706079  0.3664043220986671  1.0000
  H   H19       1.0  0.7600684345918862  0.3668544735672583  0.866990428662163  1.0000
  H   H20       1.0  0.9935863337217087  0.1330196681584681  0.6335899926262414  1.0000
  H   H21       1.0  0.6341061442620488  0.660879925981277  0.8219872151680435  1.0000
  H   H22       1.0  0.11387673021217629  0.8394485206309881  0.6771522893381176  1.0000
  H   H23       1.0  0.365919557743716  0.3391163506624295  0.17801008317786673  1.0000
  H   H24       1.0  0.8861196769079739  0.1605545041267931  0.3228445848529446  1.0000
  H   H25       1.0  0.7824550320271157  0.6937027528415385  0.9385828877080797  1.0000
  H   H26       1.0  0.41321144459670484  0.8061752571562337  0.5604469709559227  1.0000
  H   H27       1.0  0.21755491581725303  0.306293523802168  0.0614211971339529  1.0000
  H   H28       1.0  0.5867715048232398  0.1938168019161779  0.4395434627546351  1.0000
  H   H29       1.0  0.28216541817292295  0.47704021072482305  0.5370305662925929  1.0000
  H   H30       1.0  0.2960061896064235  0.0227647628316348  0.9636897941757994  1.0000
  H   H31       1.0  0.7178556623806145  0.5229653445757378  0.4629654263542591  1.0000
  H   H32       1.0  0.7039944780145647  0.9772357313833665  0.03630742523200328  1.0000
  H   H33       1.0  0.3434683369034488  0.6069405631521718  0.46021031971746146  1.0000
  H   H34       1.0  0.4109329034573509  0.8929357598170781  0.04016876199998616  1.0000
  H   H35       1.0  0.656542559543524  0.3930498088917176  0.5397980829563878  1.0000
  H   H36       1.0  0.5890615385601028  0.10706895196922517  0.959827505019021  1.0000
  H   H37       1.0  0.4679707317312279  0.3818496265559189  0.42447208299736167  1.0000
  H   H38       1.0  0.27419758466370336  0.117916545344606  0.0761312435949222  1.0000
  H   H39       1.0  0.5320383020682089  0.6181491806305672  0.5755312993937879  1.0000
  H   H40       1.0  0.7257911001989609  0.8820831053561378  0.9238635512943176  1.0000
  H   H41       1.0  0.5318744888846396  0.5108879074102077  0.3443910494232085  1.0000
  H   H42       1.0  0.3867388716031357  0.988618956313445  0.1558765737666404  1.0000
  H   H43       1.0  0.468126311924877  0.48910836923349876  0.6556176986210289  1.0000
  H   H44       1.0  0.6132452775925543  0.0113899730441531  0.8441183242491661  1.0000
  C   C1        1.0  0.14032102040075498  0.427125254427132  0.34907646740641246  1.0000
  C   C2        1.0  0.9150386588833328  0.072381958595777  0.151542682992087  1.0000
  C   C3        1.0  0.8596804538452221  0.5728718657308391  0.650937046812949  1.0000
  C   C4        1.0  0.08496070040150991  0.9276143180479295  0.8484645173550547  1.0000
  C   C5        1.0  0.607153920898405  0.6906171776807993  0.1111238055402168  1.0000
  C   C6        1.0  0.40964952463297516  0.8087412275332042  0.3882281665398111  1.0000
  C   C7        1.0  0.3928552844715513  0.3093816295056868  0.8888823945021826  1.0000
  C   C8        1.0  0.590339782361163  0.19125926668179719  0.6117594889424894  1.0000
  C   C9        1.0  0.1086568075655521  0.6053927144862428  0.3346839412285973  1.0000
  C   C10       1.0  0.04843113124354663  0.8943503332300224  0.165307514722727  1.0000
  C   C11       1.0  0.8913591290981914  0.3946103102715384  0.6653128333603391  1.0000
  C   C12       1.0  0.9515597632319909  0.1056484739564567  0.8346856093855806  1.0000
  C   C13       1.0  0.9690380253739693  0.4897055773291327  0.30849360458537944  1.0000
  C   C14       1.0  0.7654156747304839  0.0096346198704254  0.1915002437104647  1.0000
  C   C15       1.0  0.03096176283715845  0.5102906993145808  0.6915206398898874  1.0000
  C   C16       1.0  0.23457783267042479  0.9903616567732881  0.8084993570226758  1.0000
  C   C17       1.0  0.3543468570656074  0.6308331045485787  0.9135555018728142  1.0000
  C   C18       1.0  0.8964669188196267  0.8697543009413167  0.5857290031236175  1.0000
  C   C19       1.0  0.6456587099349989  0.3691690766949449  0.0864432135459055  1.0000
  C   C20       1.0  0.10352479000692236  0.1302529413877664  0.41426987520137  1.0000
  C   C21       1.0  0.519347711747308  0.6670257708749858  0.04235297418574651  1.0000
  C   C22       1.0  0.2282540966606492  0.8330335946885441  0.4568424758854093  1.0000
  C   C23       1.0  0.48066460833656777  0.3329747233400226  0.9576475388679812  1.0000
  C   C24       1.0  0.7717308256654151  0.1669652124979351  0.5431521365397174  1.0000
  C   C25       1.0  0.24056715380083202  0.6217594216606273  0.0003807095546620032  1.0000
  C   C26       1.0  0.8613166257476693  0.8785917998366414  0.4990324418079767  1.0000
  C   C27       1.0  0.7594418159254277  0.3782368549830792  0.9996183749619405  1.0000
  C   C28       1.0  0.13866459697452155  0.1214221906065163  0.5009651389114822  1.0000
  C   C29       1.0  0.32494260822712556  0.6399683639774594  0.06471684011641086  1.0000
  C   C30       1.0  0.029181627158386923  0.860126429184966  0.43465509618383896  1.0000
  C   C31       1.0  0.6750669145926623  0.36003213023754904  0.93528198636875  1.0000
  C   C32       1.0  0.9708042220582059  0.139869003944483  0.5653467231220333  1.0000
  C   C33       1.0  0.5489890516063557  0.6566075262576163  0.8897115452787148  1.0000
  C   C34       1.0  0.0929178317804116  0.8436635613850143  0.6094964542353338  1.0000
  C   C35       1.0  0.45102589026937084  0.3433887503860901  0.11028605092106857  1.0000
  C   C36       1.0  0.9070792615444035  0.1563428374298041  0.3904975784233287  1.0000
  C   C37       1.0  0.6303620772229266  0.6747616401475867  0.9547774495249826  1.0000
  C   C38       1.0  0.2584022038467496  0.8252732635024245  0.5443572398537952  1.0000
  C   C39       1.0  0.3696479435610983  0.3252354800103845  0.04522153971279863  1.0000
  C   C40       1.0  0.7415862275618466  0.17473060476961416  0.4556351143298372  1.0000
  C   C41       1.0  0.3979806458770697  0.5150717381366334  0.4819613930562596  1.0000
  C   C42       1.0  0.39503750498843715  0.9848155505179861  0.0183756586355912  1.0000
  C   C43       1.0  0.6020459445598338  0.4849203209357711  0.5180377110181951  1.0000
  C   C44       1.0  0.6049559461427166  0.0151866307255375  0.9816232157655309  1.0000
  C   C45       1.0  0.419237654661629  0.473841604653323  0.40160401400800794  1.0000
  C   C46       1.0  0.294457774438925  0.0259346894183139  0.09887831156554941  1.0000
  C   C47       1.0  0.5807688609415748  0.5261546719903833  0.5983990192425354  1.0000
  C   C48       1.0  0.7055306659135566  0.9740641177681723  0.9011187612766919  1.0000
  N   N1        1.0  0.9504174411294102  0.6009845089668246  0.30041382816784795  1.0000
  N   N2        1.0  0.8507985239132411  0.8985156066427535  0.19921790922361984  1.0000
  N   N3        1.0  0.049588636681029745  0.3990134547054041  0.6995915544333613  1.0000
  N   N4        1.0  0.1491953739545624  0.1014798264866954  0.8007833344854376  1.0000
  N   N5        1.0  0.22644930910413305  0.5013452305940547  0.36505178968821644  1.0000
  N   N6        1.0  0.09229748719220514  0.9983758857514715  0.13557368947265755  1.0000
  N   N7        1.0  0.7735579311631182  0.4986552636209538  0.6349538031821282  1.0000
  N   N8        1.0  0.9076944327273042  0.0016220779207501  0.8644204426344828  1.0000
  N   N9        1.0  0.266806866576111  0.6128620332528882  0.8446826772062083  1.0000
  N   N10       1.0  0.7211651514826869  0.8875440166712423  0.6548113253529594  1.0000
  N   N11       1.0  0.7332006694288965  0.3871426785334151  0.15531843115581978  1.0000
  N   N12       1.0  0.2788294582035676  0.1124564775437662  0.3451859735460374  1.0000
  O   O1        1.0  0.36541838512368907  0.6269124502710639  0.7661570490919376  1.0000
  O   O2        1.0  0.7546408645635121  0.8745319657063391  0.733005954602973  1.0000
  O   O3        1.0  0.6345894811767607  0.373093105029497  0.2338431901427214  1.0000
  O   O4        1.0  0.24537221466468395  0.1254727460799643  0.2669866213141106  1.0000
  O   O5        1.0  0.097316094747157  0.5849847304952647  0.8678042787783582  1.0000
  O   O6        1.0  0.5468509543382111  0.9139417954179477  0.6323101323429157  1.0000
  O   O7        1.0  0.9026919175100118  0.41501913777678107  0.13219988138521188  1.0000
  O   O8        1.0  0.4531418323003607  0.0860544812257586  0.367688694541684  1.0000
  O   O9        1.0  0.5070787018677975  0.6722800211965421  0.19281571269175393  1.0000
  O   O10       1.0  0.37356045260774107  0.8255457186081968  0.3069346693030682  1.0000
  O   O11       1.0  0.4929342097689897  0.3277255341040188  0.807189943482726  1.0000
  O   O12       1.0  0.6264339124909383  0.1744573061495842  0.6930507954115301  1.0000
  O   O13       1.0  0.7684865384500914  0.7303601955248524  0.08544790500415896  1.0000
  O   O14       1.0  0.5849400206696348  0.7696974830101623  0.4136926515006394  1.0000
  O   O15       1.0  0.23152064554741267  0.269646203289966  0.9145569615341529  1.0000
  O   O16       1.0  0.41504295940627145  0.23028698443391699  0.5862996118196194  1.0000
