data_image0
_chemical_formula_structural       Mn4H24C32N32O4
_chemical_formula_sum              "Mn4 H24 C32 N32 O4"
_cell_length_a       7.375425464210616
_cell_length_b       8.914852299711203
_cell_length_c       18.431410412263006
_cell_angle_alpha    90.00008664953955
_cell_angle_beta     89.99939911493017
_cell_angle_gamma    109.25471106186504

_space_group_name_H-M_alt    "P 1"
_space_group_IT_number       1

loop_
  _space_group_symop_operation_xyz
  'x, y, z'

loop_
  _atom_site_type_symbol
  _atom_site_label
  _atom_site_symmetry_multiplicity
  _atom_site_fract_x
  _atom_site_fract_y
  _atom_site_fract_z
  _atom_site_occupancy
  Mn  Mn1       1.0  0.9773586020462872  0.8279249479870926  0.6251039577502054  1.0000
  Mn  Mn2       1.0  0.022640496553428566  0.6720741537647753  0.12510293192583075  1.0000
  Mn  Mn3       1.0  0.022645014889370423  0.17207027878415462  0.37489535992703776  1.0000
  Mn  Mn4       1.0  0.9773550951239474  0.3279281860845274  0.8748942155624349  1.0000
  H   H1        1.0  0.32104103569389514  0.028672795578756894  0.5676151496144541  1.0000
  H   H2        1.0  0.6789591739733325  0.471332941882153  0.06761375217953258  1.0000
  H   H3        1.0  0.6789594539055627  0.971324801544682  0.43238579572641095  1.0000
  H   H4        1.0  0.3210423155782322  0.5286705941697035  0.9323871931613251  1.0000
  H   H5        1.0  0.16255113526818118  0.08451299690229057  0.527533381789034  1.0000
  H   H6        1.0  0.8374491957264  0.4154869774222617  0.027533450634500398  1.0000
  H   H7        1.0  0.8374456410910726  0.91547865728311  0.4724664784533701  1.0000
  H   H8        1.0  0.16255276516108813  0.5845177468188539  0.9724664096016368  1.0000
  H   H9        1.0  0.5702951805054255  0.8612390363752597  0.5846629911837268  1.0000
  H   H10       1.0  0.42970710672749146  0.6387756831697119  0.08465697954814998  1.0000
  H   H11       1.0  0.42970082514415253  0.13876092910032162  0.4153368690632177  1.0000
  H   H12       1.0  0.5703025227490954  0.3612278649205223  0.9153428806714954  1.0000
  H   H13       1.0  0.5701974283352771  0.3240682564776165  0.6066491828121129  1.0000
  H   H14       1.0  0.4298144851528889  0.17594564113402808  0.1066475373113818  1.0000
  H   H15       1.0  0.4297985772611668  0.675931708989644  0.3933544752993753  1.0000
  H   H16       1.0  0.5701865330551641  0.8240567067273757  0.8933550356862764  1.0000
  H   H17       1.0  0.9029123480942547  0.4038345548032821  0.663190577930358  1.0000
  H   H18       1.0  0.097100225632488  0.09617791065066679  0.1631875588278788  1.0000
  H   H19       1.0  0.09708448552247971  0.5961606619284439  0.3368130801777197  1.0000
  H   H20       1.0  0.9029076904777398  0.9038315723536102  0.8368133865016032  1.0000
  H   H21       1.0  0.054034095518311204  0.18689672641146868  0.6755890539602303  1.0000
  H   H22       1.0  0.9459689914897851  0.313109733698532  0.17558642549241904  1.0000
  H   H23       1.0  0.9459622668080385  0.8130973021381321  0.32441243394011104  1.0000
  H   H24       1.0  0.054033383385075226  0.6868926161712565  0.8244150623982447  1.0000
  C   C1        1.0  0.5943596886520768  0.5708416347480565  0.6998086658712663  1.0000
  C   C2        1.0  0.40564593130305593  0.9291583395800345  0.19980675729175348  1.0000
  C   C3        1.0  0.4056508261326357  0.4291607271577291  0.30019282200233727  1.0000
  C   C4        1.0  0.5943486603539156  0.07083806133014289  0.8001952731652151  1.0000
  C   C5        1.0  0.29062382593493663  0.46021114942054453  0.7515296682228652  1.0000
  C   C6        1.0  0.7093693532754558  0.0397890286422609  0.2515359779486275  1.0000
  C   C7        1.0  0.709374421735113  0.5397876318861065  0.24846747925857926  1.0000
  C   C8        1.0  0.290625709717446  0.9602085604571823  0.7484649674036203  1.0000
  C   C9        1.0  0.7633242961612297  0.6104892778353275  0.4924443791723404  1.0000
  C   C10       1.0  0.23667130924451388  0.8895082228239063  0.9924425863870067  1.0000
  C   C11       1.0  0.23668244806508912  0.38950357857657997  0.5075565661537452  1.0000
  C   C12       1.0  0.7633180851014317  0.11050242028920108  0.0075556462213271  1.0000
  C   C13       1.0  0.7811307613838423  0.40083590303481026  0.4235293032798139  1.0000
  C   C14       1.0  0.2188652174994985  0.09915878196809297  0.9235257532586869  1.0000
  C   C15       1.0  0.218880938158648  0.5991557732189745  0.5764694718271599  1.0000
  C   C16       1.0  0.781130132122307  0.9008566199164958  0.07646976657844817  1.0000
  C   C17       1.0  0.6448767869521318  0.9832581863338204  0.6017793106428967  1.0000
  C   C18       1.0  0.35512413611233734  0.5167576443207977  0.1017735259389596  1.0000
  C   C19       1.0  0.3551169193967141  0.016739400760812404  0.3982210921601136  1.0000
  C   C20       1.0  0.6448818374042914  0.4832435233812901  0.8982274193916665  1.0000
  C   C21       1.0  0.6465026240988154  0.23917459845726796  0.6142512326572171  1.0000
  C   C22       1.0  0.35351001937858934  0.26084164218892164  0.11424833921356739  1.0000
  C   C23       1.0  0.35349922213710977  0.760823000669795  0.38575079778496496  1.0000
  C   C24       1.0  0.6464905275238877  0.7391595174879768  0.8857531486805071  1.0000
  C   C25       1.0  0.8292768094721765  0.28322279523115407  0.6445236431466056  1.0000
  C   C26       1.0  0.17072985991236317  0.21678380514248366  0.14452040010341696  1.0000
  C   C27       1.0  0.1707200814931085  0.7167759840611722  0.3554773022022245  1.0000
  C   C28       1.0  0.8292629038025794  0.7832114055795713  0.8554794601486576  1.0000
  C   C29       1.0  0.9125156628075287  0.16462298833233996  0.6514642956157316  1.0000
  C   C30       1.0  0.087484971825269  0.3353859479489429  0.1514587723280201  1.0000
  C   C31       1.0  0.08748305614532377  0.8353769811552495  0.3485355646255285  1.0000
  C   C32       1.0  0.9125138044685385  0.6646175840980532  0.8485389177060653  1.0000
  N   N1        1.0  0.7437094449133993  0.6616204940829817  0.6815509647036109  1.0000
  N   N2        1.0  0.25629267310890214  0.8383831168501388  0.18155287389814836  1.0000
  N   N3        1.0  0.2562989425479357  0.3383901771129345  0.31844781041699116  1.0000
  N   N4        1.0  0.7437050459146163  0.1616109137126003  0.8184453586868938  1.0000
  N   N5        1.0  0.4393043894522606  0.4571476623936874  0.7157930777398391  1.0000
  N   N6        1.0  0.5606947448457688  0.0428514922532628  0.2157951301462475  1.0000
  N   N7        1.0  0.5606984568192458  0.5428558756748812  0.2842029846294877  1.0000
  N   N8        1.0  0.4392984901595654  0.9571449066509102  0.7842069003135632  1.0000
  N   N9        1.0  0.14534846761763018  0.44494839899225974  0.7826035525706132  1.0000
  N   N10       1.0  0.8546393010845605  0.055050448589042796  0.2826049234005268  1.0000
  N   N11       1.0  0.8546484234007751  0.5550503803083942  0.2173935949136734  1.0000
  N   N12       1.0  0.1453566472771755  0.9449459543354664  0.7173933091890559  1.0000
  N   N13       1.0  0.8163754349356012  0.7349643553943962  0.5224794521445162  1.0000
  N   N14       1.0  0.18361922275840925  0.765030435693326  0.022476188967637294  1.0000
  N   N15       1.0  0.1836226407267461  0.2650237382364082  0.4775231208543005  1.0000
  N   N16       1.0  0.8163787828181269  0.23498140764266398  0.977522043623061  1.0000
  N   N17       1.0  0.6900542338320932  0.4737662197810764  0.46226177012223235  1.0000
  N   N18       1.0  0.30993800548902334  0.026231853884503695  0.9622594145231528  1.0000
  N   N19       1.0  0.3099524530836177  0.5262230740761851  0.5377391752027234  1.0000
  N   N20       1.0  0.6900560447234482  0.9737871085380261  0.0377409882866573  1.0000
  N   N21       1.0  0.8488882131273814  0.32455325422893816  0.3868933053790186  1.0000
  N   N22       1.0  0.15110513472510687  0.17543921107225197  0.8868890080690472  1.0000
  N   N23       1.0  0.1511158178411875  0.6754395981781086  0.6131043846402873  1.0000
  N   N24       1.0  0.8488891576719411  0.8245666893352207  0.11310379900657347  1.0000
  N   N25       1.0  0.8215321536202892  0.014831518532773197  0.6293793088589152  1.0000
  N   N26       1.0  0.178467742161189  0.48517751260006065  0.129376222158804  1.0000
  N   N27       1.0  0.17846703666090488  0.9851696391428816  0.3706200088296966  1.0000
  N   N28       1.0  0.8215359320623038  0.5148212767222587  0.8706247231758084  1.0000
  N   N29       1.0  0.5532860353033442  0.08864832967222468  0.5936588110879342  1.0000
  N   N30       1.0  0.4467189870294206  0.41136442669938594  0.09365617518901097  1.0000
  N   N31       1.0  0.44671226962418586  0.9113540141807446  0.4063421342591838  1.0000
  N   N32       1.0  0.553281502539683  0.5886331704192997  0.9063469403601587  1.0000
  O   O1        1.0  0.1813304588606215  0.9925549155366936  0.5525621316654394  1.0000
  O   O2        1.0  0.8186724970792979  0.5074456945684813  0.05256199221214789  1.0000
  O   O3        1.0  0.8186685594963522  0.007435554476202799  0.4474366434676965  1.0000
  O   O4        1.0  0.18132899247984813  0.49255784148456155  0.9474384105766375  1.0000
