data_image0
_chemical_formula_structural       Cu2H28C28S4N4O12
_chemical_formula_sum              "Cu2 H28 C28 S4 N4 O12"
_cell_length_a       8.66008312087058
_cell_length_b       10.309323789666687
_cell_length_c       12.174248390441692
_cell_angle_alpha    80.4151317014092
_cell_angle_beta     69.14054217023558
_cell_angle_gamma    62.14005664304962

_space_group_name_H-M_alt    "P 1"
_space_group_IT_number       1

loop_
  _space_group_symop_operation_xyz
  'x, y, z'

loop_
  _atom_site_type_symbol
  _atom_site_label
  _atom_site_symmetry_multiplicity
  _atom_site_fract_x
  _atom_site_fract_y
  _atom_site_fract_z
  _atom_site_occupancy
  Cu  Cu1       1.0  0.7927508460352184  0.2499238592718882  0.41457138661063203  1.0000
  Cu  Cu2       1.0  0.20725380292116535  0.7500785379607607  0.5854266183874445  1.0000
  H   H1        1.0  0.12235187675493349  0.08401150116704768  0.46340778065979293  1.0000
  H   H2        1.0  0.41401793589853497  0.4157724852098709  0.46364071915618155  1.0000
  H   H3        1.0  0.877632600270253  0.9159795462112613  0.5365998504461801  1.0000
  H   H4        1.0  0.585980433637431  0.5842203382671726  0.5363621811601575  1.0000
  H   H5        1.0  0.08056014806692247  0.32428672204942893  0.5585010307203008  1.0000
  H   H6        1.0  0.36073359618802664  0.17578230768783237  0.559633191281904  1.0000
  H   H7        1.0  0.9194460846755702  0.6757179840497755  0.4414845678601866  1.0000
  H   H8        1.0  0.6392521156408505  0.8242246971384616  0.44038456268946646  1.0000
  H   H9        1.0  0.03498864518555689  0.17809867516062644  0.6355761788228875  1.0000
  H   H10       1.0  0.3298858034961113  0.32214200072224497  0.6361081956388405  1.0000
  H   H11       1.0  0.9650290676881428  0.8219022517208145  0.36441954370384616  1.0000
  H   H12       1.0  0.6701277726542185  0.6778599210683821  0.36390074917139964  1.0000
  H   H13       1.0  0.054996505888304605  0.3746083462098894  0.3202308142345133  1.0000
  H   H14       1.0  0.6244832344610386  0.1252566635828885  0.3204448230348688  1.0000
  H   H15       1.0  0.9450135509507046  0.6253810591528433  0.6797600081810556  1.0000
  H   H16       1.0  0.3755206347453137  0.8747489871089158  0.6795535085011865  1.0000
  H   H17       1.0  0.10036072211327968  0.5637405813175106  0.1766466967177109  1.0000
  H   H18       1.0  0.7228542705887971  0.9360814475836678  0.17676856025539683  1.0000
  H   H19       1.0  0.8996540194699141  0.4362465304491893  0.8233431471620847  1.0000
  H   H20       1.0  0.277139640033141  0.0639245339835739  0.8232296056738947  1.0000
  H   H21       1.0  0.6124466744684939  0.6303928891167914  0.1020257204732644  1.0000
  H   H22       1.0  0.2854520265817868  0.8693546535847716  0.10219071581843756  1.0000
  H   H23       1.0  0.387555381728248  0.36960210629548124  0.897968855154197  1.0000
  H   H24       1.0  0.7145449557946222  0.13065671006947352  0.8978017374882655  1.0000
  H   H25       1.0  0.5824028218925008  0.4447918068018594  0.25348677449500917  1.0000
  H   H26       1.0  0.16397825483964815  0.054889656432379814  0.25367122001999587  1.0000
  H   H27       1.0  0.41759975776764663  0.5552042057993277  0.7465104133188449  1.0000
  H   H28       1.0  0.8360212347525718  0.9451205171164855  0.746323029547149  1.0000
  C   C1        1.0  0.8009374334055366  0.36891945879985133  0.6101330143695165  1.0000
  C   C2        1.0  0.5891922422970663  0.1311915104522754  0.6105651436678203  1.0000
  C   C3        1.0  0.19907335746206192  0.6310688067740813  0.3898600936344253  1.0000
  C   C4        1.0  0.4108129347689414  0.868804235295471  0.3894429824597196  1.0000
  C   C5        1.0  0.004724548228040376  0.26009361124870617  0.5665661584861965  1.0000
  C   C6        1.0  0.42880705837899274  0.23996582136491176  0.5671901568818711  1.0000
  C   C7        1.0  0.9952799816060817  0.7399067156209611  0.43342694885721755  1.0000
  C   C8        1.0  0.5711921307293794  0.7600344542491015  0.43281666213302833  1.0000
  C   C9        1.0  0.9607077976686611  0.4342005114333459  0.2695136865719192  1.0000
  C   C10       1.0  0.7695247090598726  0.0656621678382194  0.2696626708878895  1.0000
  C   C11       1.0  0.039287825154076375  0.5657945120157707  0.730491988480587  1.0000
  C   C12       1.0  0.23047398551732776  0.9343382376979079  0.7303372915420354  1.0000
  C   C13       1.0  0.9862984254830066  0.5390792949413737  0.1872945829754897  1.0000
  C   C14       1.0  0.826205326451749  0.9608013840196249  0.18744047110500608  1.0000
  C   C15       1.0  0.013694545191377458  0.4609223147185658  0.8127091329065196  1.0000
  C   C16       1.0  0.17379025814633292  0.03920782966611109  0.8125544304599472  1.0000
  C   C17       1.0  0.863063591698342  0.6100677368023997  0.12323464541086782  1.0000
  C   C18       1.0  0.01358583509604481  0.889833842347066  0.12336574139498421  1.0000
  C   C19       1.0  0.1369373995294934  0.38993363560607003  0.8767674398775044  1.0000
  C   C20       1.0  0.9864075231302536  0.1101699749202112  0.8766340567465034  1.0000
  C   C21       1.0  0.7153364028211725  0.5759118635899441  0.14703889410501592  1.0000
  C   C22       1.0  0.13751106619795894  0.9239001394699502  0.1472187520672179  1.0000
  C   C23       1.0  0.2846594915531711  0.42409191068298197  0.8529584558983246  1.0000
  C   C24       1.0  0.8624846832438494  0.07610903090841249  0.8527784350260603  1.0000
  C   C25       1.0  0.6988655088652249  0.47035156910702375  0.23156929332809273  1.0000
  C   C26       1.0  0.0693739587288249  0.029402578662164596  0.23177452052829042  1.0000
  C   C27       1.0  0.3011308601291062  0.5296467224457259  0.7684327906419599  1.0000
  C   C28       1.0  0.9306210445413826  0.9706033236125646  0.7682262576474416  1.0000
  S   S1        1.0  0.8833009873378044  0.7401553566324636  0.011484188830010546  1.0000
  S   S2        1.0  0.10521196277759512  0.7598657780397247  0.011535800609365777  1.0000
  S   S3        1.0  0.1167037897618997  0.25984490527614656  0.9885123468058907  1.0000
  S   S4        1.0  0.8947809086857033  0.2401391140552959  0.9884651402362367  1.0000
  N   N1        1.0  0.8204595746429676  0.3997603200650842  0.29124708847881925  1.0000
  N   N2        1.0  0.888050462799157  0.100081895152563  0.29137862328531133  1.0000
  N   N3        1.0  0.17953263307060024  0.6002412822726199  0.7087585862134064  1.0000
  N   N4        1.0  0.11194304348164484  0.8999251395887313  0.708621828112257  1.0000
  O   O1        1.0  0.7031948216144311  0.3982961784510408  0.5408891986058323  1.0000
  O   O2        1.0  0.7561694861512082  0.10168011184660487  0.5411095248163775  1.0000
  O   O3        1.0  0.29680993557408913  0.6016987306595069  0.4591052144118067  1.0000
  O   O4        1.0  0.24383116324616344  0.8983169392841716  0.45889386608617855  1.0000
  O   O5        1.0  0.7399407128637989  0.4303170969781505  0.7065280050423509  1.0000
  O   O6        1.0  0.5537953834409207  0.070019621590248  0.7070961934127739  1.0000
  O   O7        1.0  0.26006086121615374  0.5696713045880345  0.29347522223230277  1.0000
  O   O8        1.0  0.44620764815092434  0.9299869883386335  0.29291095345841717  1.0000
  O   O9        1.0  0.06202829492065111  0.19332394367412317  0.45667702145937034  1.0000
  O   O10       1.0  0.48117438035748705  0.30645734613000297  0.4570787312976847  1.0000
  O   O11       1.0  0.9379769826092993  0.8066633690458929  0.5433195133986359  1.0000
  O   O12       1.0  0.5188261377746031  0.6935332267453517  0.5429256386210284  1.0000
