data_image0
_chemical_formula_structural       Cu2H88C68N8O8
_chemical_formula_sum              "Cu2 H88 C68 N8 O8"
_cell_length_a       11.36714932319578
_cell_length_b       13.646510797400651
_cell_length_c       14.129785137185115
_cell_angle_alpha    77.7559228303507
_cell_angle_beta     70.10317531312215
_cell_angle_gamma    68.68310729602211

_space_group_name_H-M_alt    "P 1"
_space_group_IT_number       1

loop_
  _space_group_symop_operation_xyz
  'x, y, z'

loop_
  _atom_site_type_symbol
  _atom_site_label
  _atom_site_symmetry_multiplicity
  _atom_site_fract_x
  _atom_site_fract_y
  _atom_site_fract_z
  _atom_site_occupancy
  Cu  Cu1       1.0  0.905260349181013  0.9715930422869122  0.9452585010665826  1.0000
  Cu  Cu2       1.0  0.09473750830407816  0.0284104971725085  0.05474708703015099  1.0000
  H   H1        1.0  0.6409764846658774  0.9868792067580043  0.2107230906434409  1.0000
  H   H2        1.0  0.3590314216636869  0.0131179626290887  0.7892859196992177  1.0000
  H   H3        1.0  0.8002702865963015  0.8126579340392509  0.03893257037678667  1.0000
  H   H4        1.0  0.19972654626626254  0.18734336720706318  0.9610631215332859  1.0000
  H   H5        1.0  0.552482063097692  0.15351851069356567  0.26881220829849173  1.0000
  H   H6        1.0  0.4475224218958901  0.8464802142484373  0.7311988590922169  1.0000
  H   H7        1.0  0.5262994736521732  0.22660352988631868  0.4060673305871631  1.0000
  H   H8        1.0  0.4737111581803573  0.773398468677371  0.5939343208045854  1.0000
  H   H9        1.0  0.4731870616823598  0.35267928489359673  0.4503420031408183  1.0000
  H   H10       1.0  0.5268232546150029  0.647323504249499  0.5496595809717562  1.0000
  H   H11       1.0  0.6425666909598957  0.29331277385150406  0.3851058497638249  1.0000
  H   H12       1.0  0.35744108423045867  0.7066916469949402  0.6148918710635485  1.0000
  H   H13       1.0  0.35161046489822917  0.41048282908059963  0.2197025061920853  1.0000
  H   H14       1.0  0.6483877152647748  0.589510478615196  0.7803007452782821  1.0000
  H   H15       1.0  0.3000316998660252  0.4215744318015595  0.35197312395060015  1.0000
  H   H16       1.0  0.6999749258833318  0.5784188512852282  0.6480313373972918  1.0000
  H   H17       1.0  0.3546824395423868  0.29580177532750435  0.30690908189441046  1.0000
  H   H18       1.0  0.6453282606242111  0.7041906990713825  0.6930965348890936  1.0000
  H   H19       1.0  0.509104495807115  0.5155644323818221  0.20183379107193383  1.0000
  H   H20       1.0  0.4908951817133771  0.4844368207078772  0.798165370829338  1.0000
  H   H21       1.0  0.6301070600214513  0.46373283828089035  0.268229020838632  1.0000
  H   H22       1.0  0.36989107220458806  0.5362699659195015  0.731772388339067  1.0000
  H   H23       1.0  0.4606145296643118  0.5148792466095387  0.33501828819619567  1.0000
  H   H24       1.0  0.5393876889632023  0.48512037477679826  0.6649847369902844  1.0000
  H   H25       1.0  0.6891201410189324  0.4145781291508542  0.10682651212511728  1.0000
  H   H26       1.0  0.3108695316789607  0.5854341500628306  0.8931753833808854  1.0000
  H   H27       1.0  0.8518123092450337  0.3988992454237774  0.9561163549297901  1.0000
  H   H28       1.0  0.14818078997404882  0.6011091133289028  0.04388323640163347  1.0000
  H   H29       1.0  0.9788295474785184  0.2738304879198807  0.9539901786330988  1.0000
  H   H30       1.0  0.021170100888298318  0.7261778783282081  0.046008309248378475  1.0000
  H   H31       1.0  0.9771350615913195  0.3253214192358057  0.6975015478909724  1.0000
  H   H32       1.0  0.022866546362976692  0.6746797556491585  0.30250346583627424  1.0000
  H   H33       1.0  0.07001303635680496  0.3016243157142712  0.7838809517514775  1.0000
  H   H34       1.0  0.9299863460256362  0.6983777002946424  0.21612026596972794  1.0000
  H   H35       1.0  0.9473053528268947  0.4276713075263955  0.7721353617567458  1.0000
  H   H36       1.0  0.0526909237547315  0.5723314734580214  0.22786798029168406  1.0000
  H   H37       1.0  0.75686906664896  0.3627668026543419  0.7543052957836451  1.0000
  H   H38       1.0  0.24312972061588306  0.6372296721349359  0.24569716909872596  1.0000
  H   H39       1.0  0.6954040737261591  0.42612281583914324  0.866388363307209  1.0000
  H   H40       1.0  0.3045930986400407  0.573872946575463  0.13360831702836143  1.0000
  H   H41       1.0  0.7804359218077008  0.15034876754862836  0.7949308800196845  1.0000
  H   H42       1.0  0.2195737793186793  0.8496390760708651  0.2050667165497302  1.0000
  H   H43       1.0  0.6334236087561321  0.03978227709870911  0.8735260328651862  1.0000
  H   H44       1.0  0.3665807354152547  0.9602095651865239  0.1264680160528399  1.0000
  H   H45       1.0  0.416895120938868  0.11127126011795241  0.9994927280129743  1.0000
  H   H46       1.0  0.5831098374771172  0.888714308076544  0.0004981304115290256  1.0000
  H   H47       1.0  0.9093514969926131  0.018056310156659098  0.3437117400740207  1.0000
  H   H48       1.0  0.09065010934785522  0.981942509042284  0.6562923188269921  1.0000
  H   H49       1.0  0.03850966785918782  0.8470956235840958  0.17182069974672493  1.0000
  H   H50       1.0  0.9614953426478151  0.1529063790921725  0.8281810886596046  1.0000
  H   H51       1.0  0.8794705082672105  0.15955026120314386  0.42199821425780476  1.0000
  H   H52       1.0  0.12052821227739222  0.8404580934369505  0.5780012400590379  1.0000
  H   H53       1.0  0.9770609225789781  0.4067599083331785  0.5356914850365726  1.0000
  H   H54       1.0  0.022947215739776507  0.5932436573934083  0.4643112569678607  1.0000
  H   H55       1.0  0.07777969875997565  0.2883550847320677  0.47709277942006884  1.0000
  H   H56       1.0  0.9222218463891774  0.7116438174474595  0.5229049101836482  1.0000
  H   H57       1.0  0.05402745250437137  0.41268690878565195  0.4032022592663864  1.0000
  H   H58       1.0  0.9459781738610501  0.5873111754859011  0.5967972934726404  1.0000
  H   H59       1.0  0.7526511357807306  0.5057440649886402  0.5101759586554379  1.0000
  H   H60       1.0  0.2473475591815627  0.4942666822177343  0.48982161968883275  1.0000
  H   H61       1.0  0.823660278954385  0.5173670853876187  0.37733781347268563  1.0000
  H   H62       1.0  0.17634872956664072  0.4826318543354304  0.6226563908463235  1.0000
  H   H63       1.0  0.6936705081054197  0.46123123215203776  0.43083419425160924  1.0000
  H   H64       1.0  0.3063344224269926  0.5387732368510214  0.5691600565845576  1.0000
  H   H65       1.0  0.785847832373072  0.33315430902565174  0.6116555624239338  1.0000
  H   H66       1.0  0.2141459490809509  0.6668476834356554  0.3883479154109537  1.0000
  H   H67       1.0  0.7322079648131137  0.2799301535169789  0.5359919056932654  1.0000
  H   H68       1.0  0.2677945333968381  0.7200757996684075  0.4640098050528819  1.0000
  H   H69       1.0  0.8885584132708642  0.21298593033402827  0.5590409407814362  1.0000
  H   H70       1.0  0.11143475071089876  0.7870176248459585  0.44096381789451305  1.0000
  H   H71       1.0  0.9855831142171636  0.43363672016933197  0.25884733226090617  1.0000
  H   H72       1.0  0.014419044832869952  0.5663653398836104  0.741150278454512  1.0000
  H   H73       1.0  0.004932322167569171  0.390419965219138  0.027720330960100605  1.0000
  H   H74       1.0  0.9950610961580462  0.6095828823620267  0.9722781256977272  1.0000
  H   H75       1.0  0.06513076810212226  0.45280282775384956  0.09051515868905817  1.0000
  H   H76       1.0  0.934880459535435  0.5471858481011651  0.9094790223310623  1.0000
  H   H77       1.0  0.32614440566397457  0.34977873206226917  0.859934122502274  1.0000
  H   H78       1.0  0.6738499136314288  0.6502147320429897  0.1400574253161578  1.0000
  H   H79       1.0  0.22149687109239832  0.46961570635995303  0.9155445721362199  1.0000
  H   H80       1.0  0.7784986947880269  0.5303816901459228  0.0844479861784819  1.0000
  H   H81       1.0  0.1536812574709642  0.392893244618989  0.8742113829060825  1.0000
  H   H82       1.0  0.8463112673713338  0.6071001132897109  0.12578846708037614  1.0000
  H   H83       1.0  0.28222999778843416  0.26148832969323615  0.1300654324442334  1.0000
  H   H84       1.0  0.7177687010889499  0.7385082649568774  0.869927832342043  1.0000
  H   H85       1.0  0.2978567527883554  0.3883668125845573  0.07815515052627117  1.0000
  H   H86       1.0  0.7021463444542918  0.6116305292642039  0.9218409995007162  1.0000
  H   H87       1.0  0.5005878666465051  0.40027437233197116  0.974589360372981  1.0000
  H   H88       1.0  0.49941181478907737  0.5997127282014674  0.025405487970303325  1.0000
  C   C1        1.0  0.8003297605796575  0.16062364763024553  0.04886412807515222  1.0000
  C   C2        1.0  0.19966799491990636  0.8393800301301437  0.951130844526091  1.0000
  C   C3        1.0  0.7098169633299419  0.12047407929373577  0.13126319568969785  1.0000
  C   C4        1.0  0.2901929882251864  0.8795272092831965  0.8687324124195825  1.0000
  C   C5        1.0  0.7076411847209342  0.013821741281184099  0.14212641617566385  1.0000
  C   C6        1.0  0.29235507146358225  0.9861810673634253  0.857874802773665  1.0000
  C   C7        1.0  0.6185452970961192  0.18725402041822292  0.2055744132366542  1.0000
  C   C8        1.0  0.3814662900984727  0.8127385209090433  0.7944259909132896  1.0000
  C   C9        1.0  0.6107871416527358  0.2923370762118084  0.2012727829633576  1.0000
  C   C10       1.0  0.38921509218667416  0.7076648824204241  0.7987326124487524  1.0000
  C   C11       1.0  0.5141255414105642  0.3597474353782458  0.2868945190991424  1.0000
  C   C12       1.0  0.48586952062365907  0.6402584433833597  0.7131135077305115  1.0000
  C   C13       1.0  0.5406113415219876  0.30457226121757935  0.3881760629931462  1.0000
  C   C14       1.0  0.45939522949137057  0.6954305275938851  0.6118258483623861  1.0000
  C   C15       1.0  0.3718630799914635  0.372558599882005  0.2917141023697312  1.0000
  C   C16       1.0  0.6281360364066088  0.6274370658877403  0.7082898451912027  1.0000
  C   C17       1.0  0.5297846537586536  0.46959257172389357  0.2714444220817001  1.0000
  C   C18       1.0  0.4702153477098676  0.5304102372523544  0.7285564696246709  1.0000
  C   C19       1.0  0.6945837718092066  0.3318544234677105  0.11546839462556582  1.0000
  C   C20       1.0  0.30541090831333395  0.6681546937599665  0.8845334427541615  1.0000
  C   C21       1.0  0.7860648532573575  0.2694301166682394  0.0398158011343526  1.0000
  C   C22       1.0  0.2139345119556353  0.7305766383729092  0.9601852031402202  1.0000
  C   C23       1.0  0.8768816367792523  0.31320627922990246  0.9505992325602932  1.0000
  C   C24       1.0  0.1231180559531423  0.6867973111056928  0.049402299566615626  1.0000
  C   C25       1.0  0.9722058863288224  0.3410726950463712  0.7719859622172861  1.0000
  C   C26       1.0  0.027793838784923308  0.6589284935028701  0.2280181535818855  1.0000
  C   C27       1.0  0.7433139837807231  0.347793973244748  0.8363477871941992  1.0000
  C   C28       1.0  0.25669102868382504  0.6522009531533898  0.16365184443312591  1.0000
  C   C29       1.0  0.6526649664289078  0.28139538851048224  0.8821948413738739  1.0000
  C   C30       1.0  0.3473393913405474  0.7185964353346249  0.11780062294355526  1.0000
  C   C31       1.0  0.6873730266958444  0.1807509726891112  0.8521272941767749  1.0000
  C   C32       1.0  0.3126344300754055  0.819240095400545  0.14786533811373195  1.0000
  C   C33       1.0  0.6039924363745683  0.1190935880155664  0.8957946298393011  1.0000
  C   C34       1.0  0.3960125200838646  0.8808990564570607  0.10419838536419936  1.0000
  C   C35       1.0  0.4828377275836501  0.15886100296044248  0.9667682179514471  1.0000
  C   C36       1.0  0.5171603761761359  0.841130050470035  0.03322629399599465  1.0000
  C   C37       1.0  0.026805414797685514  0.20713780443171703  0.16864352171462826  1.0000
  C   C38       1.0  0.9731630887873095  0.7928806871182986  0.8313679641692033  1.0000
  C   C39       1.0  0.9695134753251717  0.1541248207021155  0.2618852748372903  1.0000
  C   C40       1.0  0.030463755729890348  0.845883469795659  0.7381208380995119  1.0000
  C   C41       1.0  0.9587478218695078  0.05094515226370791  0.2693611053810444  1.0000
  C   C42       1.0  0.04124336569904595  0.9490609013474864  0.7306338023972785  1.0000
  C   C43       1.0  0.9216209763914518  0.20326809167148946  0.35238649068735844  1.0000
  C   C44       1.0  0.07838151501946569  0.7967378707339633  0.6476145123590911  1.0000
  C   C45       1.0  0.927624563691978  0.3024977935281115  0.35462821546867923  1.0000
  C   C46       1.0  0.07238202967603512  0.6974978913450229  0.6453736622069499  1.0000
  C   C47       1.0  0.8831956788281373  0.35553562326688126  0.4515967875323952  1.0000
  C   C48       1.0  0.11681215628340873  0.6444569269488127  0.5484032361608084  1.0000
  C   C49       1.0  0.005180793708987581  0.36644269931279183  0.4679259469469769  1.0000
  C   C50       1.0  0.9948239336441983  0.6335576921565433  0.5320783578524411  1.0000
  C   C51       1.0  0.7825222190121008  0.4663544794100147  0.4415460516718069  1.0000
  C   C52       1.0  0.21748529699291194  0.5336435819771949  0.5584551066949929  1.0000
  C   C53       1.0  0.8190520442050726  0.2910843465658886  0.5443687408320769  1.0000
  C   C54       1.0  0.18094739775485638  0.7089152307764266  0.45563789136019023  1.0000
  C   C55       1.0  0.9812368097703157  0.35446434500644125  0.26112889929737526  1.0000
  C   C56       1.0  0.01876602471562446  0.6455313579751943  0.7388718902218158  1.0000
  C   C57       1.0  0.028846262499605785  0.3105585020920145  0.1701570704932891  1.0000
  C   C58       1.0  0.9711359623820283  0.6894466448598847  0.8298475689178273  1.0000
  C   C59       1.0  0.07339101332406975  0.3746341692309158  0.07252667713773062  1.0000
  C   C60       1.0  0.9266064625930494  0.6253631767304241  0.9274696099038453  1.0000
  C   C61       1.0  0.22837538320540302  0.3878190258881063  0.9095571806877698  1.0000
  C   C62       1.0  0.7716236703875268  0.6121743671761878  0.09043944274964111  1.0000
  C   C63       1.0  0.30557639486779925  0.3110521299806805  0.058340118949388335  1.0000
  C   C64       1.0  0.6944219952734655  0.6889452460287799  0.941653786257426  1.0000
  C   C65       1.0  0.44300460386911306  0.2618331625367745  0.9931343455136172  1.0000
  C   C66       1.0  0.55699692802569  0.7381563261187266  0.006858817085472358  1.0000
  C   C67       1.0  0.5297896784556002  0.32099835840644886  0.9519320554109144  1.0000
  C   C68       1.0  0.4702146437048565  0.6789911558529554  0.04805891558179106  1.0000
  N   N1        1.0  0.7769292563133374  0.9472158220954014  0.07502309244560473  1.0000
  N   N2        1.0  0.22306640636740835  0.0527838010156003  0.9249803284911168  1.0000
  N   N3        1.0  0.8755259284082368  0.2984762227498905  0.8506864216402049  1.0000
  N   N4        1.0  0.12447596788507558  0.7015241984359261  0.14931582856740988  1.0000
  N   N5        1.0  0.003988414297651828  0.9914239685717801  0.19592699565623656  1.0000
  N   N6        1.0  0.9960100111089002  0.008585148987528199  0.80407451448054  1.0000
  N   N7        1.0  0.2059324743321795  0.3253054478480236  0.007702137324571368  1.0000
  N   N8        1.0  0.794065317120101  0.6746911075339168  0.9922942169961714  1.0000
  O   O1        1.0  0.898541260357554  0.10171103737377511  0.9820392059527021  1.0000
  O   O2        1.0  0.1014668539927187  0.8982972766051132  0.017962614905400177  1.0000
  O   O3        1.0  0.7590121062898801  0.848704272399125  0.10298159302535463  1.0000
  O   O4        1.0  0.24097598389072064  0.15130489265353478  0.8970171016061173  1.0000
  O   O5        1.0  0.07544973385488868  0.16632085881881406  0.08196067014867478  1.0000
  O   O6        1.0  0.9245209516238118  0.8336827035914423  0.9180453442853036  1.0000
  O   O7        1.0  0.9777103081412689  0.8959745197072306  0.22583582574235805  1.0000
  O   O8        1.0  0.022291837310689278  0.10402755878584459  0.7741603695736643  1.0000
