data_image0
_chemical_formula_structural       Cu6H32C24N8Cl6
_chemical_formula_sum              "Cu6 H32 C24 N8 Cl6"
_cell_length_a       7.2616255732818695
_cell_length_b       8.809561794247024
_cell_length_c       12.772186864543661
_cell_angle_alpha    89.10670820751369
_cell_angle_beta     87.35636312629127
_cell_angle_gamma    87.75719633588561

_space_group_name_H-M_alt    "P 1"
_space_group_IT_number       1

loop_
  _space_group_symop_operation_xyz
  'x, y, z'

loop_
  _atom_site_type_symbol
  _atom_site_label
  _atom_site_symmetry_multiplicity
  _atom_site_fract_x
  _atom_site_fract_y
  _atom_site_fract_z
  _atom_site_occupancy
  Cu  Cu1       1.0  0.735286175055698  0.056545635504903685  0.7474037166705401  1.0000
  Cu  Cu2       1.0  0.2647157740653228  0.9434565881364918  0.2525987213882175  1.0000
  Cu  Cu3       1.0  0.7521229941648215  0.7268494336930756  0.6618129344633273  1.0000
  Cu  Cu4       1.0  0.2478845266403624  0.2731515313492494  0.3381878486439404  1.0000
  Cu  Cu5       1.0  0.7666256921837442  0.7191565004339678  0.8632583416044993  1.0000
  Cu  Cu6       1.0  0.2333720216863497  0.2808492122475386  0.1367448886713021  1.0000
  H   H1        1.0  0.08041948879986899  0.20634304766777933  0.76049097181955  1.0000
  H   H2        1.0  0.9195771987906979  0.7936468469948467  0.2395149938936143  1.0000
  H   H3        1.0  0.6728799360195693  0.08012025623838068  0.9811518680447833  1.0000
  H   H4        1.0  0.32711656983787657  0.9198764734937154  0.018854727153154692  1.0000
  H   H5        1.0  0.8655871652376133  0.16492412082244098  0.12496204278019009  1.0000
  H   H6        1.0  0.1344135330638991  0.8350713707056626  0.8750429261381356  1.0000
  H   H7        1.0  0.37464003781546745  0.28533733249350485  0.8175945983409605  1.0000
  H   H8        1.0  0.6253509321085247  0.7146638772897944  0.18240652882870728  1.0000
  H   H9        1.0  0.42240373957110217  0.2762826786587951  0.9523413035138687  1.0000
  H   H10       1.0  0.5775910859869811  0.723730921778902  0.04765789050949819  1.0000
  H   H11       1.0  0.43179928571043297  0.5451997269813448  0.8822013451533479  1.0000
  H   H12       1.0  0.5681736466830287  0.45481283699644576  0.11778972109278389  1.0000
  H   H13       1.0  0.19766639804564787  0.5368427001275577  0.8474851259375669  1.0000
  H   H14       1.0  0.80230556420328  0.46315177435496213  0.1525087268903675  1.0000
  H   H15       1.0  0.25313404751504726  0.5273654281563082  0.9816480804111762  1.0000
  H   H16       1.0  0.7468403364041052  0.47264263439442533  0.018345408206343398  1.0000
  H   H17       1.0  0.7981453254882993  0.26441186366348995  0.570483734470116  1.0000
  H   H18       1.0  0.20186208304689043  0.7355936443316294  0.4295169463482579  1.0000
  H   H19       1.0  0.3497006290119984  0.0235693290962047  0.6869055305438323  1.0000
  H   H20       1.0  0.6503140925024838  0.9764223242234844  0.3130906162731719  1.0000
  H   H21       1.0  0.1755654093489696  0.10052145671796349  0.5284572558313556  1.0000
  H   H22       1.0  0.8244521681763429  0.8994667279566925  0.4715381274404677  1.0000
  H   H23       1.0  0.5344525980507555  0.44885765442608516  0.35985670207988096  1.0000
  H   H24       1.0  0.4655491293527376  0.5511514662055959  0.6401487142180071  1.0000
  H   H25       1.0  0.6840274286985135  0.29858815343598616  0.3192688742093495  1.0000
  H   H26       1.0  0.3159702661985334  0.7014219577164055  0.680728773350715  1.0000
  H   H27       1.0  0.8549433115316913  0.5363847661070267  0.35431856408999346  1.0000
  H   H28       1.0  0.14506005681383272  0.4636173752184688  0.6456814965425366  1.0000
  H   H29       1.0  0.781081303092492  0.5246221909244468  0.4891625300513879  1.0000
  H   H30       1.0  0.2189275688852987  0.4753798894609957  0.5108381988117898  1.0000
  H   H31       1.0  0.9314685855704637  0.3817115999042429  0.4314422395564462  1.0000
  H   H32       1.0  0.06853900187540059  0.6182892619367165  0.5685546289602215  1.0000
  C   C1        1.0  0.1414185170711875  0.24679772740287118  0.9210219573962772  1.0000
  C   C2        1.0  0.8585781115619253  0.7531966276514623  0.0789807743555073  1.0000
  C   C3        1.0  0.0321361786831318  0.19829569507447786  0.8423265347197885  1.0000
  C   C4        1.0  0.967861871996945  0.8016963887486456  0.1576770024227017  1.0000
  C   C5        1.0  0.8066355728556686  0.12849789843698287  0.9636187631665364  1.0000
  C   C6        1.0  0.19336376094510396  0.8714964983882822  0.0363870429140007  1.0000
  C   C7        1.0  0.9134995946902008  0.175344013763528  0.0431195960319144  1.0000
  C   C8        1.0  0.0864997096318447  0.8246526132575838  0.9568845930679328  1.0000
  C   C9        1.0  0.3214230263742266  0.31916935974591343  0.8961066956676971  1.0000
  C   C10       1.0  0.6785678726754012  0.6808352366117064  0.10389357186717518  1.0000
  C   C11       1.0  0.2999566387039891  0.49284597198859353  0.9022093646203685  1.0000
  C   C12       1.0  0.7000178722245209  0.5071564325114225  0.0977850347763933  1.0000
  C   C13       1.0  0.5639053282363876  0.2727889647136976  0.47185037711543737  1.0000
  C   C14       1.0  0.4361036132045371  0.7272108235550688  0.5281496199740728  1.0000
  C   C15       1.0  0.6586338435409758  0.22820337273176244  0.5605329715232443  1.0000
  C   C16       1.0  0.34137504317617845  0.7717975925557568  0.4394685658302819  1.0000
  C   C17       1.0  0.41022748803489856  0.096175466418515  0.625776568526575  1.0000
  C   C18       1.0  0.5897830543636502  0.9038174044648954  0.3742204216519198  1.0000
  C   C19       1.0  0.31474817174112957  0.13871564220449534  0.5382705454811472  1.0000
  C   C20       1.0  0.6852651172207159  0.861276114071373  0.46172876168020577  1.0000
  C   C21       1.0  0.6461188830353564  0.3715125537871059  0.3870413130970576  1.0000
  C   C22       1.0  0.35388440251890774  0.6284919002953302  0.6129602622272614  1.0000
  C   C23       1.0  0.8119011534939843  0.4585322843186787  0.4178396144107595  1.0000
  C   C24       1.0  0.18810493052487934  0.5414720670527798  0.5821595548154619  1.0000
  N   N1        1.0  0.0813369919667011  0.23419937684127487  0.023229959157141898  1.0000
  N   N2        1.0  0.9186609183758776  0.765798385672845  0.9767734501242272  1.0000
  N   N3        1.0  0.8657077855840998  0.13830239353915624  0.8619972611237116  1.0000
  N   N4        1.0  0.13429021037221384  0.8616908673027125  0.1380078162827871  1.0000
  N   N5        1.0  0.38969447682244146  0.22568961698149784  0.4604184393278956  1.0000
  N   N6        1.0  0.6103159813736169  0.7743066611165046  0.5395784741339327  1.0000
  N   N7        1.0  0.585231957213544  0.13880574821970978  0.6373362018508644  1.0000
  N   N8        1.0  0.41477696948800963  0.8611951551469872  0.36266298674829767  1.0000
  Cl  Cl1       1.0  0.781029201939077  0.512997713543193  0.7599167642032113  1.0000
  Cl  Cl2       1.0  0.21896853999851368  0.4870068634001186  0.24008649164481705  1.0000
  Cl  Cl3       1.0  0.9817377614143793  0.9035431252628783  0.6689649123607992  1.0000
  Cl  Cl4       1.0  0.018264130160417804  0.096462464312566  0.33103588314504145  1.0000
  Cl  Cl5       1.0  0.5195615480657593  0.8788974108694558  0.8338725130407949  1.0000
  Cl  Cl6       1.0  0.4804349240792688  0.12110483243144195  0.1661276909510647  1.0000
