data_image0
_chemical_formula_structural       MgH38C18N4O12
_chemical_formula_sum              "Mg1 H38 C18 N4 O12"
_cell_length_a       7.8337370797296435
_cell_length_b       10.015697120566722
_cell_length_c       10.102099881569934
_cell_angle_alpha    69.0115503674643
_cell_angle_beta     67.83220746009752
_cell_angle_gamma    68.24093171674056

_space_group_name_H-M_alt    "P 1"
_space_group_IT_number       1

loop_
  _space_group_symop_operation_xyz
  'x, y, z'

loop_
  _atom_site_type_symbol
  _atom_site_label
  _atom_site_symmetry_multiplicity
  _atom_site_fract_x
  _atom_site_fract_y
  _atom_site_fract_z
  _atom_site_occupancy
  Mg  Mg1       1.0  2.6835217354970487e-06  0.9999993221337252  0.9999955434192953  1.0000
  H   H1        1.0  0.16158934228847946  0.6009616969404662  0.8666468334838411  1.0000
  H   H2        1.0  0.8384083430943291  0.3990363317678886  0.1333536091140104  1.0000
  H   H3        1.0  0.15981445051968987  0.5781194959967452  0.7014280905090402  1.0000
  H   H4        1.0  0.8401895244464439  0.4218760955979874  0.2985721766188689  1.0000
  H   H5        1.0  0.3689100429664761  0.34651546051911464  0.9278809446898179  1.0000
  H   H6        1.0  0.6310975700865101  0.6534813238080661  0.07211385186447214  1.0000
  H   H7        1.0  0.16463715455353173  0.3424606222727889  0.8942857582393412  1.0000
  H   H8        1.0  0.8353655289281859  0.6575349068872924  0.10571691061942079  1.0000
  H   H9        1.0  0.1859358000403617  0.2867486831798445  0.6885510593886153  1.0000
  H   H10       1.0  0.8140562097570978  0.7132585120784045  0.3114442469614644  1.0000
  H   H11       1.0  0.29338562047254857  0.42914608592789005  0.5587407290681907  1.0000
  H   H12       1.0  0.7066171402194287  0.5708574900947455  0.4412524085265729  1.0000
  H   H13       1.0  0.3362092448857156  0.22410232026822285  0.4548108282169279  1.0000
  H   H14       1.0  0.663787617272746  0.775898083294564  0.5451861370926847  1.0000
  H   H15       1.0  0.469879091055141  0.09561057516422981  0.573440269145756  1.0000
  H   H16       1.0  0.5301143193126663  0.9043876822372354  0.42655943975768196  1.0000
  H   H17       1.0  0.28600672766440743  0.7535889372940971  0.5371467027331746  1.0000
  H   H18       1.0  0.713991680802309  0.24640682055910199  0.46285523243117405  1.0000
  H   H19       1.0  0.3063639415026245  0.8302193586093697  0.6623836553566774  1.0000
  H   H20       1.0  0.6936333573031207  0.16977983152638393  0.3376155447774849  1.0000
  H   H21       1.0  0.6472838657875001  0.10172026311438034  0.6993965218451805  1.0000
  H   H22       1.0  0.3527195178479588  0.8982811460523552  0.3005961235943315  1.0000
  H   H23       1.0  0.5854723687682153  0.14349081960631346  0.8708356857535974  1.0000
  H   H24       1.0  0.4145337119611838  0.8565113558607965  0.12916083736923412  1.0000
  H   H25       1.0  0.5853348755799531  0.6709588048815932  0.7626097469251715  1.0000
  H   H26       1.0  0.4146635194685189  0.329050297409836  0.2373849588954826  1.0000
  H   H27       1.0  0.46690363516934513  0.544775980800928  0.8992157029425555  1.0000
  H   H28       1.0  0.5330923226481802  0.45523728876840175  0.1007843736411757  1.0000
  H   H29       1.0  0.5366679751854732  0.3507353401108092  0.6726989716630881  1.0000
  H   H30       1.0  0.4633281638890806  0.6492673343071405  0.32729650108002767  1.0000
  H   H31       1.0  0.96310480777273  0.019307387509890406  0.7437550834619912  1.0000
  H   H32       1.0  0.036881926434681085  0.9806944684326029  0.2562435584477  1.0000
  H   H33       1.0  0.9073116864771648  0.19239449080616575  0.736322487288433  1.0000
  H   H34       1.0  0.09268442098458958  0.8076045328956811  0.2636810992983242  1.0000
  H   H35       1.0  0.8343372079105151  0.2834970891674829  0.9749255614229353  1.0000
  H   H36       1.0  0.16565842681841056  0.7165039453913736  0.02508149440168235  1.0000
  H   H37       1.0  0.6941626052292591  0.17954913540958733  0.08928721805686021  1.0000
  H   H38       1.0  0.3058386866275952  0.8204464353151126  0.9107158678110137  1.0000
  C   C1        1.0  0.24902796505747923  0.5465679778444327  0.775333262475655  1.0000
  C   C2        1.0  0.7509744275148549  0.45343305688987096  0.22466773885992813  1.0000
  C   C3        1.0  0.2946495333191734  0.37988126457131716  0.8433244328876552  1.0000
  C   C4        1.0  0.7053529498816714  0.6201144725872967  0.15667426652762373  1.0000
  C   C5        1.0  0.3222632122206264  0.31212188582351547  0.6207722235747609  1.0000
  C   C6        1.0  0.6777359604547187  0.6878804454670445  0.37922737695448916  1.0000
  C   C7        1.0  0.43471611853770753  0.2136900656459631  0.5142206402612997  1.0000
  C   C8        1.0  0.565277191689674  0.786308295754772  0.4857770839203963  1.0000
  C   C9        1.0  0.3831688722075483  0.7470208259400339  0.5962388176870019  1.0000
  C   C10       1.0  0.6168298182230458  0.2529783226311082  0.4037599654380556  1.0000
  C   C11       1.0  0.5272026513639574  0.14040821192120492  0.789221022507455  1.0000
  C   C12       1.0  0.47280112332130403  0.8595875876720529  0.21077527517697078  1.0000
  C   C13       1.0  0.404199627589108  0.03153218087918932  0.8630650630107438  1.0000
  C   C14       1.0  0.5957984804563098  0.9684638889717977  0.1369309179883799  1.0000
  C   C15       1.0  0.5453346322142567  0.570331415884965  0.7805806330344464  1.0000
  C   C16       1.0  0.4546670873443831  0.42967183770486633  0.21941986809551375  1.0000
  C   C17       1.0  0.7305555132479995  0.44354369491869533  0.7638888927085713  1.0000
  C   C18       1.0  0.26944698897668934  0.5564624293927667  0.2361183799908061  1.0000
  N   N1        1.0  0.42565790657766206  0.2972250810337655  0.7269335839421486  1.0000
  N   N2        1.0  0.5743439536797084  0.7027728229807482  0.27306560762836785  1.0000
  N   N3        1.0  0.4231482929837895  0.5952432514868705  0.6901040301263633  1.0000
  N   N4        1.0  0.5768589975470205  0.4047553876984154  0.30989721274838894  1.0000
  O   O1        1.0  0.23253697958013927  0.08086250669905584  0.935642086579456  1.0000
  O   O2        1.0  0.7674652532696202  0.9191334904577174  0.06435165103147268  1.0000
  O   O3        1.0  0.4863014797448388  0.8999839917985852  0.8495608189556662  1.0000
  O   O4        1.0  0.5137157429288948  0.10000895485944031  0.1504371876567561  1.0000
  O   O5        1.0  0.7603911841959743  0.35565906275370923  0.6864357986131536  1.0000
  O   O6        1.0  0.23961051773453323  0.6443412855503682  0.31357951278373253  1.0000
  O   O7        1.0  0.8397066772943235  0.4305679046346217  0.8362456893371684  1.0000
  O   O8        1.0  0.1602850880205011  0.5694425843427952  0.16377044854081646  1.0000
  O   O9        1.0  0.9888415716749394  0.08958240892998505  0.7746273610231141  1.0000
  O   O10       1.0  0.011156973017755055  0.9104124474939752  0.22537085480056618  1.0000
  O   O11       1.0  0.8263884529894838  0.1920149224519109  0.058531334064639326  1.0000
  O   O12       1.0  0.17361379384495026  0.807981820135204  0.9414690999695664  1.0000
