data_image0
_chemical_formula_structural       Cu2H52C54S2N12Cl4O4
_chemical_formula_sum              "Cu2 H52 C54 S2 N12 Cl4 O4"
_cell_length_a       8.591272234398371
_cell_length_b       13.100987982969752
_cell_length_c       14.313069646929495
_cell_angle_alpha    73.70890298288694
_cell_angle_beta     73.43460854129462
_cell_angle_gamma    83.51424918887247

_space_group_name_H-M_alt    "P 1"
_space_group_IT_number       1

loop_
  _space_group_symop_operation_xyz
  'x, y, z'

loop_
  _atom_site_type_symbol
  _atom_site_label
  _atom_site_symmetry_multiplicity
  _atom_site_fract_x
  _atom_site_fract_y
  _atom_site_fract_z
  _atom_site_occupancy
  Cu  Cu1       1.0  0.7316785525853718  0.4488003491001463  0.17018482234921348  1.0000
  Cu  Cu2       1.0  0.2683253829972331  0.5511952123386266  0.8298064819992135  1.0000
  H   H1        1.0  0.008246053524722201  0.016365761938864395  0.1115248509565561  1.0000
  H   H2        1.0  0.991759989451424  0.9836361666902674  0.8884721395138442  1.0000
  H   H3        1.0  0.9622097208802244  0.849631444533557  0.2517405585231104  1.0000
  H   H4        1.0  0.037796243530607405  0.15037207741702474  0.7482574319877883  1.0000
  H   H5        1.0  0.40443807650763824  0.7042010376650224  0.10414018656063467  1.0000
  H   H6        1.0  0.5955703346852559  0.2958024688730276  0.895852501400043  1.0000
  H   H7        1.0  0.7027729427651864  0.9998762194635161  0.7532930163672944  1.0000
  H   H8        1.0  0.2972158183687696  0.00013134895641539997  0.2467110472473735  1.0000
  H   H9        1.0  0.8190701058401758  0.11889675690090941  0.5856141064723488  1.0000
  H   H10       1.0  0.18092101345963132  0.8811123931547725  0.41438845003667524  1.0000
  H   H11       1.0  0.3867398507283398  0.3221786273108051  0.6203298152641424  1.0000
  H   H12       1.0  0.6132442609965738  0.677824970928107  0.37966907518032394  1.0000
  H   H13       1.0  0.2715871017888177  0.20444859727636808  0.7888452371569628  1.0000
  H   H14       1.0  0.7284009478850209  0.7955486217945448  0.21115462804407772  1.0000
  H   H15       1.0  0.25605563470633547  0.6294876781708183  0.2893472310484881  1.0000
  H   H16       1.0  0.7439480551294223  0.3705126669591436  0.7106498688255058  1.0000
  H   H17       1.0  0.05033557460049561  0.675959145496691  0.33381580029266184  1.0000
  H   H18       1.0  0.9496692638300747  0.32404278385089197  0.6661786000701966  1.0000
  H   H19       1.0  0.310597883834241  0.5105817207922455  0.1627463767139474  1.0000
  H   H20       1.0  0.6894084115059727  0.4894146395971788  0.8372534032738983  1.0000
  H   H21       1.0  0.33460606696695555  0.3800201357533838  0.03850963963341055  1.0000
  H   H22       1.0  0.6653976571260075  0.6199794145792694  0.9614883579223772  1.0000
  H   H23       1.0  0.3140043769534985  0.24516283673025896  0.9463276531751319  1.0000
  H   H24       1.0  0.6859980907475888  0.7548375156401123  0.053671748548460026  1.0000
  H   H25       1.0  0.0406001235321938  0.1913578458792955  0.9552204936506711  1.0000
  H   H26       1.0  0.9594098573928775  0.80863770358183  0.044777471576303185  1.0000
  H   H27       1.0  0.7925191139243783  0.28224848423690224  0.0474382357393778  1.0000
  H   H28       1.0  0.2074884060632343  0.7177478679803998  0.9525585435478519  1.0000
  H   H29       1.0  0.6390095519991023  0.45329736865627984  0.4132047761090761  1.0000
  H   H30       1.0  0.360988329781904  0.5466974258018668  0.5867926455099522  1.0000
  H   H31       1.0  0.6148543437076343  0.42846219412286507  0.5466354178426726  1.0000
  H   H32       1.0  0.3851446448727954  0.5715349821453374  0.45336050313648  1.0000
  H   H33       1.0  0.8127531617000942  0.4275553658151736  0.4617516577452534  1.0000
  H   H34       1.0  0.18724371856583136  0.5724346615092699  0.5382492587079993  1.0000
  H   H35       1.0  0.7645856503129452  0.06200139980478529  0.22050383231452736  1.0000
  H   H36       1.0  0.23542536797617702  0.9379973393076213  0.7795015185050571  1.0000
  H   H37       1.0  0.5779411157374599  0.09386972127192188  0.301488968422376  1.0000
  H   H38       1.0  0.42206499072764814  0.9061306196259975  0.6985112151136477  1.0000
  H   H39       1.0  0.719463210994448  0.19500020362658432  0.23156923495652387  1.0000
  H   H40       1.0  0.2805478072946741  0.8049985354858222  0.7684361158630608  1.0000
  H   H41       1.0  0.029120811668612093  0.04297846907429909  0.2807480393118382  1.0000
  H   H42       1.0  0.9708826248821228  0.9570266625419633  0.7192569526407837  1.0000
  H   H43       1.0  0.022253315277140497  0.0894232679002087  0.3873738966384366  1.0000
  H   H44       1.0  0.9777525922619574  0.9105810572330523  0.6126294858498512  1.0000
  H   H45       1.0  0.9979854232712884  0.1814331183139188  0.27358277612164966  1.0000
  H   H46       1.0  0.0020095453612186138  0.818571249622046  0.7264245505885256  1.0000
  H   H47       1.0  0.8047035943246216  0.9530882532495114  0.489587264683493  1.0000
  H   H48       1.0  0.19530386627852184  0.04690890308217629  0.5104156054321436  1.0000
  H   H49       1.0  0.8074739984991055  0.9137552363445425  0.3794787720471432  1.0000
  H   H50       1.0  0.19253500762990683  0.08623475398070467  0.6205256822489106  1.0000
  H   H51       1.0  0.6219781808879574  0.9578225994633838  0.4526210581852653  1.0000
  H   H52       1.0  0.3780269265747976  0.0421729733691407  0.5473819213339723  1.0000
  C   C1        1.0  0.40496041672491867  0.019349376506284002  0.8791348829932133  1.0000
  C   C2        1.0  0.5950382450306151  0.9806541777062632  0.12086853240302277  1.0000
  C   C3        1.0  0.0942049399439568  0.9486946128741921  0.1102298219563948  1.0000
  C   C4        1.0  0.905801132263946  0.0513065228210436  0.8897694638978351  1.0000
  C   C5        1.0  0.06994877277179512  0.8555925753430669  0.18801897369383616  1.0000
  C   C6        1.0  0.9300536213894335  0.1444093684853414  0.8119800303682112  1.0000
  C   C7        1.0  0.18008773603857975  0.7676419779602452  0.1857221454833891  1.0000
  C   C8        1.0  0.8199111906446533  0.23235600335404877  0.8142805651751885  1.0000
  C   C9        1.0  0.3186629838957488  0.7722010366230591  0.1048687536813233  1.0000
  C   C10       1.0  0.6813357246806222  0.2278017181336409  0.8951320651416025  1.0000
  C   C11       1.0  0.3424857645606992  0.8648686356558103  0.02603069058734045  1.0000
  C   C12       1.0  0.6575202558009111  0.1351333013586853  0.9739725895422423  1.0000
  C   C13       1.0  0.2305848518354168  0.953982536639387  0.027168095467281623  1.0000
  C   C14       1.0  0.7694198169008857  0.04602258400964128  0.9728317992316633  1.0000
  C   C15       1.0  0.4765230796853218  0.09194001101189292  0.7819548976200822  1.0000
  C   C16       1.0  0.5234620059146877  0.9080683646095052  0.2180481853513782  1.0000
  C   C17       1.0  0.6317796973455145  0.06953308853516658  0.7236586951873393  1.0000
  C   C18       1.0  0.36820534394638577  0.9304760856103728  0.2763462855064133  1.0000
  C   C19       1.0  0.698092688661184  0.1364316899160585  0.6296875479861299  1.0000
  C   C20       1.0  0.3018960331901114  0.8635766751645948  0.37031701564877995  1.0000
  C   C21       1.0  0.6090028338704839  0.2266096028742766  0.590108302658571  1.0000
  C   C22       1.0  0.3909787449688693  0.7733956068937431  0.4098989869296688  1.0000
  C   C23       1.0  0.45593274803275835  0.2511345248199958  0.6488235449593064  1.0000
  C   C24       1.0  0.5440512826141132  0.7488706676720723  0.35117704437667646  1.0000
  C   C25       1.0  0.3907745873090605  0.18488760264840212  0.7438899624408748  1.0000
  C   C26       1.0  0.6092105375736026  0.8151199763122675  0.25611262051033623  1.0000
  C   C27       1.0  0.1453786094276595  0.6648379607144861  0.26735734476103795  1.0000
  C   C28       1.0  0.8546285771178505  0.33516555399568665  0.7326383439002626  1.0000
  C   C29       1.0  0.06720909131914254  0.47494790036737555  0.14848822272645631  1.0000
  C   C30       1.0  0.932791143602252  0.5250484775899338  0.8515090894889709  1.0000
  C   C31       1.0  0.17942667705587925  0.5211001620788736  0.17536817987848244  1.0000
  C   C32       1.0  0.8205771306278539  0.4788977930689099  0.8246274199347639  1.0000
  C   C33       1.0  0.0744162021269759  0.39795141927820044  0.09154746212736597  1.0000
  C   C34       1.0  0.9255912493462264  0.602046522533726  0.9084475217962763  1.0000
  C   C35       1.0  0.21765130761817636  0.3550064523298956  0.03876980371776988  1.0000
  C   C36       1.0  0.7823559207227078  0.6449962647878423  0.9612246860722634  1.0000
  C   C37       1.0  0.20574684563038662  0.280140410380234  0.9888949435969252  1.0000
  C   C38       1.0  0.7942616733595785  0.71986070990247  0.011099039707090622  1.0000
  C   C39       1.0  0.052921824550956814  0.2506892633972129  0.992445998645195  1.0000
  C   C40       1.0  0.9470817625131858  0.7493134661246755  0.007548408183417513  1.0000
  C   C41       1.0  0.9156620927124595  0.29937882400007243  0.04377180783269809  1.0000
  C   C42       1.0  0.08434402129082491  0.7006215141027284  0.9562262791502647  1.0000
  C   C43       1.0  0.6851761894458548  0.4074586901627058  0.4772701650459296  1.0000
  C   C44       1.0  0.3148180853156076  0.5925353219022824  0.5227280712934785  1.0000
  C   C45       1.0  0.7333590162924113  0.2535684228702877  0.4084902380503691  1.0000
  C   C46       1.0  0.26662338404906194  0.7464192762007968  0.591517931559757  1.0000
  C   C47       1.0  0.7876297790568928  0.0840900148576509  0.35952315437944543  1.0000
  C   C48       1.0  0.2123727713140014  0.915907960574451  0.6404845311976856  1.0000
  C   C49       1.0  0.7076422226219635  0.11104576272219902  0.2729631722773149  1.0000
  C   C50       1.0  0.2923639841020318  0.8889521947155001  0.7270404031551081  1.0000
  C   C51       1.0  0.9703774203212066  0.10148620093201538  0.3229661303674617  1.0000
  C   C52       1.0  0.029624838402966733  0.8985181394005224  0.677039265712466  1.0000
  C   C53       1.0  0.7531326795914454  0.9704387505035397  0.4245776893701887  1.0000
  C   C54       1.0  0.24687614771336547  0.029555216603377198  0.5754243730699642  1.0000
  S   S1        1.0  0.4969183821369613  0.8925062911938753  0.9156300325241488  1.0000
  S   S2        1.0  0.5030885001981887  0.10750359307527191  0.08436686089504518  1.0000
  N   N1        1.0  0.2691021792167448  0.038861665613190204  0.9432604860828063  1.0000
  N   N2        1.0  0.7308964875642446  0.9611418867359375  0.05674153161138656  1.0000
  N   N3        1.0  0.08760889473040831  0.5862583398050488  0.23043139139088  1.0000
  N   N4        1.0  0.9123922948852299  0.4137436047418106  0.7695650225636256  1.0000
  N   N5        1.0  0.927811979839014  0.5835211988587189  0.23819635152395338  1.0000
  N   N6        1.0  0.07218680478994344  0.41647996350823746  0.7618041661094921  1.0000
  N   N7        1.0  0.9169811641686891  0.5153703880219141  0.18887322965355213  1.0000
  N   N8        1.0  0.083018979623759  0.48462758791539073  0.8111285768574702  1.0000
  N   N9        1.0  0.9258848038192795  0.3714205867738585  0.09208998806107617  1.0000
  N   N10       1.0  0.07411880745115702  0.6285813516775461  0.9079081118534091  1.0000
  N   N11       1.0  0.6737355876999161  0.2929717118734203  0.4919656675394464  1.0000
  N   N12       1.0  0.3262475935370547  0.707025528705472  0.5080378142518143  1.0000
  Cl  Cl1       1.0  0.5513106353380904  0.376278096074472  0.12401250204207054  1.0000
  Cl  Cl2       1.0  0.448707271336339  0.6237317137138945  0.8759566862205547  1.0000
  Cl  Cl3       1.0  0.538291874860306  0.5492291301819492  0.24978261318057796  1.0000
  Cl  Cl4       1.0  0.4616965776910079  0.45076011855487513  0.7502094564139057  1.0000
  O   O1        1.0  0.7998498837568848  0.30960951981448653  0.32438764740334847  1.0000
  O   O2        1.0  0.20013173158461237  0.6903694213656093  0.6756159261316128  1.0000
  O   O3        1.0  0.7070544804070877  0.14831649011388487  0.43137782881383663  1.0000
  O   O4        1.0  0.2929364362652152  0.8516703904965439  0.5686353922104885  1.0000
