data_image0
_chemical_formula_structural       Cu2P2H26C32S2N4O12
_chemical_formula_sum              "Cu2 P2 H26 C32 S2 N4 O12"
_cell_length_a       9.482711980175251
_cell_length_b       9.482767302140944
_cell_length_c       10.434235716833417
_cell_angle_alpha    75.30624398878129
_cell_angle_beta     75.30624353876401
_cell_angle_gamma    71.31662998572058

_space_group_name_H-M_alt    "P 1"
_space_group_IT_number       1

loop_
  _space_group_symop_operation_xyz
  'x, y, z'

loop_
  _atom_site_type_symbol
  _atom_site_label
  _atom_site_symmetry_multiplicity
  _atom_site_fract_x
  _atom_site_fract_y
  _atom_site_fract_z
  _atom_site_occupancy
  Cu  Cu1       1.0  0.23826483637213844  0.7617378627708719  0.4999985568164505  1.0000
  Cu  Cu2       1.0  0.2912985633262152  0.7087004895119832  1.8860214155907867e-06  1.0000
  P   P1        1.0  0.11913781897378324  0.616311436576801  0.3129814580462025  1.0000
  P   P2        1.0  0.3836830892755996  0.8808614308291355  0.6870183590555501  1.0000
  H   H1        1.0  0.21763458131253796  0.3926397521282469  0.2608243475998435  1.0000
  H   H2        1.0  0.6073537327321713  0.782366598317715  0.7391802592937325  1.0000
  H   H3        1.0  0.6166112251926775  0.9918428995648089  0.32065709415675775  1.0000
  H   H4        1.0  0.008159558071874063  0.3833974581327055  0.6793320767875884  1.0000
  H   H5        1.0  0.8677692333738134  0.8709085662289624  0.39034822108224193  1.0000
  H   H6        1.0  0.12908955943521508  0.13223908894035216  0.6096393944745417  1.0000
  H   H7        1.0  0.9636181194230387  0.5355633372173189  0.1447269068848841  1.0000
  H   H8        1.0  0.46443143231903156  0.03637960616533322  0.8552737902415332  1.0000
  H   H9        1.0  0.7158583626489018  0.6559445880463316  0.07568144936027474  1.0000
  H   H10       1.0  0.3440500034981895  0.2841400862310338  0.9243169725702743  1.0000
  H   H11       1.0  0.9279739725292727  0.8234430263936119  0.6508304318152228  1.0000
  H   H12       1.0  0.17655179107455865  0.07203267613820692  0.34916032015081566  1.0000
  H   H13       1.0  0.6934575470718727  0.0441385837343162  0.6557959065009841  1.0000
  H   H14       1.0  0.9558486445381361  0.30654651131054333  0.3441927506583654  1.0000
  H   H15       1.0  0.5070685219066321  0.2042376343306884  0.5210110829432396  1.0000
  H   H16       1.0  0.795776334298793  0.4929165754035126  0.4789851409879303  1.0000
  H   H17       1.0  0.288717144963165  0.43520962730881513  0.5211889409997853  1.0000
  H   H18       1.0  0.5648131971948301  0.7112788229293728  0.4788168148028476  1.0000
  H   H19       1.0  0.1881498635872844  0.9793003482494387  0.12141120711702762  1.0000
  H   H20       1.0  0.02069499186799815  0.8118486805889731  0.8785979831546838  1.0000
  H   H21       1.0  0.9729805727940716  0.21560950814433263  0.11565637482260631  1.0000
  H   H22       1.0  0.7843927692689691  0.0270242736780162  0.8843421067348701  1.0000
  H   H23       1.0  0.699195084454807  0.2863364600347823  0.7966423149395042  1.0000
  H   H24       1.0  0.7136643377933398  0.3008077649734774  0.20336537833287593  1.0000
  H   H25       1.0  0.4718399777539517  0.5114822770271061  0.806353392536444  1.0000
  H   H26       1.0  0.4885137709539363  0.5281573365777349  0.193655434366967  1.0000
  C   C1        1.0  0.6510581184304413  0.8295010528481301  0.19561878149200146  1.0000
  C   C2        1.0  0.17049734959146423  0.34894382659535245  0.8043797175471568  1.0000
  C   C3        1.0  0.6936115609129343  0.8914137329998015  0.2834329077336052  1.0000
  C   C4        1.0  0.10858594625841525  0.3063950431853969  0.7165603733150832  1.0000
  C   C5        1.0  0.8337878671524306  0.8236524647225708  0.32216076211231853  1.0000
  C   C6        1.0  0.1763412699428244  0.16621647552604912  0.6778355055988002  1.0000
  C   C7        1.0  0.9319213947154593  0.6939643345120247  0.27389222342159064  1.0000
  C   C8        1.0  0.30603063159878013  0.0680817878430986  0.7261051299846671  1.0000
  C   C9        1.0  0.8869213179452872  0.6324179072180982  0.18725385841642614  1.0000
  C   C10       1.0  0.36757275737789286  0.11307656728612162  0.8127514747574408  1.0000
  C   C11       1.0  0.7471199233993103  0.7004751059699501  0.14755437847063047  1.0000
  C   C12       1.0  0.2995243698755984  0.2528815263861119  0.8524431706006937  1.0000
  C   C13       1.0  0.9262347784826231  0.9331697740494465  0.5845551514207513  1.0000
  C   C14       1.0  0.06682304383168969  0.07377107309162773  0.41544192701706356  1.0000
  C   C15       1.0  0.798140962817996  0.0565433418664725  0.5869012371011664  1.0000
  C   C16       1.0  0.9434415917202942  0.20186018648985993  0.41308772290310003  1.0000
  C   C17       1.0  0.8052952298350391  0.19469451874199  0.4999980750463068  1.0000
  C   C18       1.0  0.6718105297460113  0.3281883519667233  0.49999779619744805  1.0000
  C   C19       1.0  0.5260988916571421  0.313857513834698  0.5123585174300588  1.0000
  C   C20       1.0  0.6861547274364455  0.47388883531971265  0.4876470245683606  1.0000
  C   C21       1.0  0.4030898520023456  0.44203963372191885  0.5120950550586231  1.0000
  C   C22       1.0  0.5579761238210137  0.596906373131418  0.48792192670355666  1.0000
  C   C23       1.0  0.09796103871002508  0.9977097586240266  0.0668850746005845  1.0000
  C   C24       1.0  0.002294643745656678  0.9020393143488479  0.9331177004484346  1.0000
  C   C25       1.0  0.9755331618095582  0.126097960398134  0.06661563593614524  1.0000
  C   C26       1.0  0.8739043794809477  0.024469399081205302  0.9333853344305538  1.0000
  C   C27       1.0  0.8591226409227914  0.14087562855742425  3.383904854106392e-06  1.0000
  C   C28       1.0  0.7261549880725795  0.273842280316572  3.531405070560371e-06  1.0000
  C   C29       1.0  0.6557435351683907  0.33482504729772  0.8876801339529834  1.0000
  C   C30       1.0  0.6651791274801012  0.34425833254677946  0.11232311403239242  1.0000
  C   C31       1.0  0.5302880395110919  0.46018638826799224  0.8912142983591027  1.0000
  C   C32       1.0  0.5398131712465213  0.46971015462962395  0.10879262425871872  1.0000
  S   S1        1.0  0.4727390684124585  0.9191213945542599  0.14401008495560322  1.0000
  S   S2        1.0  0.08087861942302504  0.5272638305470139  0.8559886102718579  1.0000
  N   N1        1.0  0.05773431764424682  0.9422643355584341  0.49999266950380433  1.0000
  N   N2        1.0  0.4185851720731079  0.5814310923882644  0.49999840980814275  1.0000
  N   N3        1.0  0.11135058425625022  0.8886492370307623  3.5115607345674677e-06  1.0000
  N   N4        1.0  0.47326289846808584  0.5267380078630737  2.530776562470633e-06  1.0000
  O   O1        1.0  0.3574157055736221  0.8916623991720131  0.26490839566963587  1.0000
  O   O2        1.0  0.10833885260678501  0.6425860135267527  0.7350873555525085  1.0000
  O   O3        1.0  0.47501813246974217  0.8431259710829766  0.03606389781229776  1.0000
  O   O4        1.0  0.15687635589150517  0.5249794132770732  0.963934591263893  1.0000
  O   O5        1.0  0.4673459311509376  0.0799427422079333  0.0985826059547747  1.0000
  O   O6        1.0  0.9200546701894078  0.5326549859039604  0.9014205502933808  1.0000
  O   O7        1.0  0.14820970556697677  0.4332519566847425  0.3378592393393305  1.0000
  O   O8        1.0  0.566745698021208  0.8517869464416847  0.6621415472757307  1.0000
  O   O9        1.0  0.24085455352895466  0.6580501281075756  0.19723768279371967  1.0000
  O   O10       1.0  0.3419421569139017  0.7591467735744927  0.8027650977443488  1.0000
  O   O11       1.0  0.11551292164755003  0.6559644416802328  0.44607846811675966  1.0000
  O   O12       1.0  0.3440323348146208  0.8844953325350104  0.5539177613940467  1.0000
