data_image0
_chemical_formula_structural       Zn7H52C76N6O18
_chemical_formula_sum              "Zn7 H52 C76 N6 O18"
_cell_length_a       12.928876402748687
_cell_length_b       16.89237287521689
_cell_length_c       17.45370879631102
_cell_angle_alpha    75.64610962855122
_cell_angle_beta     73.0951480215383
_cell_angle_gamma    68.90760645111861

_space_group_name_H-M_alt    "P 1"
_space_group_IT_number       1

loop_
  _space_group_symop_operation_xyz
  'x, y, z'

loop_
  _atom_site_type_symbol
  _atom_site_label
  _atom_site_symmetry_multiplicity
  _atom_site_fract_x
  _atom_site_fract_y
  _atom_site_fract_z
  _atom_site_occupancy
  Zn  Zn1       1.0  0.4694934107872086  0.31639205604314924  0.050244977374752815  1.0000
  Zn  Zn2       1.0  0.530505896536617  0.6836077059385561  0.9497554343315994  1.0000
  Zn  Zn3       1.0  0.35104171558771907  0.4441402032710755  0.17891406813038194  1.0000
  Zn  Zn4       1.0  0.648959206606449  0.5558595633520298  0.8210859956443171  1.0000
  Zn  Zn5       1.0  0.6158337653614366  0.37447477375557264  0.13954683420177355  1.0000
  Zn  Zn6       1.0  0.3841663493975602  0.6255249905468362  0.8604534035387488  1.0000
  Zn  Zn7       1.0  0.500000203849943  0.49999981400677024  1.4887606171656e-07  1.0000
  H   H1        1.0  0.6492559246522873  0.36269410320081613  0.37480134428490414  1.0000
  H   H2        1.0  0.3507447305920123  0.6373063062438931  0.6251986226520498  1.0000
  H   H3        1.0  0.6460644547054882  0.3622118933396409  0.5179028851407634  1.0000
  H   H4        1.0  0.35393566005350857  0.6377878709627678  0.48209735259976577  1.0000
  H   H5        1.0  0.2819455075140595  0.4187083117917894  0.5776839689107474  1.0000
  H   H6        1.0  0.7180554146801015  0.581291454831316  0.42231609486394456  1.0000
  H   H7        1.0  0.2864701252900587  0.4222797116264587  0.43352142262737886  1.0000
  H   H8        1.0  0.7135281091841679  0.5777206906325316  0.566477920042203  1.0000
  H   H9        1.0  0.1579290393141051  0.6949399595243974  0.23722524541179263  1.0000
  H   H10       1.0  0.8420726903152272  0.30505980941940447  0.7627746443970692  1.0000
  H   H11       1.0  0.004987821103085739  0.8358437294782846  0.24421318234809056  1.0000
  H   H12       1.0  0.9950117539383285  0.1641553895700056  0.755786753113575  1.0000
  H   H13       1.0  0.03648335323042307  0.8708554406574722  0.9860937936443288  1.0000
  H   H14       1.0  0.9635175697314652  0.12914432585382227  0.013905697047931707  1.0000
  H   H15       1.0  0.1905531996549641  0.7318956231180849  0.9798450741214988  1.0000
  H   H16       1.0  0.809447723306917  0.2681041433932022  0.020154416570761634  1.0000
  H   H17       1.0  0.9670333867723501  0.30193131124317313  0.24487971121040886  1.0000
  H   H18       1.0  0.03296646103677853  0.6980690958808397  0.7551204296923755  1.0000
  H   H19       1.0  0.7721581232730018  0.3062655962181822  0.24312064313006937  1.0000
  H   H20       1.0  0.22784118405082415  0.69373416576353  0.756879768576283  1.0000
  H   H21       1.0  0.7961950492629696  0.4393857129215988  0.00862557497281809  1.0000
  H   H22       1.0  0.20380399111098768  0.5606146918817174  0.9913747398957963  1.0000
  H   H23       1.0  0.9954495007073944  0.4345256989451727  0.9977961341880142  1.0000
  H   H24       1.0  0.0045500801518655555  0.5654753510004511  0.0022039098770249925  1.0000
  H   H25       1.0  0.30164761293075054  0.4927455031752713  0.8048375470007084  1.0000
  H   H26       1.0  0.698353042313542  0.5072549062694378  0.1951624199362455  1.0000
  H   H27       1.0  0.30055770474868376  0.4897028119497476  0.6640652339274948  1.0000
  H   H28       1.0  0.6994413363929936  0.5102975927417503  0.33593450785868834  1.0000
  H   H29       1.0  0.623105136830297  0.2886971818310967  0.6450232931739277  1.0000
  H   H30       1.0  0.3768949779286999  0.7113025824713047  0.35497694456659434  1.0000
  H   H31       1.0  0.6207228002144093  0.2901422752653886  0.7875060188469402  1.0000
  H   H32       1.0  0.37927704836243936  0.7098581317468132  0.21249354897341263  1.0000
  H   H33       1.0  0.8156612713481551  0.1269703653196714  0.20603930183973754  1.0000
  H   H34       1.0  0.18433965161373314  0.873029401191623  0.7939601888525298  1.0000
  H   H35       1.0  0.9721134804885166  0.9876686111126246  0.20222731518569498  1.0000
  H   H36       1.0  0.027887440937924203  0.012331155622298697  0.7977733216714281  1.0000
  H   H37       1.0  0.8344183614601735  0.9215735455028238  0.03831682119274389  1.0000
  H   H38       1.0  0.1655817532988237  0.078426218799585  0.9616834165477779  1.0000
  H   H39       1.0  0.6778888462041834  0.06083930722532221  0.04351421262363428  1.0000
  H   H40       1.0  0.3221107280695108  0.939159811934779  0.9564862959204629  1.0000
  H   H41       1.0  0.11671453578044581  0.4720764573999858  0.26928484128503527  1.0000
  H   H42       1.0  0.8832853120286828  0.5279239497240268  0.7307152996177493  1.0000
  H   H43       1.0  0.019156446464926022  0.4133779472102078  0.2903996552845882  1.0000
  H   H44       1.0  0.9808436682940639  0.586621817092201  0.7096005824559409  1.0000
  H   H45       1.0  0.001966954480792457  0.5098746458442918  0.2194612694280521  1.0000
  H   H46       1.0  0.9980331602782044  0.49012511845811707  0.7805389683124772  1.0000
  H   H47       1.0  0.3293863412485933  0.26526426385388646  0.972239875901877  1.0000
  H   H48       1.0  0.6706135057928081  0.7347361433819373  0.027760838083338422  1.0000
  H   H49       1.0  0.19691803098187674  0.332190816444232  0.9496709886210293  1.0000
  H   H50       1.0  0.8030820845448405  0.6678089477463587  0.05032867603706134  1.0000
  H   H51       1.0  0.2042845592587526  0.2340369274537863  0.01716594639974287  1.0000
  H   H52       1.0  0.7957152893180891  0.7659634795584225  0.9828336214206028  1.0000
  C   C1        1.0  0.4616110098944263  0.3933110141530065  0.8901073401748927  1.0000
  C   C2        1.0  0.5383896453498737  0.60668939529171  0.10989262676205404  1.0000
  C   C3        1.0  0.468189568334914  0.39225792879247484  0.39527756380356016  1.0000
  C   C4        1.0  0.5318105464240829  0.6077418355099339  0.604722673936969  1.0000
  C   C5        1.0  0.5692705571041615  0.3744147135016576  0.41999860074194817  1.0000
  C   C6        1.0  0.430729290704967  0.6255856936223553  0.580001540160836  1.0000
  C   C7        1.0  0.5670626799284477  0.3734671869950787  0.5002751213673517  1.0000
  C   C8        1.0  0.4329363604455094  0.6265332178082446  0.49972519350126277  1.0000
  C   C9        1.0  0.46384880678004964  0.3898468417721617  0.5587136033149205  1.0000
  C   C10       1.0  0.5361513087466677  0.6101529224184289  0.44128606134317727  1.0000
  C   C11       1.0  0.36287947559743833  0.4074019097013917  0.533331825754743  1.0000
  C   C12       1.0  0.6371206399292787  0.5925978544891991  0.4666678389033476  1.0000
  C   C13       1.0  0.36481757365067574  0.4087618285659005  0.45293240834243403  1.0000
  C   C14       1.0  0.6351803938736895  0.5912392165146939  0.547066837489403  1.0000
  C   C15       1.0  0.18299839149543826  0.703936973461552  0.10836762477195085  1.0000
  C   C16       1.0  0.8170025314664501  0.29606279304974237  0.8916318659203171  1.0000
  C   C17       1.0  0.1310769106852305  0.7345479149693901  0.18253350004609808  1.0000
  C   C18       1.0  0.8689234717913549  0.2654512063995966  0.8174662614497378  1.0000
  C   C19       1.0  0.045813949454505  0.813317067247077  0.1860078146271177  1.0000
  C   C20       1.0  0.9541850843338935  0.18668140677071682  0.8139929647205545  1.0000
  C   C21       1.0  0.008192513349989418  0.8627649386516935  0.11583389463589096  1.0000
  C   C22       1.0  0.991805713770958  0.13723353293358542  0.8841664855951803  1.0000
  C   C23       1.0  0.0614809074674908  0.832085254490373  0.04166308876613558  1.0000
  C   C24       1.0  0.9385186675739235  0.1679138645579172  0.9583368466955378  1.0000
  C   C25       1.0  0.14855399171459996  0.754253275633637  0.03784740626429082  1.0000
  C   C26       1.0  0.8514466642974201  0.24574713369926823  0.9621519875902317  1.0000
  C   C27       1.0  0.9983150030604904  0.3691564811514851  0.12144574334983822  1.0000
  C   C28       1.0  0.0016845777987697463  0.6308445687941384  0.8785543007152011  1.0000
  C   C29       1.0  0.9324433065106774  0.3331028493399372  0.19115967195990893  1.0000
  C   C30       1.0  0.06755492642811593  0.6668975531426824  0.808840816874536  1.0000
  C   C31       1.0  0.8246419465379945  0.3349341296430381  0.1907249639785106  1.0000
  C   C32       1.0  0.17535790127113415  0.6650662774809817  0.8092751769242734  1.0000
  C   C33       1.0  0.8387503274679492  0.4084786827182185  0.058688258500957456  1.0000
  C   C34       1.0  0.161249252623584  0.5915223673392161  0.941312358646513  1.0000
  C   C35       1.0  0.948965199470692  0.40581088191882486  0.053782821564695354  1.0000
  C   C36       1.0  0.05103464833842957  0.594189525205195  0.9462173193380888  1.0000
  C   C37       1.0  0.4613994468722212  0.3918897211443735  0.8049805559159675  1.0000
  C   C38       1.0  0.538600667886776  0.6081100431580353  0.1950196818245614  1.0000
  C   C39       1.0  0.3711680962859846  0.4474206934670518  0.7698400184404972  1.0000
  C   C40       1.0  0.6288320192407326  0.5525790707235388  0.23015964621759358  1.0000
  C   C41       1.0  0.3708163081485195  0.445236873382676  0.6908172422973349  1.0000
  C   C42       1.0  0.6291835396606018  0.5547635337413367  0.3091828986054494  1.0000
  C   C43       1.0  0.4621123441383048  0.3893940035329777  0.6437342281195979  1.0000
  C   C44       1.0  0.5378875036708164  0.610606403591035  0.3562659127831863  1.0000
  C   C45       1.0  0.5524153748483299  0.3339058825023073  0.6796953328810813  1.0000
  C   C46       1.0  0.4475847399106669  0.6660938818001014  0.32030490485944074  1.0000
  C   C47       1.0  0.5514691347672525  0.3341519982508956  0.7595166074782537  1.0000
  C   C48       1.0  0.44853071304186887  0.665848408873117  0.2404835334245304  1.0000
  C   C49       1.0  0.8198985222135918  0.08076439416505822  0.17041953741120594  1.0000
  C   C50       1.0  0.1801018587275464  0.9192347274275575  0.8295813702494922  1.0000
  C   C51       1.0  0.9069899685945872  0.0029012270839033003  0.1680890254318397  1.0000
  C   C52       1.0  0.0930098718612554  0.9970972493663979  0.8319121530324337  1.0000
  C   C53       1.0  0.914641397027914  0.9447147433046154  0.11976713738018659  1.0000
  C   C54       1.0  0.08535736904289591  0.0552843736466002  0.880234118212172  1.0000
  C   C55       1.0  0.8308411964381933  0.9665549303852643  0.07507799217405149  1.0000
  C   C56       1.0  0.1691575696326169  0.0334441865659514  0.9249232634183071  1.0000
  C   C57       1.0  0.7426654155072255  0.04385504105150769  0.07826291655704404  1.0000
  C   C58       1.0  0.25733389104888  0.9561447210420154  0.9217380682317395  1.0000
  C   C59       1.0  0.7370219913564  0.1020942410805574  0.1253799754708068  1.0000
  C   C60       1.0  0.26297731596743307  0.8979055209011475  0.8746204362355524  1.0000
  C   C61       1.0  0.47082934027844203  0.39561512795234677  0.30847430538835124  1.0000
  C   C62       1.0  0.5291705075306865  0.604385279171673  0.6915258355144331  1.0000
  C   C63       1.0  0.6491633764407683  0.1888085593416875  0.12326072194281318  1.0000
  C   C64       1.0  0.35083673908594193  0.811191204848903  0.8767389427152849  1.0000
  C   C65       1.0  0.2700236472302817  0.6170512516503237  0.1055229626092924  1.0000
  C   C66       1.0  0.7299772757316062  0.3829485148609705  0.8944765280829681  1.0000
  C   C67       1.0  0.0655725918145507  0.4518473722156243  0.2421147521732222  1.0000
  C   C68       1.0  0.9344275229444463  0.5481523920867843  0.7578854855672996  1.0000
  C   C69       1.0  0.14011606027562348  0.4026305683830458  0.175402650721736  1.0000
  C   C70       1.0  0.8598843280188007  0.5973704838832746  0.8245972193774729  1.0000
  C   C71       1.0  0.11153045779844463  0.36884028273805564  0.1209314907729606  1.0000
  C   C72       1.0  0.8884693892429638  0.631160124497775  0.8790692232122549  1.0000
  C   C73       1.0  0.21554271422813542  0.33381575137870106  0.06766005180836739  1.0000
  C   C74       1.0  0.7844571335809858  0.6661846557453117  0.9323400890944169  1.0000
  C   C75       1.0  0.23787568979901855  0.2888170668908002  0.9982430889193022  1.0000
  C   C76       1.0  0.7621233505749389  0.7111833379125156  0.0017572259493122532  1.0000
  N   N1        1.0  0.2532243829958887  0.3885747999081558  0.1551511065662083  1.0000
  N   N2        1.0  0.7467757309953881  0.611424964506064  0.844849704256745  1.0000
  N   N3        1.0  0.2995680299676877  0.34504167920587747  0.09044339643563863  1.0000
  N   N4        1.0  0.7004318178414338  0.6549587279181422  0.9095567444671455  1.0000
  N   N5        1.0  0.7773280294238847  0.3731783616440723  0.12601806856076064  1.0000
  N   N6        1.0  0.22267101095007283  0.626822043159244  0.8739822463078535  1.0000
  O   O1        1.0  0.48608674867649887  0.40849670122805287  0.09216812885897949  1.0000
  O   O2        1.0  0.5139133660824983  0.5915030630743559  0.9078321088815424  1.0000
  O   O3        1.0  0.4178374856611314  0.46377207786593294  0.9180828243902323  1.0000
  O   O4        1.0  0.5821623629157173  0.5362283291462759  0.08191674343012068  1.0000
  O   O5        1.0  0.5065170398639722  0.32056862361493893  0.9311472676751718  1.0000
  O   O6        1.0  0.4934828087128765  0.6794317833972698  0.06885230014518118  1.0000
  O   O7        1.0  0.567153189656267  0.38434484732933066  0.2588562614786694  1.0000
  O   O8        1.0  0.43284665892058166  0.6156555596828709  0.7411433063416835  1.0000
  O   O9        1.0  0.37591690287872137  0.4102569581220479  0.2902520815614692  1.0000
  O   O10       1.0  0.6240829456981204  0.5897434488901537  0.7097474862588837  1.0000
  O   O11       1.0  0.5708352604484617  0.20249929998617935  0.08600904837825848  1.0000
  O   O12       1.0  0.42916566174569937  0.7975004666369329  0.9139910153964335  1.0000
  O   O13       1.0  0.6608860533613878  0.24268245976919192  0.15702341874700923  1.0000
  O   O14       1.0  0.3391148696005003  0.7573173067421025  0.8429760719452514  1.0000
  O   O15       1.0  0.2808650115242414  0.5694919560660024  0.1746563213119358  1.0000
  O   O16       1.0  0.7191359106699268  0.4305078105571027  0.8253437424627632  1.0000
  O   O17       1.0  0.3247684285462356  0.5939318214046805  0.03737631559332748  1.0000
  O   O18       1.0  0.6752324944156528  0.4060679451066136  0.9626231750989401  1.0000
