data_image0
_chemical_formula_structural       Cd2H36C36I4N12
_chemical_formula_sum              "Cd2 H36 C36 I4 N12"
_cell_length_a       8.172877494568938
_cell_length_b       8.884043057331086
_cell_length_c       16.449505582016954
_cell_angle_alpha    89.99995400560611
_cell_angle_beta     89.99987758589229
_cell_angle_gamma    115.57574316717178

_space_group_name_H-M_alt    "P 1"
_space_group_IT_number       1

loop_
  _space_group_symop_operation_xyz
  'x, y, z'

loop_
  _atom_site_type_symbol
  _atom_site_label
  _atom_site_symmetry_multiplicity
  _atom_site_fract_x
  _atom_site_fract_y
  _atom_site_fract_z
  _atom_site_occupancy
  Cd  Cd1       1.0  0.5000010030005912  0.5000009338807346  8.445535258000002e-07  1.0000
  Cd  Cd2       1.0  0.4999993763022631  0.9999987493803104  0.4999987484128212  1.0000
  H   H1        1.0  0.9677336176889355  0.17203307706133592  0.5564331901757456  1.0000
  H   H2        1.0  0.032267862416553356  0.32796624128288704  0.05643139862507241  1.0000
  H   H3        1.0  0.03226902152326275  0.8279642677342313  0.4435693754324106  1.0000
  H   H4        1.0  0.9677347074377138  0.6720361095369968  0.9435693432190677  1.0000
  H   H5        1.0  0.6066043219096358  0.3956952783725783  0.5709705532588958  1.0000
  H   H6        1.0  0.39339706916722866  0.10430398187259023  0.0709708973124279  1.0000
  H   H7        1.0  0.39339469162606383  0.6042995852537986  0.4290283648256691  1.0000
  H   H8        1.0  0.606605500694485  0.8956983689521608  0.9290274128476883  1.0000
  H   H9        1.0  0.9957419797451127  0.4340455189269862  0.7626703229738468  1.0000
  H   H10       1.0  0.004256355227170211  0.06595674067877161  0.26266745331550123  1.0000
  H   H11       1.0  0.004259335298677099  0.5659593421775568  0.23733224263347105  1.0000
  H   H12       1.0  0.9957438090681595  0.9340431216903299  0.7373314647674221  1.0000
  H   H13       1.0  0.9450660085094782  0.6202500505640103  0.6296195044855893  1.0000
  H   H14       1.0  0.054929951364229734  0.8797466335339978  0.12961705939102336  1.0000
  H   H15       1.0  0.0549293446493522  0.379744834891369  0.37038184528496754  1.0000
  H   H16       1.0  0.9450696202178506  0.12025198097376942  0.8703794270084445  1.0000
  H   H17       1.0  0.265213655052264  0.6174251779471119  0.600184943011044  1.0000
  H   H18       1.0  0.7347836705034468  0.8825741195062379  0.10018480598206031  1.0000
  H   H19       1.0  0.7347846963936393  0.38257344383011127  0.39981579883613  1.0000
  H   H20       1.0  0.2652164937881595  0.11742574286043353  0.899815327942875  1.0000
  H   H21       1.0  0.26289982850067184  0.42262330435995216  0.57854117265304  1.0000
  H   H22       1.0  0.737100296109027  0.07737593291959402  0.0785362951541941  1.0000
  H   H23       1.0  0.7370991503383807  0.5773740622670475  0.4214626087990895  1.0000
  H   H24       1.0  0.2628986827523578  0.9226214337219788  0.9214601912458491  1.0000
  H   H25       1.0  0.11043154266013039  0.43560188400523725  0.9025929368098959  1.0000
  H   H26       1.0  0.8895623097830667  0.0643973352591871  0.4025903325310551  1.0000
  H   H27       1.0  0.8895667394185482  0.564401743790235  0.0974090208783025  1.0000
  H   H28       1.0  0.11043485622889912  0.9355987907905076  0.5974079776332389  1.0000
  H   H29       1.0  0.38933279716528807  0.5093804625084105  0.18213403580574553  1.0000
  H   H30       1.0  0.6106694997804214  0.9906197262152291  0.6821318246244843  1.0000
  H   H31       1.0  0.610664926870726  0.49061941440810136  0.8178691377255377  1.0000
  H   H32       1.0  0.38933125723745826  0.009381384021281702  0.3178664855368609  1.0000
  H   H33       1.0  0.5225190240997932  0.5065815301027141  0.6736624159335706  1.0000
  H   H34       1.0  0.4774790369500226  0.9934199694525959  0.17366068603028856  1.0000
  H   H35       1.0  0.4774793620260099  0.4934145886629509  0.3263389338351033  1.0000
  H   H36       1.0  0.5225228708274943  0.006586139526639599  0.8263376241294085  1.0000
  C   C1        1.0  0.9114213738395733  0.26014477031142047  0.5693180880706381  1.0000
  C   C2        1.0  0.08858002736492677  0.2398544965429253  0.0693156643009516  1.0000
  C   C3        1.0  0.08858126537448652  0.7398525744853545  0.4306838696165088  1.0000
  C   C4        1.0  0.9114207296510913  0.7601466136923706  0.9306832537813962  1.0000
  C   C5        1.0  0.7308369016872049  0.3815066599017883  0.5790254427851381  1.0000
  C   C6        1.0  0.26916140709862896  0.1184913348447836  0.0790253065557209  1.0000
  C   C7        1.0  0.26916514481174403  0.6184894370324372  0.42097469113956276  1.0000
  C   C8        1.0  0.7308350968291324  0.8815085493593957  0.9209730036081611  1.0000
  C   C9        1.0  0.13427371116200257  0.449155272132579  0.771402352040724  1.0000
  C   C10       1.0  0.8657239429348211  0.050848207721450905  0.2713997789412162  1.0000
  C   C11       1.0  0.8657251983172642  0.5508471005175295  0.22860021356839877  1.0000
  C   C12       1.0  0.13427559395805858  0.9491529097917993  0.7285991391417852  1.0000
  C   C13       1.0  0.2512772498032305  0.47155335646122154  0.7057492475055867  1.0000
  C   C14       1.0  0.7487202136126071  0.028449137893126412  0.20574620138626196  1.0000
  C   C15       1.0  0.7487198468340568  0.528447775601869  0.2942527101837626  1.0000
  C   C16       1.0  0.2512793232839883  0.9715519796225536  0.7942515008547277  1.0000
  C   C17       1.0  0.8971726400107016  0.49356355060923823  0.6074425978957835  1.0000
  C   C18       1.0  0.10282490204005511  0.006433082711353701  0.10744147055919483  1.0000
  C   C19       1.0  0.10282212042929473  0.5064300869811617  0.39255814395433936  1.0000
  C   C20       1.0  0.8971764823821361  0.9935667723822237  0.8925562316810629  1.0000
  C   C21       1.0  0.20336232551981234  0.48529191043209613  0.6184882890596982  1.0000
  C   C22       1.0  0.7966381124983428  0.0147109180809366  0.11848580502809372  1.0000
  C   C23       1.0  0.7966372113637591  0.514709207075079  0.3815136686283439  1.0000
  C   C24       1.0  0.2033632719219867  0.9852889370114255  0.8815125051331665  1.0000
  C   C25       1.0  0.19720755794967465  0.44775732199520496  0.8500812790266182  1.0000
  C   C26       1.0  0.8027908344640409  0.052245836159663404  0.3500793808844307  1.0000
  C   C27       1.0  0.8027949772209766  0.5522475318338139  0.14992007073803393  1.0000
  C   C28       1.0  0.19721114267511558  0.9477552667976782  0.6499195371972634  1.0000
  C   C29       1.0  0.47664338655226873  0.48139639841413384  0.8026049230432477  1.0000
  C   C30       1.0  0.5233540764726996  0.0186069567486129  0.3026015151614843  1.0000
  C   C31       1.0  0.5233561503275797  0.5186047190906109  0.1973982504868061  1.0000
  C   C32       1.0  0.4766460531445917  0.9813954086332615  0.6973961870789296  1.0000
  C   C33       1.0  0.42590668057111003  0.4873755591034055  0.7226110554261  1.0000
  C   C34       1.0  0.5740912723048766  0.012628115730485905  0.22260941925610922  1.0000
  C   C35       1.0  0.5740928563124612  0.5126255584037692  0.27739090226193513  1.0000
  C   C36       1.0  0.42591004275194444  0.9873767453825623  0.7773888909041633  1.0000
  I   I1        1.0  0.7014110037577198  0.299946126277142  0.952447033177606  1.0000
  I   I2        1.0  0.2985922696912129  0.20005533854025268  0.45244683182428264  1.0000
  I   I3        1.0  0.2985909733777207  0.7000549766777696  0.0475531007461001  1.0000
  I   I4        1.0  0.7014115549735395  0.7999445019949862  0.5475520862566796  1.0000
  N   N1        1.0  0.7417028197878821  0.23690499276835203  0.5554363078127835  1.0000
  N   N2        1.0  0.2582986664191296  0.2630943295576529  0.05543551592669621  1.0000
  N   N3        1.0  0.25829859930675525  0.763092359308807  0.44456443403299784  1.0000
  N   N4        1.0  0.7417039034388608  0.7369080212646607  0.944564010075432  1.0000
  N   N5        1.0  0.010309409168968475  0.41478572819737997  0.6007231316519397  1.0000
  N   N6        1.0  0.9896893594758822  0.0852134277113805  0.10072041125549452  1.0000
  N   N7        1.0  0.9896901970762572  0.5852103832879012  0.3992794339580997  1.0000
  N   N8        1.0  0.010310177420720374  0.9147876898042995  0.8992772909854879  1.0000
  N   N9        1.0  0.36509943788644256  0.46313792638525103  0.8657698031132384  1.0000
  N   N10       1.0  0.6348976383358647  0.03686517635451739  0.36576687581789  1.0000
  N   N11       1.0  0.6349012844366587  0.5368656868530978  0.1342327624946549  1.0000
  N   N12       1.0  0.3651013058400425  0.9631346932949686  0.6342308264236751  1.0000
