data_image0
_chemical_formula_structural       U2H32C40N4O12
_chemical_formula_sum              "U2 H32 C40 N4 O12"
_cell_length_a       9.854318753726474
_cell_length_b       10.4348206682537
_cell_length_c       11.754518578177148
_cell_angle_alpha    116.15730456564542
_cell_angle_beta     91.45718721129606
_cell_angle_gamma    115.96530857248706

_space_group_name_H-M_alt    "P 1"
_space_group_IT_number       1

loop_
  _space_group_symop_operation_xyz
  'x, y, z'

loop_
  _atom_site_type_symbol
  _atom_site_label
  _atom_site_symmetry_multiplicity
  _atom_site_fract_x
  _atom_site_fract_y
  _atom_site_fract_z
  _atom_site_occupancy
  U   U1        1.0  0.4640721254975801  0.7927960109571969  0.19547303997040177  1.0000
  U   U2        1.0  0.5359255037044122  0.2071936587772214  0.8045202308034191  1.0000
  H   H1        1.0  0.41663754366842193  0.7658523320787508  0.892889646383274  1.0000
  H   H2        1.0  0.5833654598045398  0.23414847579955733  0.10711056629558158  1.0000
  H   H3        1.0  0.12990469088324372  0.5825601747374165  0.570094827419787  1.0000
  H   H4        1.0  0.8700987273118129  0.41743938955597326  0.42990491767555017  1.0000
  H   H5        1.0  0.2816860968327575  0.5570596882470937  0.6241432652045517  1.0000
  H   H6        1.0  0.7183157159310413  0.44293865346879346  0.37585597554308225  1.0000
  H   H7        1.0  0.31977099987839347  0.7559222190399454  0.6636424645509676  1.0000
  H   H8        1.0  0.6802318283219863  0.24407612564323233  0.3363576506502709  1.0000
  H   H9        1.0  0.9344273593217879  0.5566193060103118  0.696205661922079  1.0000
  H   H10       1.0  0.06557504343668802  0.44338025531578756  0.30379320871965376  1.0000
  H   H11       1.0  0.8711240265290742  0.5941999000829626  0.9059099135385364  1.0000
  H   H12       1.0  0.12887755214512003  0.40580216188396184  0.09409074834174896  1.0000
  H   H13       1.0  0.8328018359748199  0.6461487276133938  0.08551529129253768  1.0000
  H   H14       1.0  0.1671999126120554  0.35385578407765916  0.9144846119938563  1.0000
  H   H15       1.0  0.8042427113754799  0.7140716980483292  0.30875928468893216  1.0000
  H   H16       1.0  0.19575767122964288  0.28592788428517213  0.6912395491886227  1.0000
  H   H17       1.0  0.14743814349581197  0.8829769460058684  0.5925153294301919  1.0000
  H   H18       1.0  0.8525548233873154  0.11701779693429158  0.40748403688901647  1.0000
  H   H19       1.0  0.9438551389343959  0.7306862540581777  0.5303348364049896  1.0000
  H   H20       1.0  0.056140028734581904  0.269310944540706  0.46966552022752944  1.0000
  H   H21       1.0  0.005367790544845406  0.9359980368799442  0.5704003542723725  1.0000
  H   H22       1.0  0.9946267817695401  0.06399792863772549  0.4295995163945391  1.0000
  H   H23       1.0  0.29019223518274373  0.8645563195721451  0.4331019662590378  1.0000
  H   H24       1.0  0.7098065580708449  0.13544208059683877  0.5668989314853548  1.0000
  H   H25       1.0  0.27018864068727305  0.36699561602076597  0.31305147708479086  1.0000
  H   H26       1.0  0.7298101418464994  0.6330027572062207  0.6869477085165767  1.0000
  H   H27       1.0  0.7137389108269544  0.7865439691735858  0.5761913064573958  1.0000
  H   H28       1.0  0.2862590476225435  0.2134569046942261  0.4238096703825248  1.0000
  H   H29       1.0  0.026918025911967892  0.015202122728609898  0.217024541007703  1.0000
  H   H30       1.0  0.9730787364684517  0.9847962715057862  0.7829746078294872  1.0000
  H   H31       1.0  0.7375666229630722  0.9050314044524368  0.8705962226419427  1.0000
  H   H32       1.0  0.2624307294120243  0.094968209392178  0.1294025560893459  1.0000
  C   C1        1.0  0.29401856111864794  0.7255682789811218  0.8917845602257656  1.0000
  C   C2        1.0  0.705983426917733  0.27443252592988904  0.10821477799948545  1.0000
  C   C3        1.0  0.18243255066937544  0.6592978333258871  0.7761628408891281  1.0000
  C   C4        1.0  0.8175688420124204  0.34070173850391683  0.22383601137051548  1.0000
  C   C5        1.0  0.2304604143812554  0.6377641976533539  0.6520512502236568  1.0000
  C   C6        1.0  0.7695419937371283  0.3622353771437403  0.34794847648959143  1.0000
  C   C7        1.0  0.02800635356670264  0.6123514251272795  0.7830281782967031  1.0000
  C   C8        1.0  0.9719966445463514  0.3876493692800338  0.21697117831064353  1.0000
  C   C9        1.0  0.9916850049611128  0.6322403796542703  0.9009908265828273  1.0000
  C   C10       1.0  0.008316988435176111  0.3677604387277428  0.09900936771393985  1.0000
  C   C11       1.0  0.11001630340420843  0.6977408526987363  0.011546510855708875  1.0000
  C   C12       1.0  0.8899858706245707  0.3022624423494022  0.9884546369901912  1.0000
  C   C13       1.0  0.07949729228619164  0.7224793324262607  0.13930099344013055  1.0000
  C   C14       1.0  0.9205038609460985  0.27752394618358517  0.860698423880656  1.0000
  C   C15       1.0  0.9334555420903499  0.6949029503652752  0.1633888229880397  1.0000
  C   C16       1.0  0.06654603122393611  0.30509909813065417  0.8366109828207369  1.0000
  C   C17       1.0  0.9167237445875855  0.731010946456621  0.2890299731046752  1.0000
  C   C18       1.0  0.08327462322409931  0.26898867035528445  0.7109696800802111  1.0000
  C   C19       1.0  0.03556541585112434  0.8379145859770106  0.5282732324672635  1.0000
  C   C20       1.0  0.9644279657540978  0.162078913378231  0.47172566626842627  1.0000
  C   C21       1.0  0.04574890677294967  0.7948452673701424  0.3905255618973269  1.0000
  C   C22       1.0  0.9542456655414356  0.20515069814752712  0.6094743087695845  1.0000
  C   C23       1.0  0.18663803978853374  0.8167464988498879  0.35807682667608265  1.0000
  C   C24       1.0  0.81335914803379  0.1832506787415866  0.6419235667206138  1.0000
  C   C25       1.0  0.48236476276191104  0.6734987100574727  0.3704557974481587  1.0000
  C   C26       1.0  0.5176367998325732  0.32650331149646666  0.6295422962175863  1.0000
  C   C27       1.0  0.4913391616341727  0.5851375087748636  0.43845275512591525  1.0000
  C   C28       1.0  0.5086594295472935  0.41485836084401473  0.5615437647832946  1.0000
  C   C29       1.0  0.3700866820443806  0.42413080685057747  0.3952496108489142  1.0000
  C   C30       1.0  0.6299126797642529  0.5758687590446456  0.6047474925035201  1.0000
  C   C31       1.0  0.6212574735896225  0.6609734551155525  0.5436094395965297  1.0000
  C   C32       1.0  0.3787408781423379  0.33902612128336773  0.4563876453738159  1.0000
  C   C33       1.0  0.7303757439868973  0.9045487934200622  0.10031669604720139  1.0000
  C   C34       1.0  0.2696236392613613  0.0954508263591407  0.8996838315912896  1.0000
  C   C35       1.0  0.8692651543046993  0.9551247804477541  0.04862119323964716  1.0000
  C   C36       1.0  0.1307350049306351  0.044878549078781305  0.951380773913584  1.0000
  C   C37       1.0  0.0169337162801497  0.009635290201799799  0.12231826392281418  1.0000
  C   C38       1.0  0.9830654275186035  0.9903680363574452  0.8776828287768125  1.0000
  C   C39       1.0  0.8527981493517487  0.9461180230342021  0.9261440978696382  1.0000
  C   C40       1.0  0.1472009944470045  0.05388530352504261  0.07385699482999539  1.0000
  N   N1        1.0  0.2606833632091749  0.7441513843490027  0.006032641326157671  1.0000
  N   N2        1.0  0.7393192201817911  0.25585065364322196  0.9939671828647078  1.0000
  N   N3        1.0  0.203016574189661  0.7797504509327454  0.23633109445627543  1.0000
  N   N4        1.0  0.7969834044131829  0.22025040192766446  0.7636699191478229  1.0000
  O   O1        1.0  0.39963306680356675  0.5829330078176581  0.06958532606832782  1.0000
  O   O2        1.0  0.6003727703291729  0.4170715830975523  0.9304223553900498  1.0000
  O   O3        1.0  0.5305623441620639  0.004236140295496698  0.3209922156094364  1.0000
  O   O4        1.0  0.46944061121369873  0.9957708779709689  0.6790112278227196  1.0000
  O   O5        1.0  0.60608286707442  0.899314696737143  0.05763284070584965  1.0000
  O   O6        1.0  0.3939159261791616  0.10068370343184088  0.94236805703855  1.0000
  O   O7        1.0  0.7344235611641778  0.8646844664026645  0.18820161917393807  1.0000
  O   O8        1.0  0.2655784375920192  0.1353163654503433  0.8117994311943448  1.0000
  O   O9        1.0  0.3487381347117235  0.640169492950335  0.3153138152155249  1.0000
  O   O10       1.0  0.6512634171629443  0.3598325016616144  0.6846825663071952  1.0000
  O   O11       1.0  0.6078199664675452  0.7783621554689334  0.36314209677422576  1.0000
  O   O12       1.0  0.3921872044875059  0.22164728397785177  0.6368615176639024  1.0000
