data_image0
_chemical_formula_structural       Mn2H38C44N4O14
_chemical_formula_sum              "Mn2 H38 C44 N4 O14"
_cell_length_a       10.122285257258511
_cell_length_b       9.913332321898041
_cell_length_c       12.767790280592507
_cell_angle_alpha    100.55350819469176
_cell_angle_beta     105.95409015448597
_cell_angle_gamma    115.10868700201753

_space_group_name_H-M_alt    "P 1"
_space_group_IT_number       1

loop_
  _space_group_symop_operation_xyz
  'x, y, z'

loop_
  _atom_site_type_symbol
  _atom_site_label
  _atom_site_symmetry_multiplicity
  _atom_site_fract_x
  _atom_site_fract_y
  _atom_site_fract_z
  _atom_site_occupancy
  Mn  Mn1       1.0  0.9122622351164509  0.7459981539498128  0.02886584086576247  1.0000
  Mn  Mn2       1.0  0.0877321841277379  0.25400367876599717  0.9711349741608044  1.0000
  H   H1        1.0  0.6449330701665089  0.48228996868331797  0.9297705759731084  1.0000
  H   H2        1.0  0.355065439563802  0.5177117984627628  0.07022878560055552  1.0000
  H   H3        1.0  0.7616893056342916  0.4112437637555572  0.9397212642542525  1.0000
  H   H4        1.0  0.238308612446147  0.5887568171954384  0.06027781919780039  1.0000
  H   H5        1.0  0.1252652446285722  0.057948500386203174  0.1392310073893341  1.0000
  H   H6        1.0  0.8747304701099239  0.94204973194347  0.8607680805365232  1.0000
  H   H7        1.0  0.963711297636905  0.042835467946218786  0.12036973851046877  1.0000
  H   H8        1.0  0.03628442741889883  0.9571627938891041  0.8796301388306984  1.0000
  H   H9        1.0  0.42537832759627026  0.7344666113424194  0.021265471597480667  1.0000
  H   H10       1.0  0.5746163464653974  0.2655315857447888  0.9787325982148186  1.0000
  H   H11       1.0  0.18876082055795965  0.9109854540114596  0.7971722822797671  1.0000
  H   H12       1.0  0.8112351593153235  0.08900917219526858  0.20282484984713275  1.0000
  H   H13       1.0  0.6054436153653667  0.9046083211199086  0.7780414168847327  1.0000
  H   H14       1.0  0.3945541497748408  0.09538989317772459  0.22195733902233164  1.0000
  H   H15       1.0  0.5928067071178732  0.021699075715346797  0.652150271795861  1.0000
  H   H16       1.0  0.40719048700708516  0.9782980113985142  0.347849784820198  1.0000
  H   H17       1.0  0.6302556628543953  0.18706212560379498  0.7632313213244614  1.0000
  H   H18       1.0  0.3697452243162686  0.8129361944212332  0.23677048892329106  1.0000
  H   H19       1.0  0.1056053651683371  0.06798393479525089  0.4336947491381692  1.0000
  H   H20       1.0  0.8943993783055787  0.9320180142999559  0.5663099317015677  1.0000
  H   H21       1.0  0.25664275155300936  0.24985977592235284  0.34419975967595906  1.0000
  H   H22       1.0  0.7433584621327397  0.7501433364207057  0.655804284492376  1.0000
  H   H23       1.0  0.5478950060272041  0.3689982628499209  0.41223652951874357  1.0000
  H   H24       1.0  0.45210734968905086  0.6310071038606819  0.587764913231595  1.0000
  H   H25       1.0  0.6968939906570455  0.3040190076830242  0.5671661516428725  1.0000
  H   H26       1.0  0.30310656947498416  0.6959827414310167  0.4328328779119984  1.0000
  H   H27       1.0  0.8264246130494044  0.7832126793562464  0.23763445398498806  1.0000
  H   H28       1.0  0.17358304740463376  0.21679508269176032  0.7623684598016137  1.0000
  H   H29       1.0  0.811223895206929  0.6759863177053942  0.3989835453200356  1.0000
  H   H30       1.0  0.18878258194737188  0.32401907195244917  0.6010188122233301  1.0000
  H   H31       1.0  0.05164164023609894  0.4380775640609825  0.2968741083522559  1.0000
  H   H32       1.0  0.9483505039685483  0.5619134920868659  0.7031217320132725  1.0000
  H   H33       1.0  0.06273149110420201  0.5605608565938309  0.14438425924970485  1.0000
  H   H34       1.0  0.937264499086389  0.4394337991185464  0.8556136622925051  1.0000
  H   H35       1.0  0.8474296440009041  0.5020621397997826  0.49592695739340786  1.0000
  H   H36       1.0  0.152570498056093  0.49794084878384826  0.5040737004154464  1.0000
  H   H37       1.0  0.8557130826258543  0.3424271691019242  0.41380777894099197  1.0000
  H   H38       1.0  0.14428544773907245  0.6575746570554697  0.586193161463292  1.0000
  C   C1        1.0  0.17259046686839932  0.7804606672073002  0.9671087658410183  1.0000
  C   C2        1.0  0.8274066963046282  0.21953633138959106  0.032888922529124814  1.0000
  C   C3        1.0  0.6526428975020693  0.7738426285359947  0.9431836597767357  1.0000
  C   C4        1.0  0.34735601998595905  0.22615786963484644  0.056813284127649355  1.0000
  C   C5        1.0  0.4128972307965595  0.7815811586281637  0.9511253338250323  1.0000
  C   C6        1.0  0.5871006362208958  0.2184110533875127  0.048870349322783065  1.0000
  C   C7        1.0  0.29168029718623956  0.8159960452681359  0.9133801114477008  1.0000
  C   C8        1.0  0.7083187737655764  0.18399859814901728  0.08661770677397126  1.0000
  C   C9        1.0  0.28277461354421957  0.8837720399784172  0.8264881150650963  1.0000
  C   C10       1.0  0.7172223966885696  0.11622259196511918  0.17350924576005866  1.0000
  C   C11       1.0  0.3966256097898081  0.9180517156297509  0.7776792967556572  1.0000
  C   C12       1.0  0.6033721450330916  0.0819464691622258  0.22231866973610437  1.0000
  C   C13       1.0  0.5164597349525549  0.8804097393555137  0.8149507525940647  1.0000
  C   C14       1.0  0.4835364184955822  0.11958731251588257  0.18504828590842948  1.0000
  C   C15       1.0  0.5239964782796347  0.8118342521933852  0.9011123532661427  1.0000
  C   C16       1.0  0.476001531360744  0.1881602969699897  0.09888286801135138  1.0000
  C   C17       1.0  0.2614604602948488  0.9865088508289827  0.6183119871341913  1.0000
  C   C18       1.0  0.7385379377644625  0.013490667686355096  0.38169020455572406  1.0000
  C   C19       1.0  0.541022598861673  0.09214605922836937  0.6802500825028232  1.0000
  C   C20       1.0  0.458978879958863  0.907853446991744  0.31975200586654734  1.0000
  C   C21       1.0  0.48421641548218014  0.15211798076857969  0.5880553431991158  1.0000
  C   C22       1.0  0.515787695072639  0.8478826641089298  0.41194590185776997  1.0000
  C   C23       1.0  0.3196236556090212  0.08725728990534516  0.550631024236928  1.0000
  C   C24       1.0  0.6803816588801509  0.9127457863736336  0.4493723558938142  1.0000
  C   C25       1.0  0.23397015325420512  0.11963890659136205  0.4625554833142471  1.0000
  C   C26       1.0  0.7660342941329928  0.8803665601098343  0.5374487850785242  1.0000
  C   C27       1.0  0.3191200914222065  0.2225804072063652  0.4138204539493485  1.0000
  C   C28       1.0  0.6808831520306384  0.7774226280933404  0.5861816793695737  1.0000
  C   C29       1.0  0.48456774568263217  0.28946342449731316  0.4521761432013135  1.0000
  C   C30       1.0  0.515432835084013  0.7105383836280408  0.5478244651841776  1.0000
  C   C31       1.0  0.5688734093015312  0.25396805566715125  0.5390648250433541  1.0000
  C   C32       1.0  0.4311280179324654  0.7460313030246865  0.4609333162494876  1.0000
  C   C33       1.0  0.8754867868465439  0.7067592146537789  0.25454570035720536  1.0000
  C   C34       1.0  0.1245174869658072  0.29324382638273505  0.7454566616599719  1.0000
  C   C35       1.0  0.8663975920355043  0.645352356703256  0.3435661759415608  1.0000
  C   C36       1.0  0.1336068140824622  0.3546529919753141  0.6564349347899919  1.0000
  C   C37       1.0  0.9282823455144681  0.5453454207144971  0.36130517494655107  1.0000
  C   C38       1.0  0.07171985726155579  0.4546575793427508  0.638695940258806  1.0000
  C   C39       1.0  0.0017337143359767396  0.5157337050038534  0.28869593165335056  1.0000
  C   C40       1.0  0.9982656831309241  0.4842657307313302  0.711304120488897  1.0000
  C   C41       1.0  0.007401563963455289  0.5824478261439836  0.2023387905481542  1.0000
  C   C42       1.0  0.9925988638629517  0.41755161532800855  0.7976614902923485  1.0000
  C   C43       1.0  0.9175385394799916  0.47232062448280476  0.45393778935921586  1.0000
  C   C44       1.0  0.08245998056762724  0.5276811721689256  0.5460623616297581  1.0000
  N   N1        1.0  0.9434867513560974  0.6749556257819903  0.18356322873699318  1.0000
  N   N2        1.0  0.056515890129567474  0.32504619381698047  0.8164378370450008  1.0000
  N   N3        1.0  0.39497626542024705  0.9929733690362703  0.6941179983570291  1.0000
  N   N4        1.0  0.605027998074803  0.007029642494593696  0.3058835742448449  1.0000
  O   O1        1.0  0.06590081726672975  0.8195387644043561  0.9362976200778731  1.0000
  O   O2        1.0  0.9340969581907859  0.18045947939893384  0.06370192524450158  1.0000
  O   O3        1.0  0.7395290384626704  0.4942207189439  0.9170843997464498  1.0000
  O   O4        1.0  0.2604704913098386  0.5057810244333323  0.08291440111016606  1.0000
  O   O5        1.0  0.1758729467658995  0.7111682187843229  0.0413536302011366  1.0000
  O   O6        1.0  0.8241218905533144  0.2888323744619043  0.9586455565714541  1.0000
  O   O7        1.0  0.023444579868517324  0.9885804016760033  0.1448061074137215  1.0000
  O   O8        1.0  0.976551716202543  0.011418987343098808  0.8551924692184513  1.0000
  O   O9        1.0  0.6625928438845747  0.7199847447183315  0.026379562753987774  1.0000
  O   O10       1.0  0.3374035844920939  0.2800169519428194  0.9736177625925533  1.0000
  O   O11       1.0  0.7518322608667132  0.7968371912422254  0.8945077914582311  1.0000
  O   O12       1.0  0.24816426938721028  0.20315850313696152  0.10548646112906104  1.0000
  O   O13       1.0  0.12375915635670494  0.9099802409473765  0.6108691566184772  1.0000
  O   O14       1.0  0.8762531055142516  0.09002648161222027  0.3891377801990145  1.0000
