data_image0
_chemical_formula_structural       Ag4H36C48S4N12O16F12
_chemical_formula_sum              "Ag4 H36 C48 S4 N12 O16 F12"
_cell_length_a       10.485603647
_cell_length_b       11.140652414606413
_cell_length_c       13.2918
_cell_angle_alpha    91.06777864741477
_cell_angle_beta     90.0
_cell_angle_gamma    90.0

_space_group_name_H-M_alt    "P 1"
_space_group_IT_number       1

loop_
  _space_group_symop_operation_xyz
  'x, y, z'

loop_
  _atom_site_type_symbol
  _atom_site_label
  _atom_site_symmetry_multiplicity
  _atom_site_fract_x
  _atom_site_fract_y
  _atom_site_fract_z
  _atom_site_occupancy
  Ag  Ag1       1.0  0.9224733573414666  0.4015327494460053  0.9639493079227035  1.0000
  Ag  Ag2       1.0  0.4224725775580325  0.09846465416001142  0.5360456860561271  1.0000
  Ag  Ag3       1.0  0.0775282022254018  0.598471035459994  0.0360513530695457  1.0000
  Ag  Ag4       1.0  0.5775251672546844  0.9015319485908151  0.46394959635136246  1.0000
  H   H1        1.0  0.9655505148620306  0.49784904143888303  0.7584584062200008  1.0000
  H   H2        1.0  0.4655525961442066  0.0021519532447201  0.7415321297874795  1.0000
  H   H3        1.0  0.0344500910163035  0.50215564123652  0.24154226879473129  1.0000
  H   H4        1.0  0.5344585003080269  0.9978518316612792  0.2584647694870199  1.0000
  H   H5        1.0  0.8566688482994492  0.626321637695213  0.632171668439085  1.0000
  H   H6        1.0  0.3566756980243113  0.8736741642004234  0.867818635992215  1.0000
  H   H7        1.0  0.14333557233302227  0.3736830449801829  0.3678282542321014  1.0000
  H   H8        1.0  0.643340166870601  0.1263242340891964  0.1321826932086552  1.0000
  H   H9        1.0  0.5653799437380158  0.6982922191789456  0.8552574558027713  1.0000
  H   H10       1.0  0.0653763028889713  0.8017170492576468  0.6447383253707031  1.0000
  H   H11       1.0  0.4346092178778704  0.3016954058779078  0.1447324199749858  1.0000
  H   H12       1.0  0.9346185808581353  0.1983055888056953  0.3552754199341521  1.0000
  H   H13       1.0  0.6856829842177987  0.5676793406800513  0.972028978209117  1.0000
  H   H14       1.0  0.1856802970572957  0.9323407009893004  0.5279737423261679  1.0000
  H   H15       1.0  0.3142975942012569  0.4323011022216292  0.0279652994500381  1.0000
  H   H16       1.0  0.8143060034929803  0.0676945058455942  0.47204621804191754  1.0000
  H   H17       1.0  0.5178919767345675  0.5278228682981165  0.6920800982591969  1.0000
  H   H18       1.0  0.0178997801479639  0.9721729335975199  0.8079154725769512  1.0000
  H   H19       1.0  0.4820990922583944  0.4721719389139167  0.3079113943855631  1.0000
  H   H20       1.0  0.9820884277793809  0.027824566922703305  0.19209863244178388  1.0000
  H   H21       1.0  0.3311769276147984  0.44426028835970044  0.6006110526750135  1.0000
  H   H22       1.0  0.8311824758409188  0.0557371152463162  0.8993719038070154  1.0000
  H   H23       1.0  0.6688122340010878  0.5557434965462988  0.39937305675913126  1.0000
  H   H24       1.0  0.1688066857749675  0.9442460209635541  0.1006389674777068  1.0000
  H   H25       1.0  0.2347981177702039  0.5641807333397537  0.4592800398506753  1.0000
  H   H26       1.0  0.7347864996026559  0.9358195574028656  0.0407013065704618  1.0000
  H   H27       1.0  0.7652110713049537  0.4358365181072017  0.5407020228901445  1.0000
  H   H28       1.0  0.2652007546361546  0.0641635788070047  0.9593058029965036  1.0000
  H   H29       1.0  0.3405688523256103  0.755763824900356  0.4121294795407664  1.0000
  H   H30       1.0  0.8405562804695279  0.744241852458643  0.087863236168559  1.0000
  H   H31       1.0  0.6594422441266232  0.2442516310078062  0.5878608309341331  1.0000
  H   H32       1.0  0.1594290663922138  0.2557341015960475  0.9121430088749563  1.0000
  H   H33       1.0  0.7236655375745613  0.9950633599140489  0.7115148523168457  1.0000
  H   H34       1.0  0.22366761885673717  0.5049279531346045  0.7884753820020123  1.0000
  H   H35       1.0  0.2763312535496212  0.0049233673734079  0.2884885516223292  1.0000
  H   H36       1.0  0.7763310796445139  0.4950749340020053  0.2115124751273925  1.0000
  C   C1        1.0  0.8771159305293139  0.544587814018584  0.7765961560430341  1.0000
  C   C2        1.0  0.3771189655000313  0.9554178633404149  0.7233965596662911  1.0000
  C   C3        1.0  0.12288276797193728  0.4554204597343983  0.22340231803100608  1.0000
  C   C4        1.0  0.6228883161980505  0.0445886148737742  0.2766094097982759  1.0000
  C   C5        1.0  0.8160770031058959  0.616225323056014  0.7069910250582295  1.0000
  C   C6        1.0  0.3160838528307579  0.8837677855314326  0.7929969802749495  1.0000
  C   C7        1.0  0.1839207417068209  0.3837766663111921  0.2930058461712903  1.0000
  C   C8        1.0  0.6839320120641615  0.1162225328336177  0.20700347037997346  1.0000
  C   C9        1.0  0.701816533195533  0.6727399066001709  0.7339033228403551  1.0000
  C   C10       1.0  0.20182147554332627  0.8272558952954654  0.7660907433086948  1.0000
  C   C11       1.0  0.2981831189942524  0.327255798381259  0.2661002213236969  1.0000
  C   C12       1.0  0.7981838987776868  0.1727505829187308  0.23391372146876674  1.0000
  C   C13       1.0  0.6543237977493988  0.6564382098885773  0.8310117383558688  1.0000
  C   C14       1.0  0.15432111058889567  0.8435629786234387  0.6689839166152111  1.0000
  C   C15       1.0  0.3456663175550219  0.3435476196294829  0.1689856328124151  1.0000
  C   C16       1.0  0.8456756805352867  0.15645606836231  0.3310252585383893  1.0000
  C   C17       1.0  0.7208397584399008  0.5833193813460227  0.8962196068344779  1.0000
  C   C18       1.0  0.2208389786564666  0.91668719378238  0.6037791416457309  1.0000
  C   C19       1.0  0.2791503568645268  0.4166655504026409  0.103778502654869  1.0000
  C   C20       1.0  0.7791663956645464  0.083321977740006  0.396228374573397  1.0000
  C   C21       1.0  0.6298349835004018  0.7454412723730997  0.6605455673178041  1.0000
  C   C22       1.0  0.12984755535648418  0.7545545295225297  0.8394537652360938  1.0000
  C   C23       1.0  0.3701599002467049  0.2545535348389265  0.3394557057931067  1.0000
  C   C24       1.0  0.8701606800301389  0.24544925538346973  0.16055291450455658  1.0000
  C   C25       1.0  0.5258218969183943  0.6881716647660241  0.6024187802238002  1.0000
  C   C26       1.0  0.0258363761515525  0.8118268304378021  0.8975798420540144  1.0000
  C   C27       1.0  0.4741691720745607  0.3118285290623888  0.39758408170914084  1.0000
  C   C28       1.0  0.9741651834153088  0.1881643856966448  0.10242739371535237  1.0000
  C   C29       1.0  0.47539466184440465  0.577556599586373  0.630819405236835  1.0000
  C   C30       1.0  0.9754011637590594  0.9224374067704703  0.8691738805236893  1.0000
  C   C31       1.0  0.5245897313287955  0.4224444920114365  0.3691774519702021  1.0000
  C   C32       1.0  0.0245841831026823  0.0775493205169866  0.1308340374767809  1.0000
  C   C33       1.0  0.3697822395861152  0.5311392284508116  0.5796685740787737  1.0000
  C   C34       1.0  0.8697839730580837  0.9688565734448248  0.920319473321875  1.0000
  C   C35       1.0  0.6302097830953812  0.4688663519939881  0.42032308683585023  1.0000
  C   C36       1.0  0.1302042348692609  0.031127460534442302  0.0796944213595339  1.0000
  C   C37       1.0  0.3170690130893163  0.5963711528402982  0.5017455440421088  1.0000
  C   C38       1.0  0.8170631170529887  0.9036309334411143  0.9982441062030603  1.0000
  C   C39       1.0  0.6829325464775522  0.40364520083726063  0.49824402811172763  1.0000
  C   C40       1.0  0.18292795193997338  0.0963468161523764  0.0017704426644797996  1.0000
  C   C41       1.0  0.37465368063229926  0.7038485139772774  0.47510830604506527  1.0000
  C   C42       1.0  0.8746544604157336  0.7961544700735388  0.024885119940343293  1.0000
  C   C43       1.0  0.6253469252460276  0.2961705330084783  0.5248940980165813  1.0000
  C   C44       1.0  0.1253318401345425  0.20382238175055534  0.9751196344385631  1.0000
  C   C45       1.0  0.5410332290810089  0.20942176947993832  0.8969821720698617  1.0000
  C   C46       1.0  0.0410381714287951  0.2905612698157256  0.6030141022362584  1.0000
  C   C47       1.0  0.45897500630561433  0.7905577756523385  0.1030135962539021  1.0000
  C   C48       1.0  0.9589738787119728  0.7094577771700301  0.3969740072979348  1.0000
  S   S1        1.0  0.6666635737275824  0.23517069355666823  0.799921253505765  1.0000
  S   S2        1.0  0.16667233082952038  0.2648356877433145  0.7000723760108514  1.0000
  S   S3        1.0  0.3333437079704993  0.7648214203471683  0.2000724541021839  1.0000
  S   S4        1.0  0.8333254139831965  0.7351833592424343  0.2999292757072496  1.0000
  N   N1        1.0  0.8302192504187076  0.5279422716279214  0.8696673918602542  1.0000
  N   N2        1.0  0.3302184706352733  0.9720634057310775  0.6303298379103667  1.0000
  N   N3        1.0  0.1697784943940093  0.47205971773928473  0.1303309840563642  1.0000
  N   N4        1.0  0.6697859499971983  0.027945765791301404  0.3696769259652086  1.0000
  N   N5        1.0  0.4774412774444627  0.7479693909951877  0.523057406019177  1.0000
  N   N6        1.0  0.9774487330476516  0.7520344908250182  0.9769443097677664  1.0000
  N   N7        1.0  0.5225574210567885  0.2520424738353881  0.4769486475803149  1.0000
  N   N8        1.0  0.0225490117650651  0.2479522364624387  0.023060598858506896  1.0000
  N   N9        1.0  0.6472550583143359  0.8598036270160351  0.6498722604461022  1.0000
  N   N10       1.0  0.147266676481884  0.6401912771102047  0.8501248010546546  1.0000
  N   N11       1.0  0.3527445938754568  0.1401884868878085  0.3501267135666949  1.0000
  N   N12       1.0  0.8527444199703494  0.3598116100263979  0.1498765982586505  1.0000
  O   O1        1.0  0.7438579849650893  0.9072175221823215  0.70900672710583  1.0000
  O   O2        1.0  0.2438600662472652  0.5927719953275385  0.7909864885422593  1.0000
  O   O3        1.0  0.2561407135361691  0.0927701028745389  0.290998195542933  1.0000
  O   O4        1.0  0.7561443543852063  0.4072308918090641  0.2090141584275074  1.0000
  O   O5        1.0  0.7839138572009361  0.2307096774227375  0.8585712375081158  1.0000
  O   O6        1.0  0.28390926266335725  0.2693020904936319  0.6414134480208276  1.0000
  O   O7        1.0  0.21609342449714566  0.7692815387117024  0.1414269701386459  1.0000
  O   O8        1.0  0.7160913432149698  0.7307133654145305  0.3585828812024657  1.0000
  O   O9        1.0  0.6324108962384115  0.3502772990297558  0.7589160512117985  1.0000
  O   O10       1.0  0.1324320512913246  0.1497254911926476  0.7410880550245622  1.0000
  O   O11       1.0  0.36760592234504225  0.6497210992598639  0.24108527798907178  1.0000
  O   O12       1.0  0.8675809525379846  0.8502935557931083  0.2589143490370844  1.0000
  O   O13       1.0  0.6495553550651962  0.1321714061721693  0.729836428571943  1.0000
  O   O14       1.0  0.1495536215932276  0.36783587289721  0.7701557102800576  1.0000
  O   O15       1.0  0.3504586024526475  0.8678242988092606  0.2701543257517542  1.0000
  O   O16       1.0  0.8504403084653447  0.632191254013108  0.2298370395178324  1.0000
  F   F1        1.0  0.5558640395174166  0.10009231007686031  0.9406573951090493  1.0000
  F   F2        1.0  0.0558680281766684  0.39989432029639  0.5593396876305761  1.0000
  F   F3        1.0  0.4441527790660373  0.8998935194411999  0.05934449012053729  1.0000
  F   F4        1.0  0.9441583272921504  0.6001157489953854  0.44065129105293716  1.0000
  F   F5        1.0  0.5483241779451546  0.2946703603460108  0.9718936430107802  1.0000
  F   F6        1.0  0.048321490784651595  0.2053108834108599  0.5281071173116629  1.0000
  F   F7        1.0  0.4516726131790278  0.7053217535578327  0.0280932935052149  1.0000
  F   F8        1.0  0.9516800687822169  0.794689310417553  0.4718882211857789  1.0000
  F   F9        1.0  0.4218917812390969  0.2132911555812171  0.8577123452224596  1.0000
  F   F10       1.0  0.9218982831537516  0.2866999636390233  0.6422855599731533  1.0000
  F   F11       1.0  0.5781126393933746  0.7866758207795074  0.14228473147356618  1.0000
  F   F12       1.0  0.0781166280526335  0.713319981116129  0.3576980495222273  1.0000
