data_image0
_chemical_formula_structural       Al4H52C40O20
_chemical_formula_sum              "Al4 H52 C40 O20"
_cell_length_a       6.656044229335764
_cell_length_b       14.142123345753777
_cell_length_c       15.55131465906651
_cell_angle_alpha    90.00015804635245
_cell_angle_beta     90.00033182818957
_cell_angle_gamma    89.99887911177366

_space_group_name_H-M_alt    "P 1"
_space_group_IT_number       1

loop_
  _space_group_symop_operation_xyz
  'x, y, z'

loop_
  _atom_site_type_symbol
  _atom_site_label
  _atom_site_symmetry_multiplicity
  _atom_site_fract_x
  _atom_site_fract_y
  _atom_site_fract_z
  _atom_site_occupancy
  Al  Al1       1.0  0.9977195559349852  0.7483003595259635  0.5000028376010306  1.0000
  Al  Al2       1.0  0.5084632635968801  0.24706040279676963  4.8258342531e-06  1.0000
  Al  Al3       1.0  0.4977213016336036  0.7516945307989217  0.5000000730056797  1.0000
  Al  Al4       1.0  0.008473969583512502  0.25292308595184215  3.991513978000001e-06  1.0000
  H   H1        1.0  0.9990919965312273  0.6269684134827004  0.75078865426633  1.0000
  H   H2        1.0  0.44775752603420216  0.48507269984406787  0.1585586341117136  1.0000
  H   H3        1.0  0.499087725273391  0.8730158583008814  0.24921233182342212  1.0000
  H   H4        1.0  0.9478636593709239  0.014816795686890302  0.8415053694214691  1.0000
  H   H5        1.0  0.7640673023397114  0.6672824308868641  0.7890847204997087  1.0000
  H   H6        1.0  0.45586828536264073  0.393472037885644  0.23431618683508051  1.0000
  H   H7        1.0  0.26404943703991524  0.8327130800703487  0.21092319500564832  1.0000
  H   H8        1.0  0.9557458821362771  0.106449915024541  0.7657787090465291  1.0000
  H   H9        1.0  0.7765400998343069  0.5557322140908667  0.8993814732339731  1.0000
  H   H10       1.0  0.45269178408034355  0.504505157976105  0.3457936257930073  1.0000
  H   H11       1.0  0.27651788006096467  0.9442631882650688  0.10062584099549102  1.0000
  H   H12       1.0  0.9526204657642483  0.995491539084313  0.6542419285763617  1.0000
  H   H13       1.0  0.007684807343949301  0.5123862457775132  0.8599185500739424  1.0000
  H   H14       1.0  0.4418947430503978  0.5961730068321528  0.27003542557146437  1.0000
  H   H15       1.0  0.5076799308047413  0.9875987698651019  0.1400814336204661  1.0000
  H   H16       1.0  0.9419513037817423  0.9037954993345353  0.729973085482932  1.0000
  H   H17       1.0  0.015080514049302  0.4950431600769677  0.6417408584200786  1.0000
  H   H18       1.0  0.776479500679173  0.5557309535634546  0.1006252089590305  1.0000
  H   H19       1.0  0.5151047131248631  0.0049377849047474  0.35825417783642177  1.0000
  H   H20       1.0  0.2767242116093697  0.9442531344063384  0.8993686018275897  1.0000
  H   H21       1.0  0.018492410121424996  0.3818786568853554  0.7521732750716339  1.0000
  H   H22       1.0  0.7640422270564856  0.667283835005705  0.21092266810762794  1.0000
  H   H23       1.0  0.5185181922228354  0.11811074368650053  0.24783013203776963  1.0000
  H   H24       1.0  0.2642307611071999  0.8327159178680077  0.7890659566877575  1.0000
  H   H25       1.0  0.4526691003316187  0.5045087463715704  0.6542183541589708  1.0000
  H   H26       1.0  0.018553295054552197  0.3818979201476722  0.24781591556476465  1.0000
  H   H27       1.0  0.952682211541834  0.9954921930966024  0.3457901929147981  1.0000
  H   H28       1.0  0.5183866929438353  0.1181650197755957  0.7521366918973271  1.0000
  H   H29       1.0  0.4418952604793703  0.5961854537006134  0.7299740324959388  1.0000
  H   H30       1.0  0.7944673708445293  0.3324848064688767  0.2888793146246158  1.0000
  H   H31       1.0  0.9418906897588498  0.9038212365254953  0.2700338354433782  1.0000
  H   H32       1.0  0.2941877024010182  0.1675248195509127  0.7111224439272874  1.0000
  H   H33       1.0  0.44777104145558166  0.48510549498443123  0.8414629565733449  1.0000
  H   H34       1.0  0.7923485312828902  0.4443374562818577  0.39908097935414594  1.0000
  H   H35       1.0  0.947775021354488  0.0149056232125133  0.1585470321653659  1.0000
  H   H36       1.0  0.2921449106354785  0.0556849157647719  0.6009098406846719  1.0000
  H   H37       1.0  0.45582855178965787  0.3934938533695771  0.765709845849159  1.0000
  H   H38       1.0  0.0151138236546515  0.49505872496862224  0.35825164251206604  1.0000
  H   H39       1.0  0.955854723590882  0.10651365903172662  0.23430274203457205  1.0000
  H   H40       1.0  0.5149947793588723  0.0050084873459681  0.6417015965473996  1.0000
  H   H41       1.0  0.792290824530113  0.44433300406046783  0.6009230787067141  1.0000
  H   H42       1.0  0.007657607111866599  0.5123986145426827  0.1400668689725677  1.0000
  H   H43       1.0  0.2923288193081248  0.055654719217066904  0.39908510340328013  1.0000
  H   H44       1.0  0.5077972731116915  0.9876465047013595  0.8598784571426281  1.0000
  H   H45       1.0  0.7943775794038571  0.3324830187191878  0.7111252881410053  1.0000
  H   H46       1.0  0.9990882909147416  0.6269777843492219  0.2492021214831652  1.0000
  H   H47       1.0  0.2944172169414472  0.1675068077057489  0.288884830057377  1.0000
  H   H48       1.0  0.4991815728294355  0.8730708336563922  0.7507345615425935  1.0000
  H   H49       1.0  0.2523005364715091  0.624615672617992  0.5000156780768634  1.0000
  H   H50       1.0  0.2663856227524235  0.37541593358273684  0.9999971080604341  1.0000
  H   H51       1.0  0.7522917197982723  0.8753820621159818  0.5000018435316562  1.0000
  H   H52       1.0  0.7663938054500506  0.1245787216739345  0.999973391790931  1.0000
  C   C1        1.0  0.2461629979189581  0.865360596346605  0.6156265857771431  1.0000
  C   C2        1.0  0.25551718770130094  0.13499658138296414  0.11593216914636173  1.0000
  C   C3        1.0  0.7461637146775645  0.6346407272758017  0.38436840916227777  1.0000
  C   C4        1.0  0.7555182094663947  0.3649949978479371  0.8840816770628309  1.0000
  C   C5        1.0  0.2461454560673886  0.8653515413776772  0.3843663946368565  1.0000
  C   C6        1.0  0.2555055375713096  0.1349949383807498  0.8840781594772338  1.0000
  C   C7        1.0  0.7461467016774251  0.6346420042344291  0.6156369596629219  1.0000
  C   C8        1.0  0.755523850064506  0.36499310532033047  0.11592797033079451  1.0000
  C   C9        1.0  0.8469226169936093  0.6038891339903074  0.7683656807143253  1.0000
  C   C10       1.0  0.5309804411962702  0.45931750373145525  0.21494177581784166  1.0000
  C   C11       1.0  0.34691717989349513  0.8961021198270629  0.2316392970801999  1.0000
  C   C12       1.0  0.030966895864260404  0.040618755327678  0.7851111865144135  1.0000
  C   C13       1.0  0.8525134789901259  0.5291918782837612  0.841281676774507  1.0000
  C   C14       1.0  0.5279112615839736  0.5329862678538433  0.2884134073016327  1.0000
  C   C15       1.0  0.3525131425848542  0.9708000339310845  0.15872331974929926  1.0000
  C   C16       1.0  0.027899421836160305  0.966998571727267  0.7116065781132832  1.0000
  C   C17       1.0  0.8620420833808141  0.4734522341304198  0.6594301598952228  1.0000
  C   C18       1.0  0.8524954570854179  0.5291951464750682  0.1587162324246165  1.0000
  C   C19       1.0  0.36206731858771235  0.026537710201012005  0.3405756836196617  1.0000
  C   C20       1.0  0.35262731725283203  0.9708116145098701  0.8412617569041672  1.0000
  C   C21       1.0  0.5279011009709932  0.5329922602517599  0.7115982083352037  1.0000
  C   C22       1.0  0.8642129519065092  0.3990076994889834  0.2674439759324656  1.0000
  C   C23       1.0  0.0279035724637069  0.9670088427955008  0.2884095594607174  1.0000
  C   C24       1.0  0.364059582575628  0.1010168749094902  0.7325342241732005  1.0000
  C   C25       1.0  0.7433105862867465  0.5620993397681247  0.6878687561003929  1.0000
  C   C26       1.0  0.7484598366789825  0.4370489727206035  0.18852764236155656  1.0000
  C   C27       1.0  0.24331153699686334  0.9378956447521177  0.3121365178046602  1.0000
  C   C28       1.0  0.2484590679103107  0.06293418267205202  0.811479749885315  1.0000
  C   C29       1.0  0.7484430415781133  0.437051214671378  0.811480120142761  1.0000
  C   C30       1.0  0.7433209552360934  0.562096999815367  0.3121365348784622  1.0000
  C   C31       1.0  0.24846234124112948  0.062943254511147  0.18853241634642606  1.0000
  C   C32       1.0  0.2433146892019806  0.9379128338648643  0.6878539493098118  1.0000
  C   C33       1.0  0.8641533967384731  0.3990003603587553  0.732556421857396  1.0000
  C   C34       1.0  0.8469127475914462  0.6038920543351551  0.23163613834055502  1.0000
  C   C35       1.0  0.36418824876733424  0.10098956555881239  0.2674552160351737  1.0000
  C   C36       1.0  0.3470247041795033  0.896125361949828  0.7683360449747241  1.0000
  C   C37       1.0  0.5309664185406078  0.4593365861243939  0.7850781401183016  1.0000
  C   C38       1.0  0.8620782426258558  0.47345851947074646  0.3405703009222876  1.0000
  C   C39       1.0  0.030976409652005505  0.04066826226872419  0.21493302512931936  1.0000
  C   C40       1.0  0.361960545778679  0.026573144426841108  0.6594040339038757  1.0000
  O   O1        1.0  0.4178081618047004  0.8396340734538513  0.4121244517847772  1.0000
  O   O2        1.0  0.08845383222901398  0.16498416067777552  0.9126079577638465  1.0000
  O   O3        1.0  0.9178110416329589  0.6603501990357968  0.5878717609191071  1.0000
  O   O4        1.0  0.588453677361386  0.3349926099499712  0.0874053290416938  1.0000
  O   O5        1.0  0.07790440667669431  0.836545218690084  0.5873251462201596  1.0000
  O   O6        1.0  0.42812506809386974  0.15895821615094974  0.08789946965944041  1.0000
  O   O7        1.0  0.5779251431264569  0.6634476706374176  0.412679573871209  1.0000
  O   O8        1.0  0.9280988406065518  0.34103186004152525  0.9121104532362312  1.0000
  O   O9        1.0  0.0779171612332235  0.8365412528144561  0.4126762461591511  1.0000
  O   O10       1.0  0.4281241810863818  0.1589510543711228  0.9121108164799879  1.0000
  O   O11       1.0  0.5779214027529278  0.6634615359979252  0.5873368333738469  1.0000
  O   O12       1.0  0.9281087420447562  0.3410347791234685  0.08789331913671823  1.0000
  O   O13       1.0  0.9178162790893722  0.6603603726364967  0.412125204456281  1.0000
  O   O14       1.0  0.5884452824296958  0.3349995927936362  0.9126082318976074  1.0000
  O   O15       1.0  0.4177954116647911  0.8396543054769198  0.5878600766976589  1.0000
  O   O16       1.0  0.08846523152595152  0.16499697683442355  0.0874076270520945  1.0000
  O   O17       1.0  0.248936681838309  0.6929477174701121  0.5000034870143538  1.0000
  O   O18       1.0  0.260553438692071  0.3071253057072668  1.2239133866e-06  1.0000
  O   O19       1.0  0.7489308594360436  0.8070500465083301  0.4999992335892642  1.0000
  O   O20       1.0  0.7605556242651162  0.19287083700641722  2.6502328581e-06  1.0000
