data_image0
_chemical_formula_structural       Ag4H12C16N12O12
_chemical_formula_sum              "Ag4 H12 C16 N12 O12"
_cell_length_a       3.52262861589925
_cell_length_b       10.639287121155482
_cell_length_c       16.54414007089619
_cell_angle_alpha    88.85536307306721
_cell_angle_beta     84.0597198993219
_cell_angle_gamma    80.66936557487396

_space_group_name_H-M_alt    "P 1"
_space_group_IT_number       1

loop_
  _space_group_symop_operation_xyz
  'x, y, z'

loop_
  _atom_site_type_symbol
  _atom_site_label
  _atom_site_symmetry_multiplicity
  _atom_site_fract_x
  _atom_site_fract_y
  _atom_site_fract_z
  _atom_site_occupancy
  Ag  Ag1       1.0  0.5090997940353791  0.8438559517950708  0.843910706455695  1.0000
  Ag  Ag2       1.0  0.19822468149998002  0.6563876026982102  0.6559171406463378  1.0000
  Ag  Ag3       1.0  0.4908886266106193  0.15614161284593564  0.1560905399799637  1.0000
  Ag  Ag4       1.0  0.8017910860961878  0.3436147374702898  0.3440829289288629  1.0000
  H   H1        1.0  0.9292269994475577  0.868190450327866  0.19603393937616434  1.0000
  H   H2        1.0  0.9893140862848149  0.632594137386171  0.3041433070888146  1.0000
  H   H3        1.0  0.07079771730047205  0.13180426232455034  0.8039638077266602  1.0000
  H   H4        1.0  0.010678457008445864  0.3674072138307807  0.695851883188098  1.0000
  H   H5        1.0  0.10299028164237714  0.6531757113359548  0.1251315993026623  1.0000
  H   H6        1.0  0.8768066493760642  0.8479817568711641  0.3747983658968863  1.0000
  H   H7        1.0  0.8970223371802963  0.34682089834816315  0.8748658791105726  1.0000
  H   H8        1.0  0.12315731703267142  0.1520205406063155  0.6251992533175184  1.0000
  H   H9        1.0  0.9441557136462114  0.6441917721509401  0.9797374716357014  1.0000
  H   H10       1.0  0.5625132331418288  0.8569429775853052  0.5197306872310817  1.0000
  H   H11       1.0  0.05583495540764722  0.3557943626561908  0.0202643568815333  1.0000
  H   H12       1.0  0.437473878791181  0.14306411185911827  0.4802699843359123  1.0000
  C   C1        1.0  0.6031747408235544  0.9432127908805658  0.02040468507609459  1.0000
  C   C2        1.0  0.5655864102760122  0.5570437329660011  0.4795603147403469  1.0000
  C   C3        1.0  0.39681331828061456  0.05677620616922501  0.9795983409683658  1.0000
  C   C4        1.0  0.4344381465887821  0.4429557466107141  0.5204380838726693  1.0000
  C   C5        1.0  0.8627003245844451  0.8539686219167425  0.1342680159698091  1.0000
  C   C6        1.0  0.8475117080834309  0.6467414151778429  0.3657956138420602  1.0000
  C   C7        1.0  0.13729357434750283  0.14602227946587482  0.8657339252534939  1.0000
  C   C8        1.0  0.15249968080488704  0.3532609162942962  0.6342031166482159  1.0000
  C   C9        1.0  0.9566405229155779  0.7366462435171998  0.09543436459177458  1.0000
  C   C10       1.0  0.7849021601886156  0.7642213011668348  0.4044594330532973  1.0000
  C   C11       1.0  0.043362295641266445  0.26334274744036895  0.9045652978896044  1.0000
  C   C12       1.0  0.21507888305701803  0.23577910562680426  0.5955391897623201  1.0000
  C   C13       1.0  0.8705904544367232  0.7312735831687222  0.015413347166848704  1.0000
  C   C14       1.0  0.6134653733465357  0.7695615518755832  0.4843196293019503  1.0000
  C   C15       1.0  0.1294117343894647  0.26872112722836045  0.9845869632182626  1.0000
  C   C16       1.0  0.38651954923255283  0.23044553322066727  0.5156803727225778  1.0000
  N   N1        1.0  0.6951729711795525  0.8344843190922901  0.9778644229906207  1.0000
  N   N2        1.0  0.5050505269285497  0.6660346816582392  0.5219086369783098  1.0000
  N   N3        1.0  0.3048161579757506  0.16550372309377792  0.022138002486997297  1.0000
  N   N4        1.0  0.4949644608559897  0.33396479661640655  0.4780907738737881  1.0000
  N   N5        1.0  0.6865565025415991  0.9573867033522135  0.09677544295909259  1.0000
  N   N6        1.0  0.7386590475340927  0.5430043841466414  0.4033238923534626  1.0000
  N   N7        1.0  0.31344722618314375  0.0426060996659317  0.9032242704656355  1.0000
  N   N8        1.0  0.26135417149228635  0.45699222318898347  0.5966729818864848  1.0000
  N   N9        1.0  0.8294159540695174  0.9466253370991781  0.6738290417622822  1.0000
  N   N10       1.0  0.45328370601824036  0.5525544143943009  0.8262622061432338  1.0000
  N   N11       1.0  0.17059350152547384  0.05337321214518201  0.326176414429206  1.0000
  N   N12       1.0  0.5467272622743169  0.44745078366867125  0.17373839141672684  1.0000
  O   O1        1.0  0.0013848938802924092  0.9480376101323743  0.6037954009805803  1.0000
  O   O2        1.0  0.5551236964446177  0.5511546583553227  0.8965520345268347  1.0000
  O   O3        1.0  0.9986504278202306  0.051956187836374616  0.3962093878499431  1.0000
  O   O4        1.0  0.44486813368740746  0.44885053710351047  0.1034505875112828  1.0000
  O   O5        1.0  0.7101869366058866  0.04596079081952811  0.7145903296943601  1.0000
  O   O6        1.0  0.47753225863889537  0.45331565090796033  0.7850541378935177  1.0000
  O   O7        1.0  0.2897946552658087  0.9540348604434784  0.2854101236734081  1.0000
  O   O8        1.0  0.5225219156345916  0.5466876446355402  0.214941274945609  1.0000
  O   O9        1.0  0.7703413953815358  0.8373875250365259  0.7060333971320603  1.0000
  O   O10       1.0  0.31494910313980284  0.6615226407227084  0.7942195687776491  1.0000
  O   O11       1.0  0.2296726503821703  0.1626110191620427  0.29397031190872275  1.0000
  O   O12       1.0  0.6850367591341426  0.33848253934309014  0.20578044045979033  1.0000
