data_image0
_chemical_formula_structural       Ga2H8C16O10
_chemical_formula_sum              "Ga2 H8 C16 O10"
_cell_length_a       6.725574812628091
_cell_length_b       11.355198445277296
_cell_length_c       11.36344084666984
_cell_angle_alpha    67.86297175354179
_cell_angle_beta     72.75244331554445
_cell_angle_gamma    72.76240494899477

_space_group_name_H-M_alt    "P 1"
_space_group_IT_number       1

loop_
  _space_group_symop_operation_xyz
  'x, y, z'

loop_
  _atom_site_type_symbol
  _atom_site_label
  _atom_site_symmetry_multiplicity
  _atom_site_fract_x
  _atom_site_fract_y
  _atom_site_fract_z
  _atom_site_occupancy
  Ga  Ga1       1.0  0.4998069316978614  0.4999822595335246  0.5000242523396708  1.0000
  Ga  Ga2       1.0  0.00019028967728475048  0.49998034616660186  0.5000204040586239  1.0000
  H   H1        1.0  0.24164365027268536  0.49185536811825153  0.8865084382506653  1.0000
  H   H2        1.0  0.2584418006337756  0.113514072328158  0.5080989686297812  1.0000
  H   H3        1.0  0.11982111590411655  0.5081996139693813  0.11350394270821346  1.0000
  H   H4        1.0  0.3801085106551697  0.8864434344289335  0.49184168778759846  1.0000
  H   H5        1.0  0.7584240819974539  0.508070775225427  0.11347872994454623  1.0000
  H   H6        1.0  0.7414934347907263  0.8865183349558947  0.49195150757685013  1.0000
  H   H7        1.0  0.8802436808660943  0.4917304403497837  0.8864787743789506  1.0000
  H   H8        1.0  0.6198341704828109  0.1135899546152572  0.5082070964957808  1.0000
  C   C1        1.0  0.3526446542313623  0.49549255770565986  0.9374834522404145  1.0000
  C   C2        1.0  0.14740188888523423  0.0625439128225551  0.5044753197228573  1.0000
  C   C3        1.0  0.2855266470281066  0.5045209415058737  0.06249601004259378  1.0000
  C   C4        1.0  0.21445080201008457  0.9374745018340248  0.4954947248234731  1.0000
  C   C5        1.0  0.6474189695353515  0.5044364920321271  0.06250424760013121  1.0000
  C   C6        1.0  0.8525429517893954  0.9374875766593077  0.4955676256530309  1.0000
  C   C7        1.0  0.7145406395964501  0.4954110303738588  0.937489950600593  1.0000
  C   C8        1.0  0.7854905814566919  0.06255796201735112  0.5045475943588826  1.0000
  C   C9        1.0  0.5671881373436704  0.4912668414122479  0.8745784633705184  1.0000
  C   C10       1.0  0.6385843415750188  0.4850726324189907  0.7384217117678488  1.0000
  C   C11       1.0  0.9329026117193633  0.1254501558590917  0.508672693015278  1.0000
  C   C12       1.0  0.8615457877027737  0.2616214720322105  0.5148420932259654  1.0000
  C   C13       1.0  0.43286844643336764  0.5086826228268678  0.12540290109024704  1.0000
  C   C14       1.0  0.3614509016670482  0.5149382157807878  0.26152039265735993  1.0000
  C   C15       1.0  0.06704904681650706  0.8745882599483963  0.49135062140583596  1.0000
  C   C16       1.0  0.13841986433026682  0.7384522232220476  0.48512952896163597  1.0000
  O   O1        1.0  0.4968061410413895  0.4827443258333233  0.6864218973900691  1.0000
  O   O2        1.0  0.0033719629362921177  0.31360055697220457  0.517192798134559  1.0000
  O   O3        1.0  0.16521651476909943  0.5172517841868327  0.3134074060359566  1.0000
  O   O4        1.0  0.33462742762490194  0.6865347183239123  0.4828511672341307  1.0000
  O   O5        1.0  0.5031863942537314  0.51729638550772  0.313550156768585  1.0000
  O   O6        1.0  0.9966312834836942  0.6864402838957063  0.48276057821068713  1.0000
  O   O7        1.0  0.8348007859681913  0.4827802295043284  0.6865599482009018  1.0000
  O   O8        1.0  0.6653554299651603  0.3135109844283477  0.5171005148430226  1.0000
  O   O9        1.0  0.7499719817098338  0.5650380600231557  0.434985148136704  1.0000
  O   O10       1.0  0.2500147942296636  0.43492150774794414  0.5650779439902394  1.0000
