data_image0
_chemical_formula_structural       Zn2H40C44N12O16
_chemical_formula_sum              "Zn2 H40 C44 N12 O16"
_cell_length_a       9.970122965473982
_cell_length_b       11.306275447134208
_cell_length_c       13.978
_cell_angle_alpha    73.63489477977652
_cell_angle_beta     69.70086460740667
_cell_angle_gamma    67.97289760894945

_space_group_name_H-M_alt    "P 1"
_space_group_IT_number       1

loop_
  _space_group_symop_operation_xyz
  'x, y, z'

loop_
  _atom_site_type_symbol
  _atom_site_label
  _atom_site_symmetry_multiplicity
  _atom_site_fract_x
  _atom_site_fract_y
  _atom_site_fract_z
  _atom_site_occupancy
  Zn  Zn1       1.0  0.3484008991214508  0.7970691991450992  0.4365360408940049  1.0000
  Zn  Zn2       1.0  0.6515959800985626  0.2029304565830827  0.5634659544580103  1.0000
  H   H1        1.0  0.43895607626067346  0.0653631974718394  0.7809811278468146  1.0000
  H   H2        1.0  0.5610408029593329  0.9346364582563423  0.2190187212754111  1.0000
  H   H3        1.0  0.12186290341426087  0.0316230089196239  0.5173590986091767  1.0000
  H   H4        1.0  0.8781364912688971  0.9683785847304165  0.4826404018150895  1.0000
  H   H5        1.0  0.49856759727439465  0.7733984525800324  0.607763113039468  1.0000
  H   H6        1.0  0.5014317671611721  0.2266002341872166  0.39223848817585605  1.0000
  H   H7        1.0  0.0670236792865992  0.1661826133033699  0.6496615986248101  1.0000
  H   H8        1.0  0.9329753690079272  0.8338199493076034  0.3503363358644904  1.0000
  H   H9        1.0  0.45494524758552046  0.8910836023634873  0.7449367091639161  1.0000
  H   H10       1.0  0.5450548398748865  0.10891605336469472  0.2550644923104102  1.0000
  H   H11       1.0  0.10312536198819792  0.3111343236640423  0.9072805746887411  1.0000
  H   H12       1.0  0.8968787474802152  0.6888750216734394  0.09271813866322993  1.0000
  H   H13       1.0  0.5609469480348322  0.0717719050645087  0.8898004253462943  1.0000
  H   H14       1.0  0.4390530486828225  0.928219030015299  0.11020278604163283  1.0000
  H   H15       1.0  0.12265505325103722  0.4379974713788215  0.01842390272563679  1.0000
  H   H16       1.0  0.877363274733497  0.5620079981149431  0.9815721755759838  1.0000
  H   H17       1.0  0.579455744039322  0.1958638245187743  0.0023501931328340246  1.0000
  H   H18       1.0  0.42055563959026177  0.804125172639175  0.9976492114064754  1.0000
  H   H19       1.0  0.1457516112569549  0.6848334856333693  0.19620010384651468  1.0000
  H   H20       1.0  0.8542501778990044  0.3151584184073712  0.8038017277645935  1.0000
  H   H21       1.0  0.5958020156136712  0.4381292500653373  0.20789849364605573  1.0000
  H   H22       1.0  0.40420442783237576  0.5618645918972689  0.7921060370649471  1.0000
  H   H23       1.0  0.15948189385920827  0.8111162257509291  0.30984938731459977  1.0000
  H   H24       1.0  0.8405146087245826  0.1888814920553941  0.6901509966637248  1.0000
  H   H25       1.0  0.5887716965539482  0.5774910248194018  0.3202352088228011  1.0000
  H   H26       1.0  0.41121879643283415  0.42251153779157147  0.6797677043133916  1.0000
  H   H27       1.0  0.21904058888939898  0.6498840338402019  0.633569558141488  1.0000
  H   H28       1.0  0.7809609143731109  0.3501146529270542  0.3664300830021788  1.0000
  H   H29       1.0  0.12565054309190055  0.5165569477597316  0.7560257124679097  1.0000
  H   H30       1.0  0.8743463058805219  0.4834398010856589  0.24397409121558425  1.0000
  H   H31       1.0  0.05079513479477528  0.4340266694866557  0.7058585972999225  1.0000
  H   H32       1.0  0.9491992592096634  0.5659739552024519  0.29413806890934074  1.0000
  H   H33       1.0  0.926773703490447  0.5471363857574758  0.7904255239619288  1.0000
  H   H34       1.0  0.07321748227359141  0.4528642389316389  0.20957265153495536  1.0000
  H   H35       1.0  0.9022603584339348  0.7398132977766565  0.5305766033992185  1.0000
  H   H36       1.0  0.09773975927405587  0.2601892648343167  0.4694203510542536  1.0000
  H   H37       1.0  0.789484971092662  0.6915406331925595  0.656790776195649  1.0000
  H   H38       1.0  0.2105115919863039  0.3084628983793465  0.3432068370204178  1.0000
  H   H39       1.0  0.8983391513711037  0.5764348574054239  0.5719076341459939  1.0000
  H   H40       1.0  0.10166134297310236  0.4235696431274079  0.4280880700414471  1.0000
  C   C1        1.0  0.1944284625169601  0.0056015631377733  0.5679837343292318  1.0000
  C   C2        1.0  0.8055723479682938  0.9943990615513413  0.4320156365842325  1.0000
  C   C3        1.0  0.40370805738339033  0.8610235274243578  0.6188286716405642  1.0000
  C   C4        1.0  0.5962945455401681  0.1389780662256825  0.38117003490601314  1.0000
  C   C5        1.0  0.1630335021059821  0.078929619456261  0.6421856833016192  1.0000
  C   C6        1.0  0.8369658925771758  0.9210719741937794  0.3578138171226468  1.0000
  C   C7        1.0  0.37825902603298533  0.9280814375632005  0.6961303667441641  1.0000
  C   C8        1.0  0.621743546642989  0.0719172492040485  0.30386972518353866  1.0000
  C   C9        1.0  0.2560406759476308  0.0412389771914192  0.707618531443849  1.0000
  C   C10       1.0  0.7439633427780237  0.9587616474976954  0.2923807610018658  1.0000
  C   C11       1.0  0.2159169165231987  0.12403281283751968  0.7868009635084476  1.0000
  C   C12       1.0  0.7840828547961677  0.8759707187343864  0.21320014828950914  1.0000
  C   C13       1.0  0.3317246784801782  0.1854484634795242  0.8890088009597434  1.0000
  C   C14       1.0  0.6682786474682203  0.814554099131449  0.11098950584582924  1.0000
  C   C15       1.0  0.20697674536108926  0.2879005784785207  0.9274256325577852  1.0000
  C   C16       1.0  0.793027303612149  0.7121029530933782  0.07257513614651151  1.0000
  C   C17       1.0  0.46532894710787076  0.1528642453170903  0.9176433654794636  1.0000
  C   C18       1.0  0.5346764571722956  0.8471325035283002  0.08235789824651357  1.0000
  C   C19       1.0  0.21867907016644483  0.3576241001364835  0.9898594921864045  1.0000
  C   C20       1.0  0.7813352963052579  0.6423774935135569  0.010137734295170833  1.0000
  C   C21       1.0  0.4755312986116563  0.2220451488541144  0.9808889835830428  1.0000
  C   C22       1.0  0.5244733826436629  0.7779506310303432  0.019112679883925027  1.0000
  C   C23       1.0  0.3526356048163848  0.3273421331443274  0.017326325849552442  1.0000
  C   C24       1.0  0.6473737609766131  0.6726584915447873  0.9826709280567485  1.0000
  C   C25       1.0  0.36210458679872204  0.40130873471585454  0.0794474040084978  1.0000
  C   C26       1.0  0.6379006223307399  0.5987035175044184  0.9205503747463766  1.0000
  C   C27       1.0  0.36649862426212104  0.4684024964091194  0.1325512948383292  1.0000
  C   C28       1.0  0.6335031648938382  0.5315894076316212  0.8674498213628468  1.0000
  C   C29       1.0  0.3695541262402243  0.5463573411695535  0.19422082213822017  1.0000
  C   C30       1.0  0.6304477536584939  0.4536432835195612  0.805779714969212  1.0000
  C   C31       1.0  0.24587713170557612  0.6552937427137806  0.22286939541861273  1.0000
  C   C32       1.0  0.7541243413093496  0.344702037170677  0.7771294848764042  1.0000
  C   C33       1.0  0.49614071943743426  0.5193737171839672  0.22934069925192097  1.0000
  C   C34       1.0  0.5038561295349878  0.4806230316614233  0.7706619660712946  1.0000
  C   C35       1.0  0.25242537907188  0.7264009405801417  0.2862797401389728  1.0000
  C   C36       1.0  0.7475714699005421  0.2735958082652488  0.7137207789544533  1.0000
  C   C37       1.0  0.4925567260618209  0.5965194795676396  0.2921428957993228  1.0000
  C   C38       1.0  0.507437667942625  0.403481145121475  0.7078587782794514  1.0000
  C   C39       1.0  0.12983567893694925  0.6847792238212733  0.5936356225355937  1.0000
  C   C40       1.0  0.8701626160851531  0.3152194629459757  0.40636338166590497  1.0000
  C   C41       1.0  0.031445884911775614  0.5262494639450139  0.7279697008615358  1.0000
  C   C42       1.0  0.9685502712833906  0.473749222822235  0.2720291171818303  1.0000
  C   C43       1.0  0.8953573556894124  0.6613342451529576  0.596983900908036  1.0000
  C   C44       1.0  0.10463993041439319  0.3386702553798742  0.40301402797695834  1.0000
  N   N1        1.0  0.3146482174723601  0.898555260096643  0.5551573766708842  1.0000
  N   N2        1.0  0.6853511772107905  0.1014463335534046  0.44484355457323943  1.0000
  N   N3        1.0  0.3328662808847014  0.1143121967852565  0.821400041979544  1.0000
  N   N4        1.0  0.6671331440460405  0.8856923037475752  0.17859807306358286  1.0000
  N   N5        1.0  0.37231734277941797  0.6973863744847506  0.32231788432506636  1.0000
  N   N6        1.0  0.627674882150508  0.3026113433215727  0.6776842735667685  1.0000
  N   N7        1.0  0.020734394152967163  0.6305755493831171  0.6394173870980068  1.0000
  N   N8        1.0  0.9792639008691352  0.3694231373841319  0.36058018628363453  1.0000
  N   N9        1.0  0.25877907840730774  0.0446981677124114  0.2941601394212512  1.0000
  N   N10       1.0  0.7412174544240742  0.9553024569767032  0.7058388591759409  1.0000
  N   N11       1.0  0.6071629824385524  0.6313662215022049  0.47899548792285873  1.0000
  N   N12       1.0  0.3928342431700783  0.3686324652650512  0.5210066425442577  1.0000
  O   O1        1.0  0.08495515625235579  0.19433383520991038  0.816108050389168  1.0000
  O   O2        1.0  0.9150435154059551  0.8056667894792042  0.18389471141581032  1.0000
  O   O3        1.0  0.13572001874846507  0.7683753591176199  0.5118550456530357  1.0000
  O   O4        1.0  0.8642761676942851  0.23162623453242054  0.48814596405884464  1.0000
  O   O5        1.0  0.3782281188004788  0.9589922601990893  0.3214220139778589  1.0000
  O   O6        1.0  0.6217687604195276  0.0410073955290926  0.6785785505542989  1.0000
  O   O7        1.0  0.1333704221561618  0.028360517467476105  0.34088251325142227  1.0000
  O   O8        1.0  0.8666271800886846  0.9716401072216385  0.6591147899000163  1.0000
  O   O9        1.0  0.2790787894726208  0.1370333616386716  0.223142907668894  1.0000
  O   O10       1.0  0.7209191591608498  0.8629662940895102  0.7768566768274355  1.0000
  O   O11       1.0  0.47293444262647444  0.6244081130620813  0.5262770948888331  1.0000
  O   O12       1.0  0.5270648915615155  0.3755876668223834  0.4737258917076161  1.0000
  O   O13       1.0  0.6189211872577047  0.7262953238387482  0.4042173870900855  1.0000
  O   O14       1.0  0.38107710776439774  0.2737033629285079  0.595785194161067  1.0000
  O   O15       1.0  0.7177090177802795  0.5495975465203102  0.5059487072052135  1.0000
  O   O16       1.0  0.28228820782835834  0.45040114024694594  0.49405127703211343  1.0000
