data_image0
_chemical_formula_structural       Mg2Zn2H28C32N4O32
_chemical_formula_sum              "Mg2 Zn2 H28 C32 N4 O32"
_cell_length_a       7.000951155930488
_cell_length_b       7.000977862271316
_cell_length_c       20.79470762827007
_cell_angle_alpha    88.77081202238014
_cell_angle_beta     88.77051225593002
_cell_angle_gamma    87.52849991989744

_space_group_name_H-M_alt    "P 1"
_space_group_IT_number       1

loop_
  _space_group_symop_operation_xyz
  'x, y, z'

loop_
  _atom_site_type_symbol
  _atom_site_label
  _atom_site_symmetry_multiplicity
  _atom_site_fract_x
  _atom_site_fract_y
  _atom_site_fract_z
  _atom_site_occupancy
  Mg  Mg1       1.0  0.18692304137127985  0.8130779270835264  0.250000062539506  1.0000
  Mg  Mg2       1.0  0.8130754311464514  0.1869233502873158  0.749999676255271  1.0000
  Zn  Zn1       1.0  0.6336114838050692  0.36639048051817025  0.24999918754528488  1.0000
  Zn  Zn2       1.0  0.36639134744723384  0.6336094074723351  0.7500005310950966  1.0000
  H   H1        1.0  0.7716167146458872  0.2966659170902589  0.4752439761163457  1.0000
  H   H2        1.0  0.7033382919894464  0.22838063748932316  0.0247542349062471  1.0000
  H   H3        1.0  0.22838469209930423  0.7033339609300956  0.5247547904751855  1.0000
  H   H4        1.0  0.2966618339972912  0.7716163653593071  0.9752450407816937  1.0000
  H   H5        1.0  0.9915209411829055  0.17392379051368323  0.560751680365307  1.0000
  H   H6        1.0  0.8260823091925148  0.008473925069829103  0.939246040357105  1.0000
  H   H7        1.0  0.008480690967147101  0.8260717994649911  0.4392466329034974  1.0000
  H   H8        1.0  0.1739206693654936  0.9915231012684417  0.060754177595598  1.0000
  H   H9        1.0  0.4748163640588032  0.28555709894225606  0.4354119725733979  1.0000
  H   H10       1.0  0.7144452778023125  0.5251826864027721  0.06458841066567089  1.0000
  H   H11       1.0  0.5251835383016044  0.7144441937227416  0.5645872755207931  1.0000
  H   H12       1.0  0.2855533366855454  0.47481572399183136  0.9354132701908568  1.0000
  H   H13       1.0  0.3777539636347527  0.06998824560285043  0.3198251277127682  1.0000
  H   H14       1.0  0.9300106383388567  0.6222500713525678  0.1801746617515505  1.0000
  H   H15       1.0  0.6222458641835402  0.9300144770009314  0.6801741111835042  1.0000
  H   H16       1.0  0.06998482896633361  0.377754038856871  0.8198250782155866  1.0000
  H   H17       1.0  0.3789059844976848  0.8783428114291569  0.36182939782328555  1.0000
  H   H18       1.0  0.12165805052382694  0.6210973267937377  0.1381710830890341  1.0000
  H   H19       1.0  0.6210938433206085  0.12165991117461769  0.6381698410729868  1.0000
  H   H20       1.0  0.8783389158305823  0.37890536344706777  0.8618296181248795  1.0000
  H   H21       1.0  0.850326557685243  0.7771225991539339  0.3193993055109701  1.0000
  H   H22       1.0  0.2228771055859085  0.14967251061693793  0.1806011963788734  1.0000
  H   H23       1.0  0.14967334111811678  0.22287868996172486  0.680600904416174  1.0000
  H   H24       1.0  0.7771212906111842  0.8503301949180158  0.8193990141344613  1.0000
  H   H25       1.0  0.8858737043888923  0.9991178587595048  0.3061913963299148  1.0000
  H   H26       1.0  0.0008803074139507014  0.1141262902380191  0.19380879050125796  1.0000
  H   H27       1.0  0.1141261944144674  0.000883430356147101  0.6938088135972293  1.0000
  H   H28       1.0  0.999119593167933  0.8858750006523053  0.8061909385094098  1.0000
  C   C1        1.0  0.2821962635031881  0.4172181556042888  0.3317890843708398  1.0000
  C   C2        1.0  0.582782297582064  0.7178074218758753  0.1682105998841834  1.0000
  C   C3        1.0  0.7178065695276389  0.5827817341608893  0.6682101533530654  1.0000
  C   C4        1.0  0.41721617137861955  0.2821938519456283  0.8317901007435536  1.0000
  C   C5        1.0  0.1977283554870795  0.3502342186178711  0.39499343642364687  1.0000
  C   C6        1.0  0.6497680441391084  0.80227285833886  0.10500530569855468  1.0000
  C   C7        1.0  0.8022758292872681  0.6497671128309082  0.6050062632347135  1.0000
  C   C8        1.0  0.35022907307806156  0.1977269737990427  0.89499493299472  1.0000
  C   C9        1.0  0.9988430174626901  0.3531758035130111  0.40640067538826935  1.0000
  C   C10       1.0  0.6468248589350625  0.0011600368504432032  0.09359833475826919  1.0000
  C   C11       1.0  0.0011613891594706078  0.6468212363447492  0.5935995327803241  1.0000
  C   C12       1.0  0.35316797586816057  0.9988397565036637  0.9064014523708295  1.0000
  C   C13       1.0  0.9253239385646526  0.2920228478173286  0.46623454382557833  1.0000
  C   C14       1.0  0.7079792967302654  0.07467544823313692  0.03376449187354779  1.0000
  C   C15       1.0  0.07467904177187987  0.7079741802956153  0.5337651932106411  1.0000
  C   C16       1.0  0.2920191757874663  0.9253258291376983  0.9662352469212224  1.0000
  C   C17       1.0  0.04637926269482761  0.22369157202528808  0.514284937368906  1.0000
  C   C18       1.0  0.7763136361323644  0.9536169137935105  0.9857141241362299  1.0000
  C   C19       1.0  0.953622216813962  0.776306874281616  0.48571431933702053  1.0000
  C   C20       1.0  0.22368791258296747  0.04638009725060501  0.0142865845170519  1.0000
  C   C21       1.0  0.24341079827785717  0.22468180331719625  0.5022401357340698  1.0000
  C   C22       1.0  0.7753232470949457  0.7565815504693989  0.9977597446059434  1.0000
  C   C23       1.0  0.75659203475297  0.7753180864479817  0.4977591019898354  1.0000
  C   C24       1.0  0.22467830162038638  0.24341546057471675  0.0022409640473384004  1.0000
  C   C25       1.0  0.3208602742568375  0.28844478977331534  0.44378435889897355  1.0000
  C   C26       1.0  0.7115587896738235  0.6791410249541343  0.05621517513841919  1.0000
  C   C27       1.0  0.6791439868381419  0.711555113511345  0.5562148690408293  1.0000
  C   C28       1.0  0.28843990113467305  0.32085595727635063  0.9437860339995439  1.0000
  C   C29       1.0  0.8605591864909671  0.41120419562989247  0.35446852578203186  1.0000
  C   C30       1.0  0.5887980514876362  0.13944032184264907  0.145530667904147  1.0000
  C   C31       1.0  0.1394422149186596  0.5887956770664645  0.6455316835589358  1.0000
  C   C32       1.0  0.4111988456602377  0.8605638036609451  0.8544685813624112  1.0000
  N   N1        1.0  0.3710098019181984  0.15082023368074002  0.5517924608414617  1.0000
  N   N2        1.0  0.8491781754984233  0.6289870355867534  0.948206778523506  1.0000
  N   N3        1.0  0.6289944556197399  0.8491796660545888  0.44820772893129396  1.0000
  N   N4        1.0  0.15082059340922882  0.3710085202542787  0.051793477979416  1.0000
  O   O1        1.0  0.4226678292166924  0.30975615628739217  0.3100156855297129  1.0000
  O   O2        1.0  0.6902421955030533  0.577335346917984  0.1899852441261487  1.0000
  O   O3        1.0  0.5773348547299121  0.6902465933553543  0.6899835337983546  1.0000
  O   O4        1.0  0.30975619535846743  0.4226673532929724  0.8100164091366224  1.0000
  O   O5        1.0  0.21658154930973691  0.5677685820784009  0.3062486667195614  1.0000
  O   O6        1.0  0.43223391343541107  0.7834310746188823  0.19375064956952312  1.0000
  O   O7        1.0  0.783421058316222  0.43223559572846443  0.6937510243270707  1.0000
  O   O8        1.0  0.5677616266333773  0.21657160387710667  0.8062495805120166  1.0000
  O   O9        1.0  0.8484061974125369  0.28943052434029687  0.3094415880009436  1.0000
  O   O10       1.0  0.7105713377419393  0.15159285084499882  0.190557035471258  1.0000
  O   O11       1.0  0.15159107066737224  0.7105664496947027  0.6905581881716927  1.0000
  O   O12       1.0  0.2894297726133245  0.8484127487051726  0.8094412134121213  1.0000
  O   O13       1.0  0.7625087163833586  0.5648254172474696  0.3584503053669437  1.0000
  O   O14       1.0  0.43517730882414457  0.23749323578746132  0.14154908672007588  1.0000
  O   O15       1.0  0.23749561391816343  0.43517305077440954  0.6415503745202145  1.0000
  O   O16       1.0  0.5648195847666813  0.7625108861667943  0.8584511243794425  1.0000
  O   O17       1.0  0.309166593821928  0.03386177664018671  0.5917730350094885  1.0000
  O   O18       1.0  0.966136369360271  0.6908237870676501  0.9082242785951564  1.0000
  O   O19       1.0  0.6908333049814317  0.966139512475465  0.40822717491766275  1.0000
  O   O20       1.0  0.03385962329676321  0.3091703171196231  0.09177456392446  1.0000
  O   O21       1.0  0.5390649565979047  0.205695153604978  0.5515663366209083  1.0000
  O   O22       1.0  0.7943020746075861  0.4609337429794068  0.9484332808716472  1.0000
  O   O23       1.0  0.46093787821144633  0.7943047379348657  0.4484324201865135  1.0000
  O   O24       1.0  0.2056938328361895  0.5390617804986492  0.05156843794892299  1.0000
  O   O25       1.0  0.33107937582219193  0.9385569292391696  0.3221025323009101  1.0000
  O   O26       1.0  0.0614413824467377  0.6689212528039834  0.1778980778123014  1.0000
  O   O27       1.0  0.668917666852856  0.06144433283751033  0.6778976971944459  1.0000
  O   O28       1.0  0.9385540848584525  0.33108285740545557  0.8221016621548428  1.0000
  O   O29       1.0  0.9204150253918046  0.8690057456149917  0.2923876699620322  1.0000
  O   O30       1.0  0.13099244884247702  0.0795849027535809  0.2076123743499139  1.0000
  O   O31       1.0  0.07958344712591982  0.1309955317558504  0.7076120688327379  1.0000
  O   O32       1.0  0.8690060236752545  0.9204163746172613  0.7923873644448632  1.0000
