data_image0
_chemical_formula_structural       Ag2P2H24C30S4N4O8
_chemical_formula_sum              "Ag2 P2 H24 C30 S4 N4 O8"
_cell_length_a       7.1813167890701886
_cell_length_b       10.771240411796716
_cell_length_c       12.190748607447018
_cell_angle_alpha    105.13277371344793
_cell_angle_beta     99.1362976180721
_cell_angle_gamma    95.2796999356669

_space_group_name_H-M_alt    "P 1"
_space_group_IT_number       1

loop_
  _space_group_symop_operation_xyz
  'x, y, z'

loop_
  _atom_site_type_symbol
  _atom_site_label
  _atom_site_symmetry_multiplicity
  _atom_site_fract_x
  _atom_site_fract_y
  _atom_site_fract_z
  _atom_site_occupancy
  Ag  Ag1       1.0  0.551982320396057  0.6685959448622043  0.9999219004071165  1.0000
  Ag  Ag2       1.0  0.44800312942628295  0.3313550936818713  5.247827458989443e-05  1.0000
  P   P1        1.0  0.36324426096511087  0.6458061460426023  0.21755418553054542  1.0000
  P   P2        1.0  0.6367701966909677  0.3541923763585047  0.7824547525697129  1.0000
  H   H1        1.0  0.3727297842578281  0.8854512264712397  0.17242398566224185  1.0000
  H   H2        1.0  0.6272684878833631  0.11455046501801291  0.8275792576178559  1.0000
  H   H3        1.0  0.14289256550497242  0.44244880198391456  0.624426066282517  1.0000
  H   H4        1.0  0.8571155475471102  0.5575503809643649  0.37555284974762776  1.0000
  H   H5        1.0  0.15578424319469528  0.6245806236905906  0.513277275532012  1.0000
  H   H6        1.0  0.8442479374063012  0.37542620419750256  0.4867085681079004  1.0000
  H   H7        1.0  0.21530325837548503  0.8583776473818291  0.6585317434141658  1.0000
  H   H8        1.0  0.7847333714554735  0.1416308063617038  0.3414607313200904  1.0000
  H   H9        1.0  0.10555763428009608  0.022886072179616676  0.7358794469150638  1.0000
  H   H10       1.0  0.8943984420435812  0.9771107939438861  0.26413470169624287  1.0000
  H   H11       1.0  0.05304724894646991  0.2598720068063258  0.8477639960904  1.0000
  H   H12       1.0  0.94692281587691  0.7401234310198958  0.1522421344220461  1.0000
  H   H13       1.0  0.13145794036584144  0.2885300352113163  0.07497295535377901  1.0000
  H   H14       1.0  0.8685296044516022  0.711481347961019  0.9250318206290516  1.0000
  H   H15       1.0  0.35984960758016643  0.9860322761666609  0.34154361568023733  1.0000
  H   H16       1.0  0.6401507787012193  0.013979997185387592  0.658464327062525  1.0000
  H   H17       1.0  0.4020292316182434  0.17867893368377002  0.5335885193200411  1.0000
  H   H18       1.0  0.5979242246945091  0.8213182937674258  0.4664188943281431  1.0000
  H   H19       1.0  0.35968457868852977  0.40151254726645663  0.48694116561294726  1.0000
  H   H20       1.0  0.6403680691167467  0.5985005136509827  0.5130763243580176  1.0000
  H   H21       1.0  0.508695222023384  0.5002798592345671  0.2769995528399747  1.0000
  H   H22       1.0  0.4913156323942117  0.499719796237457  0.7229887982541288  1.0000
  H   H23       1.0  0.08613760154718622  0.5312736234029743  0.19936526460482185  1.0000
  H   H24       1.0  0.9138953068261912  0.4687232770166575  0.8006220886174731  1.0000
  C   C1        1.0  0.1648941561530179  0.5470915921576206  0.6615113775924543  1.0000
  C   C2        1.0  0.8351215956270436  0.4529111141006652  0.3384758201353719  1.0000
  C   C3        1.0  0.1708713071188512  0.6433256309705228  0.6066240156498354  1.0000
  C   C4        1.0  0.8291438211682305  0.3566809550985113  0.39336416296195864  1.0000
  C   C5        1.0  0.20224494605673027  0.7699119228005389  0.6852592316555147  1.0000
  C   C6        1.0  0.7977797085124579  0.23009342865540822  0.31473449563652883  1.0000
  C   C7        1.0  0.22214155958219103  0.7691857809329151  0.7995999994463504  1.0000
  C   C8        1.0  0.7778474413768707  0.23081137031758195  0.20039534659149894  1.0000
  C   C9        1.0  0.25209028018008445  0.8746954904832054  0.9060174541059427  1.0000
  C   C10       1.0  0.7478861471609974  0.12530248375809797  0.09397931886893222  1.0000
  C   C11       1.0  0.21034134556795436  0.0019503051714195785  0.9119650219167215  1.0000
  C   C12       1.0  0.7896107879933537  0.9980396149212608  0.08803208199093852  1.0000
  C   C13       1.0  0.14014457017146506  0.06416697869688898  0.8289343615925446  1.0000
  C   C14       1.0  0.8598071323325414  0.9358283979741132  0.1710707364102291  1.0000
  C   C15       1.0  0.1171649898841807  0.19098229754888504  0.8879226751792048  1.0000
  C   C16       1.0  0.8827892156053565  0.8090112774297894  0.11207972506137061  1.0000
  C   C17       1.0  0.1762418497563161  0.21282100770171297  0.010311563248720314  1.0000
  C   C18       1.0  0.823716139855108  0.7871767689814321  0.9896865967306641  1.0000
  C   C19       1.0  0.23177660509804102  0.0932974734698178  0.02631283823096451  1.0000
  C   C20       1.0  0.7681791617645857  0.9066963755214628  0.9736848644438822  1.0000
  C   C21       1.0  0.2900837867335539  0.0514425383019415  0.12428554116379331  1.0000
  C   C22       1.0  0.7099212873994246  0.94856432755963  0.875714025367067  1.0000
  C   C23       1.0  0.31277565523581785  0.12757605534001468  0.2437914549159004  1.0000
  C   C24       1.0  0.6872801025696376  0.8724300655802749  0.7562096976646444  1.0000
  C   C25       1.0  0.34853275460010746  0.08678998932526841  0.34344649975784597  1.0000
  C   C26       1.0  0.6514824612463883  0.9132185981539751  0.6565586507084831  1.0000
  C   C27       1.0  0.3695780783216875  0.1893030997213714  0.4464344854892062  1.0000
  C   C28       1.0  0.6304184608183123  0.8106973929685494  0.553572368265236  1.0000
  C   C29       1.0  0.3479009309599306  0.3071115331559183  0.42485495209606233  1.0000
  C   C30       1.0  0.6521307425766169  0.69289499189248  0.5751537542628995  1.0000
  S   S1        1.0  0.2027338647665786  0.6102856992856759  0.8096573279128805  1.0000
  S   S2        1.0  0.7972733312129492  0.38970998182010425  0.19033123091877266  1.0000
  S   S3        1.0  0.30173182230084444  0.29309830312975294  0.2803038022659194  1.0000
  S   S4        1.0  0.6983487100183581  0.7069048832810408  0.7196998613870278  1.0000
  N   N1        1.0  0.3307417513031581  0.9276815953407436  0.10497635211467585  1.0000
  N   N2        1.0  0.6692335333313723  0.07231809086434278  0.8950248730944993  1.0000
  N   N3        1.0  0.3134215417080313  0.8408120282552504  0.0021386207327865653  1.0000
  N   N4        1.0  0.6865284743359368  0.15918847008001083  0.997862758249596  1.0000
  O   O1        1.0  0.4216240773189526  0.7899892026845166  0.25430093358920663  1.0000
  O   O2        1.0  0.5783914641117391  0.2100087298439348  0.7457186305351726  1.0000
  O   O3        1.0  0.4867019311142471  0.5891534497721979  0.3116773974732254  1.0000
  O   O4        1.0  0.5132950384861985  0.41083596332430267  0.6883339112958566  1.0000
  O   O5        1.0  0.14609095385926457  0.6211033172908458  0.2366039584912016  1.0000
  O   O6        1.0  0.8539091812961531  0.37889919382275383  0.763384909166426  1.0000
  O   O7        1.0  0.37531915178980313  0.5641588206769298  0.0969326429291968  1.0000
  O   O8        1.0  0.6247127185116312  0.4358486746258449  0.9030763440164192  1.0000
