data_image0
_chemical_formula_structural       Li2H12C12N2O6
_chemical_formula_sum              "Li2 H12 C12 N2 O6"
_cell_length_a       6.2024033164611385
_cell_length_b       6.8919712662341714
_cell_length_c       9.891725079479045
_cell_angle_alpha    69.5943829778224
_cell_angle_beta     80.11842686477736
_cell_angle_gamma    60.50033508076697

_space_group_name_H-M_alt    "P 1"
_space_group_IT_number       1

loop_
  _space_group_symop_operation_xyz
  'x, y, z'

loop_
  _atom_site_type_symbol
  _atom_site_label
  _atom_site_symmetry_multiplicity
  _atom_site_fract_x
  _atom_site_fract_y
  _atom_site_fract_z
  _atom_site_occupancy
  Li  Li1       1.0  0.6760427939872147  0.5427327749039961  0.020291330321256955  1.0000
  Li  Li2       1.0  0.17602009461138113  0.5631373433309437  0.9795813078743549  1.0000
  H   H1        1.0  0.5270397169477902  0.23437889041351673  0.15283525972103007  1.0000
  H   H2        1.0  0.026698202320297106  0.38729958724481867  0.8471435210700093  1.0000
  H   H3        1.0  0.6383871555072388  0.19568106302990168  0.001081724232896917  1.0000
  H   H4        1.0  0.13829496759931462  0.19708214254131912  0.998889356691791  1.0000
  H   H5        1.0  0.6138469521489468  0.4588493630636706  0.4643974280309493  1.0000
  H   H6        1.0  0.11417129413251105  0.9233256060670316  0.5355685677490243  1.0000
  H   H7        1.0  0.2127540100197577  0.629886177005453  0.3554205193344017  1.0000
  H   H8        1.0  0.712666964690136  0.9859568895806918  0.6446817176868436  1.0000
  H   H9        1.0  0.7056948312166115  0.3491476647974211  0.7270973653655161  1.0000
  H   H10       1.0  0.20647867047351556  0.07595691042433118  0.272868289307219  1.0000
  H   H11       1.0  0.2736200774478305  0.5248856340856278  0.6243349949085939  1.0000
  H   H12       1.0  0.7738296858212195  0.14967060910257154  0.37575218159876295  1.0000
  C   C1        1.0  0.7621630319895447  0.4739238159127694  0.49696453478794217  1.0000
  C   C2        1.0  0.2625336124593503  0.9709054034138375  0.5030315030851683  1.0000
  C   C3        1.0  0.9068681358926228  0.5522269586072853  0.3910931394128596  1.0000
  C   C4        1.0  0.4069183081105903  0.9437248758088475  0.6089165015608843  1.0000
  C   C5        1.0  0.09579504884492719  0.5711336310536623  0.4358714419700788  1.0000
  C   C6        1.0  0.595818564220906  0.007538377777620854  0.5641748310256248  1.0000
  C   C7        1.0  0.8664516262971063  0.60321575636506  0.23243507997865726  1.0000
  C   C8        1.0  0.3661427051841316  0.8362587606799611  0.7675388326897091  1.0000
  C   C9        1.0  0.8128108529666705  0.41403862723576873  0.6415076365267538  1.0000
  C   C10       1.0  0.3133679055512176  0.05545782034923966  0.3584973656771099  1.0000
  C   C11       1.0  0.131955476116147  0.5101264383460417  0.583080750675883  1.0000
  C   C12       1.0  0.6321526272588258  0.0936409609768702  0.4169520258834325  1.0000
  N   N1        1.0  0.9942698351838007  0.43224023941198914  0.6840750501074881  1.0000
  N   N2        1.0  0.49475105636171435  0.11640123568891887  0.3159313640800008  1.0000
  O   O1        1.0  0.6998031198083583  0.5664778347473245  0.20431664602003968  1.0000
  O   O2        1.0  0.19953907022296133  0.7713501129686408  0.7956302035676402  1.0000
  O   O3        1.0  0.006507315527713254  0.6704651040537186  0.1421404385305749  1.0000
  O   O4        1.0  0.5061359327302245  0.8131352164683248  0.8579026179371426  1.0000
  O   O5        1.0  0.5371334100818859  0.3213272182166945  0.04349031875332801  1.0000
  O   O6        1.0  0.03692050842899155  0.36512994475883426  0.9563948589061156  1.0000
