data_image0
_chemical_formula_structural       Ag2H28C28N10O4
_chemical_formula_sum              "Ag2 H28 C28 N10 O4"
_cell_length_a       4.894907743226045
_cell_length_b       7.336972928007764
_cell_length_c       20.396869687055208
_cell_angle_alpha    90.00004087433265
_cell_angle_beta     93.71002723235542
_cell_angle_gamma    90.00015925656426

_space_group_name_H-M_alt    "P 1"
_space_group_IT_number       1

loop_
  _space_group_symop_operation_xyz
  'x, y, z'

loop_
  _atom_site_type_symbol
  _atom_site_label
  _atom_site_symmetry_multiplicity
  _atom_site_fract_x
  _atom_site_fract_y
  _atom_site_fract_z
  _atom_site_occupancy
  Ag  Ag1       1.0  0.750004361887683  0.19250541263964754  0.2500001167780893  1.0000
  Ag  Ag2       1.0  0.249999708876949  0.8074947869000227  0.7499984965738731  1.0000
  H   H1        1.0  0.27965577501171174  0.3605074100224643  0.15875836969211576  1.0000
  H   H2        1.0  0.22034980445248206  0.3605075436860617  0.3412422443030393  1.0000
  H   H3        1.0  0.720340112852668  0.639490063591687  0.8412420791176058  1.0000
  H   H4        1.0  0.7796563150383093  0.6394885669763044  0.6587568907728494  1.0000
  H   H5        1.0  0.8824206624037318  0.25845217915245666  0.08382139992036737  1.0000
  H   H6        1.0  0.6175883400252361  0.25844955120370383  0.4161783638920298  1.0000
  H   H7        1.0  0.11757931692235246  0.7415521092641202  0.9161781311613237  1.0000
  H   H8        1.0  0.3824136880270075  0.7415506483355688  0.5838216889135877  1.0000
  H   H9        1.0  0.1154177117596618  0.7042102832817677  0.13162728798945975  1.0000
  H   H10       1.0  0.38457499575867615  0.704208051821354  0.3683727228098589  1.0000
  H   H11       1.0  0.8845802188286812  0.29579264217245094  0.8683717213674522  1.0000
  H   H12       1.0  0.61541679915576  0.29579078474935744  0.6316281534346044  1.0000
  H   H13       1.0  0.4978470342238097  0.8278393545810873  0.2036577246046462  1.0000
  H   H14       1.0  0.0021482457470370004  0.8278389905862373  0.29634235615187515  1.0000
  H   H15       1.0  0.5021529450935915  0.17216084495574085  0.7963418064764053  1.0000
  H   H16       1.0  0.99784559339119  0.1721625719052184  0.703657570933913  1.0000
  H   H17       1.0  0.5384260822448397  0.6777445922463059  0.0080255266637437  1.0000
  H   H18       1.0  0.9615724226302405  0.6777441221859137  0.4919756501179646  1.0000
  H   H19       1.0  0.461577994545145  0.3222569702553173  0.9919750478666596  1.0000
  H   H20       1.0  0.038427559695499304  0.32225471439200964  0.5080248615519876  1.0000
  H   H21       1.0  0.6833804513841671  0.6374189168419876  0.09037402887155108  1.0000
  H   H22       1.0  0.8166219751195314  0.6374152816497018  0.40962670790830896  1.0000
  H   H23       1.0  0.3166256711323285  0.36258400862097784  0.9096260867945102  1.0000
  H   H24       1.0  0.1833780057034886  0.36258491788763086  0.590373313467296  1.0000
  H   H25       1.0  0.8989750502287066  0.6463995910579925  0.02397028069508169  1.0000
  H   H26       1.0  0.6010253657013039  0.6463997820739564  0.4760299371594811  1.0000
  H   H27       1.0  0.1010290235471558  0.35360060848270075  0.9760293132459875  1.0000
  H   H28       1.0  0.39897461511882437  0.3535990545034622  0.5239700842159108  1.0000
  C   C1        1.0  0.23542683507163534  0.21640433469396922  0.15065073589712338  1.0000
  C   C2        1.0  0.26458018243032916  0.2164032042218623  0.34935084520967746  1.0000
  C   C3        1.0  0.7645751914749966  0.7835958648447845  0.8493488266139405  1.0000
  C   C4        1.0  0.7354238943509729  0.7835942694000195  0.6506497293200793  1.0000
  C   C5        1.0  0.016892194187860803  0.15934786091349204  0.10897557776371504  1.0000
  C   C6        1.0  0.4831104819325134  0.15934177021423318  0.391024451817941  1.0000
  C   C7        1.0  0.9831098308589434  0.8406550645445918  0.8910234944532146  1.0000
  C   C8        1.0  0.5168895003903274  0.8406557034037833  0.6089760598517983  1.0000
  C   C9        1.0  0.9697360103787888  0.9719740581057652  0.09900039517728487  1.0000
  C   C10       1.0  0.5302616912229539  0.971968510845045  0.40099888068701245  1.0000
  C   C11       1.0  0.030261920206662303  0.02802750438853961  0.900998614179407  1.0000
  C   C12       1.0  0.46973624537048414  0.028026236851715704  0.5990020898468484  1.0000
  C   C13       1.0  0.1441244662865344  0.851052888536387  0.13479785685092335  1.0000
  C   C14       1.0  0.3558729625369495  0.8510492343066719  0.3652032431583122  1.0000
  C   C15       1.0  0.8558714215865351  0.1489486739575128  0.8652025919594308  1.0000
  C   C16       1.0  0.6441229283386605  0.14894823930849552  0.6347981862405161  1.0000
  C   C17       1.0  0.35778113550845353  0.9191438806848283  0.17591128792354024  1.0000
  C   C18       1.0  0.1422165795856856  0.9191438339274856  0.3240888527165494  1.0000
  C   C19       1.0  0.6422167965855082  0.08085904476990181  0.8240882117279251  1.0000
  C   C20       1.0  0.8577854484694571  0.0808577285717007  0.6759112000892811  1.0000
  C   C21       1.0  0.7481914230667286  0.9056181009906797  0.05244985210816819  1.0000
  C   C22       1.0  0.7518100910971484  0.9056157869374816  0.44754946593794626  1.0000
  C   C23       1.0  0.2518106004686729  0.09438209854705802  0.9475487298137818  1.0000
  C   C24       1.0  0.24818784399936084  0.0943830496385161  0.5524510143020009  1.0000
  C   C25       1.0  0.7122962416689732  0.7046073666743812  0.043009636396163786  1.0000
  C   C26       1.0  0.7877085159983467  0.7046037757814858  0.4569906624573006  1.0000
  C   C27       1.0  0.28771192657403327  0.29539692174991933  0.9569900204055697  1.0000
  C   C28       1.0  0.2122935120510121  0.2953950607978656  0.5430093903481035  1.0000
  N   N1        1.0  0.4064035916069741  0.09877699766925473  0.18347292461115924  1.0000
  N   N2        1.0  0.0935926885263498  0.09877820802735471  0.3165279723948301  1.0000
  N   N3        1.0  0.5935922917434553  0.9012218389032828  0.8165260533151011  1.0000
  N   N4        1.0  0.9064093380144912  0.9012192655915785  0.6834715901158075  1.0000
  N   N5        1.0  0.6016313885551626  0.03203831643216401  0.021832091110532293  1.0000
  N   N6        1.0  0.8983684630763021  0.032037700558653605  0.4781674764240973  1.0000
  N   N7        1.0  0.3983706349831309  0.9679632460654944  0.978166490811631  1.0000
  N   N8        1.0  0.101627426299487  0.9679624989758296  0.5218334626805969  1.0000
  N   N9        1.0  0.7500031876750057  0.6027876952017197  0.2500006395713895  1.0000
  N   N10       1.0  0.2500008891091881  0.3972111413800691  0.7499999349585875  1.0000
  O   O1        1.0  0.72965622770122  0.5107592053339475  0.19723460102647286  1.0000
  O   O2        1.0  0.7703456637330106  0.5107620781129328  0.30276707687217197  1.0000
  O   O3        1.0  0.2703417073923902  0.4892382682821364  0.8027658792132539  1.0000
  O   O4        1.0  0.2296604602833128  0.48923812143070233  0.6972335290880307  1.0000
