data_image0
_chemical_formula_structural       Li2Al2H46C40N6O4
_chemical_formula_sum              "Li2 Al2 H46 C40 N6 O4"
_cell_length_a       9.410479451395567
_cell_length_b       10.897838736865774
_cell_length_c       13.731845742437764
_cell_angle_alpha    104.0423205194398
_cell_angle_beta     100.50622887689312
_cell_angle_gamma    102.58702119165012

_space_group_name_H-M_alt    "P 1"
_space_group_IT_number       1

loop_
  _space_group_symop_operation_xyz
  'x, y, z'

loop_
  _atom_site_type_symbol
  _atom_site_label
  _atom_site_symmetry_multiplicity
  _atom_site_fract_x
  _atom_site_fract_y
  _atom_site_fract_z
  _atom_site_occupancy
  Li  Li1       1.0  0.4337417933293252  0.9350362284862184  0.7343352034811659  1.0000
  Li  Li2       1.0  0.5662593228096995  0.0649647959276791  0.2656662117198465  1.0000
  Al  Al1       1.0  0.257083236098282  0.13859397634341522  0.7738188204671133  1.0000
  Al  Al2       1.0  0.7429177540229405  0.8614031257067226  0.22618257214401896  1.0000
  H   H1        1.0  0.9706773598770084  0.07717420809856182  0.7631697139597334  1.0000
  H   H2        1.0  0.02931978138300919  0.9228209004307506  0.23683008505214803  1.0000
  H   H3        1.0  0.06715960803330029  0.012200347024276003  0.8503964639381538  1.0000
  H   H4        1.0  0.9328381362843458  0.9877967289574985  0.14960378069309863  1.0000
  H   H5        1.0  0.1699786848842422  0.24020634619400028  0.9820603789249135  1.0000
  H   H6        1.0  0.830020147797704  0.7597907249962574  0.017938547405151432  1.0000
  H   H7        1.0  0.9708019915842884  0.1946349518977186  0.9478372009244821  1.0000
  H   H8        1.0  0.029197139870852627  0.8053631087963355  0.052162677198616364  1.0000
  H   H9        1.0  0.07301552100257426  0.30680787024182626  0.8947843107739786  1.0000
  H   H10       1.0  0.9269833089237522  0.6931892067259895  0.10521534453943104  1.0000
  H   H11       1.0  0.07402155424569662  0.3242096007979569  0.7267978327416103  1.0000
  H   H12       1.0  0.9259768013964307  0.6757894253036055  0.2732006705589641  1.0000
  H   H13       1.0  0.10300887707099801  0.2785947219771002  0.6006835378632331  1.0000
  H   H14       1.0  0.8969942870232045  0.7214023762675554  0.39931594712885504  1.0000
  H   H15       1.0  0.016442743303024088  0.521090774595315  0.671841120412772  1.0000
  H   H16       1.0  0.9835588719207778  0.47890824868681403  0.32815488595093  1.0000
  H   H17       1.0  0.13740566491201636  0.7578431705271954  0.6935365994121767  1.0000
  H   H18       1.0  0.8625975212271372  0.24215388149698922  0.3064570537131104  1.0000
  H   H19       1.0  0.5615565542226477  0.7006263671710542  0.7335509865105578  1.0000
  H   H20       1.0  0.43844366284117353  0.29937169450903417  0.2664483022946982  1.0000
  H   H21       1.0  0.45819312558983694  0.46096197460519756  0.719135644517607  1.0000
  H   H22       1.0  0.5418103427887999  0.5390361015881311  0.2808633343008253  1.0000
  H   H23       1.0  0.07444710841245693  0.9857918334540089  0.571310380674703  1.0000
  H   H24       1.0  0.9255519652826295  0.0142131055740151  0.42869150676853  1.0000
  H   H25       1.0  0.13092058151529068  0.8391143185500951  0.554473919135596  1.0000
  H   H26       1.0  0.8690707972130057  0.16088662765873352  0.44552405212579066  1.0000
  H   H27       1.0  0.15389089081422466  0.7946606069260936  0.37992180931213687  1.0000
  H   H28       1.0  0.8461116152179147  0.2053413964225187  0.620078510397363  1.0000
  H   H29       1.0  0.291811583154292  0.85859933712792  0.2529103693383945  1.0000
  H   H30       1.0  0.7081974144849994  0.1414027183574049  0.7470922463308582  1.0000
  H   H31       1.0  0.37901630952148935  0.17979970043947452  0.5932835426590373  1.0000
  H   H32       1.0  0.6209778269480923  0.8202032498592475  0.4067180694861393  1.0000
  H   H33       1.0  0.5108244960346014  0.22744726266164159  0.4578053320953331  1.0000
  H   H34       1.0  0.4891739608247577  0.7725557378017172  0.5421997546452745  1.0000
  H   H35       1.0  0.46476232747116347  0.3750752008578645  0.965002161324449  1.0000
  H   H36       1.0  0.5352369244905475  0.6249267937550655  0.034999197355233526  1.0000
  H   H37       1.0  0.7004180333916354  0.4003693302468962  0.09573202600257254  1.0000
  H   H38       1.0  0.29958140785917925  0.599629696840701  0.9042658879801593  1.0000
  H   H39       1.0  0.8131277901370242  0.21056847154076055  0.08249999434750074  1.0000
  H   H40       1.0  0.18687424161091573  0.7894354809415985  0.9174991733491638  1.0000
  H   H41       1.0  0.6248018105483412  0.8847447222672358  0.9336831338010045  1.0000
  H   H42       1.0  0.375199903137073  0.11525828115424018  0.06632018498607549  1.0000
  H   H43       1.0  0.8100369097754125  0.9902266918903919  0.9907205256737585  1.0000
  H   H44       1.0  0.1899643241145625  0.009778272219946902  0.009283099067182797  1.0000
  H   H45       1.0  0.7334453153993437  0.9475387138384126  0.8545822961396471  1.0000
  H   H46       1.0  0.2665571796103237  0.0524633126204321  0.14542093950326063  1.0000
  C   C1        1.0  0.07326753712718671  0.1023821978232107  0.8259587255068509  1.0000
  C   C2        1.0  0.9267282280178151  0.897611902883604  0.17403852407978357  1.0000
  C   C3        1.0  0.07068636923199992  0.2158526968418641  0.9170105380793103  1.0000
  C   C4        1.0  0.9293118603923247  0.7841424068959313  0.08298794263138383  1.0000
  C   C5        1.0  0.16305896602658276  0.3288135894378358  0.6836010391779938  1.0000
  C   C6        1.0  0.8369390880867372  0.671184452937496  0.31639724131289176  1.0000
  C   C7        1.0  0.22933702989067237  0.4716377333490697  0.6925118172742941  1.0000
  C   C8        1.0  0.7706634942132028  0.5283613005021338  0.307486236373947  1.0000
  C   C9        1.0  0.1381613857139925  0.5564392621626552  0.6846241598584157  1.0000
  C   C10       1.0  0.8618420936871233  0.44355879092044154  0.315371903026616  1.0000
  C   C11       1.0  0.20448317482114933  0.6879566287090598  0.6960928299517802  1.0000
  C   C12       1.0  0.7955189257093239  0.3120404223290905  0.30390141249134933  1.0000
  C   C13       1.0  0.4408502145311033  0.6565867288847826  0.7193537801904882  1.0000
  C   C14       1.0  0.5591535608875873  0.3434123194796541  0.2806439634709221  1.0000
  C   C15       1.0  0.3843911994107715  0.5240359086699586  0.7103947463433685  1.0000
  C   C16       1.0  0.6156101087729766  0.4759621424410555  0.2896024951773414  1.0000
  C   C17       1.0  0.1749100332935569  0.947537256766303  0.5770931284345197  1.0000
  C   C18       1.0  0.8250856740913833  0.05246372227448149  0.4229061304722562  1.0000
  C   C19       1.0  0.25540775193371706  0.982621429758119  0.49744677042923513  1.0000
  C   C20       1.0  0.7445919770678133  0.0173786099435134  0.5025550112799309  1.0000
  C   C21       1.0  0.23120125340195594  0.8925575973940243  0.40019122794840467  1.0000
  C   C22       1.0  0.7687983028441893  0.107445375167579  0.5998096245576079  1.0000
  C   C23       1.0  0.30785838805127963  0.9276884116790499  0.3290624991184005  1.0000
  C   C24       1.0  0.6921456751181269  0.07231164929941512  0.6709391122694512  1.0000
  C   C25       1.0  0.3571442840768811  0.1061777283653953  0.5185403825111551  1.0000
  C   C26       1.0  0.6428518920810191  0.8938213130967655  0.48146148637515307  1.0000
  C   C27       1.0  0.4292135469860058  0.13258441030527024  0.443058752022374  1.0000
  C   C28       1.0  0.5707878569037419  0.8674176267226555  0.5569465309050727  1.0000
  C   C29       1.0  0.4505224426814962  0.175960771105693  0.8798526364754694  1.0000
  C   C30       1.0  0.5494765077514002  0.8240402397810058  0.12014849939452432  1.0000
  C   C31       1.0  0.5168280305294958  0.2942110403448552  0.9603594411033711  1.0000
  C   C32       1.0  0.48316983429472066  0.7057899695558021  0.039642284084472144  1.0000
  C   C33       1.0  0.6481288638998777  0.30874781319499794  0.03336039799408041  1.0000
  C   C34       1.0  0.35187146815927417  0.6912541939590895  0.9666418293344565  1.0000
  C   C35       1.0  0.7114605216967436  0.20349077347287195  0.026125748366617112  1.0000
  C   C36       1.0  0.28853921281601924  0.7965092546736446  0.9738745753758523  1.0000
  C   C37       1.0  0.6432729976936784  0.08765283507115382  0.9446806603362676  1.0000
  C   C38       1.0  0.356725179681824  0.9123491354455024  0.05531837172785709  1.0000
  C   C39       1.0  0.7071432954775361  0.9715467794787499  0.9306623924892605  1.0000
  C   C40       1.0  0.2928592077989833  0.0284552296474203  0.0693386562035982  1.0000
  N   N1        1.0  0.35381582655070787  0.7385471302929574  0.7129422959127113  1.0000
  N   N2        1.0  0.6461879516236025  0.2614519122939215  0.2870547187653543  1.0000
  N   N3        1.0  0.40678711385694305  0.04564790066756791  0.3495572149191021  1.0000
  N   N4        1.0  0.5932172398187989  0.9543531671473677  0.6504475352118394  1.0000
  N   N5        1.0  0.517016671903562  0.07548974034411063  0.8735975476826142  1.0000
  N   N6        1.0  0.4829819825117596  0.9245102752612411  0.12640190741100102  1.0000
  O   O1        1.0  0.27132766992424  0.27014425824942373  0.7176595880878551  1.0000
  O   O2        1.0  0.7286731391747381  0.7298557939933589  0.2823430622701722  1.0000
  O   O3        1.0  0.2667245247782972  0.9952131748558986  0.6786419643094774  1.0000
  O   O4        1.0  0.7332716596464692  0.004785849273581302  0.3213577176267819  1.0000
