data_image0
_chemical_formula_structural       AlH12C24N3O18
_chemical_formula_sum              "Al1 H12 C24 N3 O18"
_cell_length_a       3.9086377643359267
_cell_length_b       15.89546934347807
_cell_length_c       15.813847838168952
_cell_angle_alpha    59.969766929182605
_cell_angle_beta     86.68180230476167
_cell_angle_gamma    88.7431231098127

_space_group_name_H-M_alt    "P 1"
_space_group_IT_number       1

loop_
  _space_group_symop_operation_xyz
  'x, y, z'

loop_
  _atom_site_type_symbol
  _atom_site_label
  _atom_site_symmetry_multiplicity
  _atom_site_fract_x
  _atom_site_fract_y
  _atom_site_fract_z
  _atom_site_occupancy
  Al  Al1       1.0  0.9492940049616794  0.5017874160497087  0.5018677987330308  1.0000
  H   H1        1.0  0.7306316919695064  0.472144989215998  0.7219008116013582  1.0000
  H   H2        1.0  0.07815071585031322  0.7105086915847704  0.491464509460542  1.0000
  H   H3        1.0  0.6511109901216162  0.6325129625230019  0.8962266630721912  1.0000
  H   H4        1.0  0.2410139635199827  0.8981932177984647  0.6311159153486801  1.0000
  H   H5        1.0  0.6388328257185094  0.30323807715243584  0.44956015439245783  1.0000
  H   H6        1.0  0.5028799218542447  0.10295149732399272  0.49818451513455386  1.0000
  H   H7        1.0  0.4791362362047168  0.18845922334259063  0.8509230876933527  1.0000
  H   H8        1.0  0.4918981588297129  0.9737981325920088  0.9023821232211731  1.0000
  H   H9        1.0  0.9319259199048205  0.8763705199266243  0.08447288064158431  1.0000
  H   H10       1.0  0.829871348755006  0.7212167768910334  0.2998490619128731  1.0000
  H   H11       1.0  0.07912495669172874  0.5462285172459217  0.0919770591177383  1.0000
  H   H12       1.0  0.13732958396301606  0.49012164111525885  0.3045649154026151  1.0000
  C   C1        1.0  0.47800815307305566  0.5824385819787848  0.346653317620529  1.0000
  C   C2        1.0  0.4219160177901743  0.5745697091171849  0.5809151432470189  1.0000
  C   C3        1.0  0.4533632251360802  0.3522921017170261  0.5738922367225001  1.0000
  C   C4        1.0  0.44767597440721135  0.9334627886047215  0.7797029987640016  1.0000
  C   C5        1.0  0.45625690372686734  0.7867731218367524  0.783900287583343  1.0000
  C   C6        1.0  0.5170061358587005  0.7911177338794956  0.9252828201099205  1.0000
  C   C7        1.0  0.25510175737424134  0.7183272395563659  0.5956830822400221  1.0000
  C   C8        1.0  0.28684779389667636  0.773960300699578  0.6415308030486668  1.0000
  C   C9        1.0  0.43585813434394527  0.7311630287739631  0.7343229287151444  1.0000
  C   C10       1.0  0.5668712065924241  0.6344381408785226  0.7784141253852256  1.0000
  C   C11       1.0  0.5747991398601898  0.5842516158571553  0.7261305050029137  1.0000
  C   C12       1.0  0.41365907456578555  0.625479085522457  0.6352440250762255  1.0000
  C   C13       1.0  0.46870786805029513  0.0945957841195337  0.6221107527556524  1.0000
  C   C14       1.0  0.48769965878592814  0.19570774293285353  0.5747913452535798  1.0000
  C   C15       1.0  0.46722984459226075  0.24502763522241372  0.627924903912948  1.0000
  C   C16       1.0  0.4589447113678205  0.19239363717225896  0.729984693271767  1.0000
  C   C17       1.0  0.4629393053505098  0.09025522261896411  0.7789974925878411  1.0000
  C   C18       1.0  0.45440867090765386  0.039232461542290806  0.7262598283708497  1.0000
  C   C19       1.0  0.6693100283632776  0.7772929707876343  0.08452684625590492  1.0000
  C   C20       1.0  0.6667070260823565  0.7254738019042006  0.18668194802563698  1.0000
  C   C21       1.0  0.49288830143459  0.6351441764654239  0.24073212115289533  1.0000
  C   C22       1.0  0.33151505705685475  0.597100410821575  0.18903617556281926  1.0000
  C   C23       1.0  0.35117000466323134  0.6461940288606481  0.08679740537642297  1.0000
  C   C24       1.0  0.5174777048395214  0.7379024957451746  0.032754079165130234  1.0000
  N   N1        1.0  0.39731218008493846  0.8833548055400937  0.7336183839368574  1.0000
  N   N2        1.0  0.5338567089213344  0.7395111441901178  0.8792364684656774  1.0000
  N   N3        1.0  0.4902137570643959  0.8883737383444411  0.8774617923725003  1.0000
  O   O1        1.0  0.2046236879530739  0.3938010623113257  0.5929491395611634  1.0000
  O   O2        1.0  0.24193123307278344  0.5163906382681844  0.39254796955997046  1.0000
  O   O3        1.0  0.20172427119686634  0.5959828452022079  0.5143476773367296  1.0000
  O   O4        1.0  0.6928243980776758  0.3980016078480801  0.5068540901484084  1.0000
  O   O5        1.0  0.6517775584679484  0.5088288286062479  0.597651996386105  1.0000
  O   O6        1.0  0.698939967538614  0.6016330693993767  0.3926835929768302  1.0000
  O   O7        1.0  0.723020293707748  0.4957393752899009  0.7689340472723529  1.0000
  O   O8        1.0  0.09424938561491562  0.7606509735914313  0.5105447828334421  1.0000
  O   O9        1.0  0.6973719992261495  0.5890114314180507  0.8671928937603894  1.0000
  O   O10       1.0  0.16427754286848278  0.8647086653631463  0.5952861815700032  1.0000
  O   O11       1.0  0.5052726169945388  0.2434611593511491  0.4735262043886123  1.0000
  O   O12       1.0  0.4721026196547841  0.0511245359441403  0.5666137127276228  1.0000
  O   O13       1.0  0.46487431820432334  0.2391472068352414  0.7822457406395528  1.0000
  O   O14       1.0  0.4739365566021335  0.04716541152846081  0.8771124195392517  1.0000
  O   O15       1.0  0.8313639966315806  0.8654580313637794  0.03542635288561519  1.0000
  O   O16       1.0  0.8265051022297172  0.7692385495736148  0.22912922183551382  1.0000
  O   O17       1.0  0.19323976281392422  0.6058561880083103  0.040958007196138645  1.0000
  O   O18       1.0  0.15948573227191792  0.5104168025669793  0.23396298321121378  1.0000
