data_image0
_chemical_formula_structural       Bi4H36C44S2N12O28
_chemical_formula_sum              "Bi4 H36 C44 S2 N12 O28"
_cell_length_a       8.042354113936934
_cell_length_b       10.002646657996491
_cell_length_c       18.892
_cell_angle_alpha    77.76137276883652
_cell_angle_beta     78.61595437353819
_cell_angle_gamma    76.1428754945871

_space_group_name_H-M_alt    "P 1"
_space_group_IT_number       1

loop_
  _space_group_symop_operation_xyz
  'x, y, z'

loop_
  _atom_site_type_symbol
  _atom_site_label
  _atom_site_symmetry_multiplicity
  _atom_site_fract_x
  _atom_site_fract_y
  _atom_site_fract_z
  _atom_site_occupancy
  Bi  Bi1       1.0  0.2751542731098624  0.0316580994246891  0.7417088029727879  1.0000
  Bi  Bi2       1.0  0.7248408579012633  0.9683388882414405  0.2582901974797878  1.0000
  Bi  Bi3       1.0  0.7411980818194124  0.8420629983166564  0.8172659075525317  1.0000
  Bi  Bi4       1.0  0.2588029249873287  0.1579308529174455  0.18273559782491594  1.0000
  H   H1        1.0  0.19082760910963972  0.2757645132971618  0.46569410606959144  1.0000
  H   H2        1.0  0.8091702572633752  0.7242366562783431  0.5343089590917742  1.0000
  H   H3        1.0  0.5095624835253005  0.2473494845905932  0.4107634621288412  1.0000
  H   H4        1.0  0.49043264748582527  0.7526475030755435  0.5892392435958057  1.0000
  H   H5        1.0  0.7320529593291809  0.1207902703058394  0.49184522882337944  1.0000
  H   H6        1.0  0.2679427753742231  0.8791993990188943  0.5081545422979517  1.0000
  H   H7        1.0  0.23541758444802952  0.6415216253287923  0.597496226737654  1.0000
  H   H8        1.0  0.7645902990874802  0.3584701349506219  0.4025102287401552  1.0000
  H   H9        1.0  0.07103211405330971  0.47731372644371106  0.5706598594698278  1.0000
  H   H10       1.0  0.9289792383396644  0.5226843066997588  0.4293413658812569  1.0000
  H   H11       1.0  0.7780270413911194  0.4617047497120765  0.643475270784954  1.0000
  H   H12       1.0  0.22197689939793713  0.5382974653407686  0.35652081472531455  1.0000
  H   H13       1.0  0.6705751953221863  0.4722483887166717  0.07931457367540422  1.0000
  H   H14       1.0  0.32942547522984  0.5277517353814929  0.9206836092806016  1.0000
  H   H15       1.0  0.4203046542919965  0.6238927863703978  0.1473085255494269  1.0000
  H   H16       1.0  0.5797000199926429  0.376111519637135  0.8526899102661146  1.0000
  H   H17       1.0  0.27889419227430773  0.85302796469049  0.078977070062102  1.0000
  H   H18       1.0  0.7211155554932349  0.1469763413170426  0.9210219980938845  1.0000
  H   H19       1.0  0.8567825220595537  0.9265124761783099  0.9604974717145254  1.0000
  H   H20       1.0  0.14321941686320372  0.0734876479198476  0.03950060466429049  1.0000
  H   H21       1.0  0.9933423854855266  0.8088377283547388  0.9250182949803545  1.0000
  H   H22       1.0  0.0066578190084954  0.1911592593113909  0.07498080848808542  1.0000
  H   H23       1.0  0.8394338901975047  0.1446721092529728  0.7351948343954362  1.0000
  H   H24       1.0  0.16056904965839894  0.855329060322532  0.2648056871588906  1.0000
  H   H25       1.0  0.6399768336261076  0.183667368671145  0.7690684127629268  1.0000
  H   H26       1.0  0.3600258387922324  0.8163348463817072  0.23093042594742744  1.0000
  H   H27       1.0  0.10418507071652533  0.5419597724734473  0.8356231502558701  1.0000
  H   H28       1.0  0.8958157984559421  0.4580445335340854  0.16437772258953492  1.0000
  H   H29       1.0  0.315473775513901  0.5281469258171612  0.777984554412356  1.0000
  H   H30       1.0  0.6845232885463872  0.47185738019037154  0.2220171674891702  1.0000
  H   H31       1.0  0.002252602545183903  0.3480425439311077  0.8824214178388843  1.0000
  H   H32       1.0  0.9977462647609768  0.6519596711217375  0.11757932857675263  1.0000
  H   H33       1.0  0.934751314842302  0.1647410923300328  0.8286082132028837  1.0000
  H   H34       1.0  0.0652505552633116  0.8352642591548474  0.17139139954595348  1.0000
  H   H35       1.0  0.0855881571499779  0.10472651092997859  0.8863917255680533  1.0000
  H   H36       1.0  0.9144139803932138  0.895277795077554  0.11360798205100757  1.0000
  C   C1        1.0  0.2016378323947734  0.3596703429404328  0.7963020734544913  1.0000
  C   C2        1.0  0.7983605000362459  0.6403339630670999  0.20369848322069833  1.0000
  C   C3        1.0  0.06082102723130589  0.19715402639639729  0.6103247707693314  1.0000
  C   C4        1.0  0.9391689614797799  0.8028481886564478  0.38967513371282075  1.0000
  C   C5        1.0  0.24727482420647828  0.174050022592489  0.5723778302789954  1.0000
  C   C6        1.0  0.7527210403002228  0.8259490560283282  0.4276251084526095  1.0000
  C   C7        1.0  0.2932320849428791  0.2248915857846825  0.4982153004723742  1.0000
  C   C8        1.0  0.706763779563822  0.7751074928361419  0.50178710893465  1.0000
  C   C9        1.0  0.46865072769493576  0.2082099492990821  0.46844375778147923  1.0000
  C   C10       1.0  0.5313464739996336  0.7917839019350197  0.5315591259766634  1.0000
  C   C11       1.0  0.5937425711496902  0.1376423195983492  0.5126966844365484  1.0000
  C   C12       1.0  0.40625970402777506  0.8623515316357527  0.48730259706538703  1.0000
  C   C13       1.0  0.5385286008614188  0.0854625454070685  0.5860229853978112  1.0000
  C   C14       1.0  0.4614713361950251  0.9145354877364085  0.41397708184956633  1.0000
  C   C15       1.0  0.6640369554690652  0.0024871905990977  0.6375656712694777  1.0000
  C   C16       1.0  0.33595670855089577  0.9975056151576567  0.3624365684412679  1.0000
  C   C17       1.0  0.11996450558399364  0.8075559731321674  0.705448024283335  1.0000
  C   C18       1.0  0.8800387705266248  0.1924389235792745  0.2945552903678532  1.0000
  C   C19       1.0  0.03358026982859032  0.7084405391023054  0.6835675207565757  1.0000
  C   C20       1.0  0.9664252755859052  0.291555403086484  0.3164328392471134  1.0000
  C   C21       1.0  0.108328415678173  0.6307458903540493  0.6279326358798941  1.0000
  C   C22       1.0  0.8916830055319379  0.3692469154027123  0.37207022904865994  1.0000
  C   C23       1.0  0.016820615931791797  0.5399629107482369  0.6135603477410356  1.0000
  C   C24       1.0  0.9831904690236116  0.4600361678725804  0.38643813611691513  1.0000
  C   C25       1.0  0.8528864707117165  0.5313293588493835  0.6535458636205931  1.0000
  C   C26       1.0  0.14712054169393696  0.46867076524877394  0.3464512571249259  1.0000
  C   C27       1.0  0.7854070817221911  0.6154808756682755  0.7071555627472534  1.0000
  C   C28       1.0  0.21459458976299567  0.3845202939072294  0.2928418894367582  1.0000
  C   C29       1.0  0.6061331598624804  0.6207312628850374  0.7510594790924614  1.0000
  C   C30       1.0  0.3938651725685319  0.3792730431224953  0.2489373723106496  1.0000
  C   C31       1.0  0.8317672153322351  0.5493167965364449  0.9376383322986896  1.0000
  C   C32       1.0  0.1682288477949001  0.4506864639937476  0.062358827129010315  1.0000
  C   C33       1.0  0.6744877329124892  0.6274913193851575  0.9810625252520851  1.0000
  C   C34       1.0  0.3255172088097211  0.3725119411450351  0.018934417459938405  1.0000
  C   C35       1.0  0.6097947324783561  0.575214315800963  0.0532017369284574  1.0000
  C   C36       1.0  0.39020486832338014  0.42478999020656966  0.9467955372220516  1.0000
  C   C37       1.0  0.4688544738571139  0.6586245891836384  0.08990566041905619  1.0000
  C   C38       1.0  0.5311463953153535  0.3413797168238943  0.9100909778296968  1.0000
  C   C39       1.0  0.3903411405236453  0.7864310579386427  0.05225502695330421  1.0000
  C   C40       1.0  0.6096592625908102  0.2135701116368622  0.9477414731587218  1.0000
  C   C41       1.0  0.4563966352650938  0.8278779617262444  0.9788047444955269  1.0000
  C   C42       1.0  0.5435996952996192  0.1721242533266008  0.021192509802396772  1.0000
  C   C43       1.0  0.3685058679237514  0.9559437088623213  0.9308199110294454  1.0000
  C   C44       1.0  0.631488391957518  0.0440616426225588  0.06917769455956355  1.0000
  S   S1        1.0  0.3561698313737409  0.2816453233517819  0.7320502521378742  1.0000
  S   S2        1.0  0.6438247647622433  0.7183537552690353  0.2679506758725765  1.0000
  N   N1        1.0  0.36933855843517455  0.1062957724218876  0.6138206490704334  1.0000
  N   N2        1.0  0.6306608437461348  0.8937043516762698  0.38618134573481916  1.0000
  N   N3        1.0  0.8767563752546864  0.6988806942775126  0.7216642503209273  1.0000
  N   N4        1.0  0.12324529623050041  0.301120475297985  0.2783358484859946  1.0000
  N   N5        1.0  0.5988993571663884  0.7509935579188465  0.9457162270131579  1.0000
  N   N6        1.0  0.4010964385231759  0.2490107480886863  0.05428136686889929  1.0000
  N   N7        1.0  0.20783013130767367  0.48672302253110183  0.8045880082563387  1.0000
  N   N8        1.0  0.7921710053023645  0.5132802379990835  0.1954140181084583  1.0000
  N   N9        1.0  0.07058300267563308  0.3026656908110041  0.8372825717596514  1.0000
  N   N10       1.0  0.9294163306885322  0.6973396606738688  0.1627177834681319  1.0000
  N   N11       1.0  0.057195042086306117  0.165607793047414  0.837013135464936  1.0000
  N   N12       1.0  0.9428073628944559  0.8343954674827785  0.16298613769977524  1.0000
  O   O1        1.0  0.9169523587290414  0.8990843780835717  0.9124084805897398  1.0000
  O   O2        1.0  0.0830488466981336  0.1009136550598981  0.0875909507558745  1.0000
  O   O3        1.0  0.7541866943031366  0.132648074330632  0.7811809725499901  1.0000
  O   O4        1.0  0.2458133115704513  0.8673447314261223  0.21881861697653449  1.0000
  O   O5        1.0  0.03976949593646851  0.1485090111019431  0.6808236449341294  1.0000
  O   O6        1.0  0.9602237630116477  0.8514952949055895  0.31917945534810604  1.0000
  O   O7        1.0  0.943494969678966  0.2625120424967449  0.575160017622359  1.0000
  O   O8        1.0  0.05650403526146868  0.7374797177826693  0.42484241997447475  1.0000
  O   O9        1.0  0.5907840980023309  0.9698318298873049  0.7058516394748224  1.0000
  O   O10       1.0  0.40921303487510136  0.0301672487335125  0.294150663355019  1.0000
  O   O11       1.0  0.8198007904744172  0.9703190223291642  0.6139861855740278  1.0000
  O   O12       1.0  0.18020322696276034  0.029658101267450797  0.3860127097075505  1.0000
  O   O13       1.0  0.04799629433387757  0.8562950813875005  0.764575091283092  1.0000
  O   O14       1.0  0.9520013734186961  0.1437019062786291  0.23542845993635816  1.0000
  O   O15       1.0  0.25600921117673886  0.8383850090238311  0.6666214334899223  1.0000
  O   O16       1.0  0.7439917268128653  0.1616140695969861  0.3333826669067079  1.0000
  O   O17       1.0  0.5612425043047012  0.6962837285573968  0.8019683135567135  1.0000
  O   O18       1.0  0.4387540248804527  0.3037226684048235  0.1980263373848032  1.0000
  O   O19       1.0  0.5131988205298655  0.5511735642976845  0.7349445747905179  1.0000
  O   O20       1.0  0.4868061900094887  0.4488244688457854  0.26505136087606473  1.0000
  O   O21       1.0  0.897992593584199  0.6212728201487323  0.8779827165946373  1.0000
  O   O22       1.0  0.1020040044180845  0.3787283494267726  0.1220151618980907  1.0000
  O   O23       1.0  0.8886929472714087  0.42235298251993214  0.9599646036321657  1.0000
  O   O24       1.0  0.1113025809805848  0.5776523689649409  0.040035542002570416  1.0000
  O   O25       1.0  0.4353544067221052  0.9759395085253643  0.8629283821388397  1.0000
  O   O26       1.0  0.5646352457342729  0.0240689793915436  0.13706978789561222  1.0000
  O   O27       1.0  0.232978910000476  0.0320825632259698  0.9586239318814407  1.0000
  O   O28       1.0  0.7670181540598194  0.967921742781563  0.04137673137092428  1.0000
