data_image0
_chemical_formula_structural       Zn2H18C26N10O10
_chemical_formula_sum              "Zn2 H18 C26 N10 O10"
_cell_length_a       7.685809299941856
_cell_length_b       9.221235846702578
_cell_length_c       9.221225196753329
_cell_angle_alpha    96.3743793467861
_cell_angle_beta     92.68419891145638
_cell_angle_gamma    92.68407806443572

_space_group_name_H-M_alt    "P 1"
_space_group_IT_number       1

loop_
  _space_group_symop_operation_xyz
  'x, y, z'

loop_
  _atom_site_type_symbol
  _atom_site_label
  _atom_site_symmetry_multiplicity
  _atom_site_fract_x
  _atom_site_fract_y
  _atom_site_fract_z
  _atom_site_occupancy
  Zn  Zn1       1.0  0.5000008944833567  0.9999990472864155  2.093732128070983e-06  1.0000
  Zn  Zn2       1.0  1.1049688449843057e-07  6.34731179597121e-07  0.9999975975648353  1.0000
  H   H1        1.0  0.9920564409360536  0.6390843643122465  0.9908297604369026  1.0000
  H   H2        1.0  0.507940961009254  0.009172903825742698  0.36091961286784624  1.0000
  H   H3        1.0  0.0079412791551334  0.36091747402203117  0.009169477366185704  1.0000
  H   H4        1.0  0.49205678111911766  0.9908289539069199  0.6390828812097383  1.0000
  H   H5        1.0  0.09805357890407147  0.9182161910894351  0.6707519490349796  1.0000
  H   H6        1.0  0.4019488924443023  0.3292465834012006  0.0817861183671411  1.0000
  H   H7        1.0  0.9019479815681847  0.0817845667634245  0.32924622322759944  1.0000
  H   H8        1.0  0.5980512727231114  0.6707520087709826  0.9182161152531734  1.0000
  H   H9        1.0  0.24999934664261758  0.4314868676091592  0.5685156241333759  1.0000
  H   H10       1.0  0.749999630112157  0.5685138972093357  0.4314857129436335  1.0000
  H   H11       1.0  0.1006982609673486  0.8453684820086168  0.43583367725965166  1.0000
  H   H12       1.0  0.3992998345579365  0.5641647709202643  0.1546325289890831  1.0000
  H   H13       1.0  0.899304677978918  0.1546333876572632  0.5641668288884106  1.0000
  H   H14       1.0  0.6006962781298385  0.43583159787562653  0.8453660765550808  1.0000
  H   H15       1.0  0.10207453120150228  0.47147526748124585  0.7485056032087273  1.0000
  H   H16       1.0  0.3979254753350006  0.2514945185134323  0.5285239383111248  1.0000
  H   H17       1.0  0.8979243626108583  0.5285243852744657  0.2514923602880117  1.0000
  H   H18       1.0  0.6020734867283082  0.7485062333728081  0.4714752279162227  1.0000
  C   C1        1.0  0.24999846630947078  0.7137292448912189  0.28627119749793906  1.0000
  C   C2        1.0  0.7499991393170191  0.286270414580386  0.7137288911184286  1.0000
  C   C3        1.0  0.030926720270194587  0.6713534843346382  0.8871820082849027  1.0000
  C   C4        1.0  0.4690751280346531  0.1128162578938898  0.3286450963331902  1.0000
  C   C5        1.0  0.9690722344473812  0.32864726108547876  0.11281607251761731  1.0000
  C   C6        1.0  0.5309275525992943  0.8871812281821291  0.6713527697420928  1.0000
  C   C7        1.0  0.0773574173045333  0.8194705783948137  0.7226167308889303  1.0000
  C   C8        1.0  0.422644047549248  0.27738420985959783  0.18053140761668376  1.0000
  C   C9        1.0  0.9226455216417334  0.1805312912710662  0.2773837752591319  1.0000
  C   C10       1.0  0.5773548073950961  0.7226143696300936  0.8194696948487703  1.0000
  C   C11       1.0  0.25000094611984025  0.5106044570588536  0.48939511311733236  1.0000
  C   C12       1.0  0.7500006290438745  0.4893963137262532  0.5106052299949155  1.0000
  C   C13       1.0  0.1761968709447217  0.6454931038160722  0.5216010187965026  1.0000
  C   C14       1.0  0.3238035490042392  0.4783987283443024  0.35450580660080533  1.0000
  C   C15       1.0  0.8238033404364417  0.3545065680882615  0.4783991612799312  1.0000
  C   C16       1.0  0.6761978970033198  0.5215998506458774  0.6454932164750532  1.0000
  C   C17       1.0  0.1678212852381904  0.7442801820470423  0.41732897359743504  1.0000
  C   C18       1.0  0.33217609116049823  0.5826713172785742  0.2557186273327261  1.0000
  C   C19       1.0  0.8321803508307397  0.25572168140246987  0.5826714868205869  1.0000
  C   C20       1.0  0.6678215071202586  0.4173283357269  0.7442803758588141  1.0000
  C   C21       1.0  0.0828751453050032  0.5874007408724893  0.7669508912763449  1.0000
  C   C22       1.0  0.4171242641600302  0.23304597348062828  0.4126007150998561  1.0000
  C   C23       1.0  0.9171238776635133  0.41260110367815633  0.2330483922567836  1.0000
  C   C24       1.0  0.5828744689738912  0.7669504206802528  0.5874001527540428  1.0000
  C   C25       1.0  0.24999888971746026  0.8235238722312059  0.1764750986689307  1.0000
  C   C26       1.0  0.749999957881151  0.1764747007923617  0.823524918371696  1.0000
  N   N1        1.0  0.028408238483798694  0.8153835885622982  0.8581736840834324  1.0000
  N   N2        1.0  0.4715938533691356  0.14182758081734193  0.1846170437593884  1.0000
  N   N3        1.0  0.9715933902394055  0.1846182684210902  0.1418256909097622  1.0000
  N   N4        1.0  0.5284063506662945  0.8581720846208754  0.8153820508922109  1.0000
  N   N5        1.0  0.11172815711710632  0.682113303855104  0.6621425897756836  1.0000
  N   N6        1.0  0.38827346698094795  0.337857345781252  0.3178889565592655  1.0000
  N   N7        1.0  0.8882734789518237  0.3178885595944081  0.33785787064233835  1.0000
  N   N8        1.0  0.6117253270581813  0.6621401410440342  0.6821120286004145  1.0000
  N   N9        1.0  0.2500003643632169  0.1847715256299907  0.8152287035821999  1.0000
  N   N10       1.0  0.7499999079231614  0.8152292389387482  0.184771593800015  1.0000
  O   O1        1.0  0.2499997408950847  0.0900826162076527  0.9099173328209745  1.0000
  O   O2        1.0  0.7500004631403453  0.9099170492305578  0.09008176183062493  1.0000
  O   O3        1.0  0.37930358296326  0.8254518378503589  0.09589146323378368  1.0000
  O   O4        1.0  0.12069681897177986  0.9041093127844843  0.17454828266661343  1.0000
  O   O5        1.0  0.620696628417903  0.17454783405397475  0.9041087168426503  1.0000
  O   O6        1.0  0.8793034459688653  0.0958914453181308  0.825450929290767  1.0000
  O   O7        1.0  0.2536564924818591  0.3183203615453535  0.8599493994908798  1.0000
  O   O8        1.0  0.24634258668353223  0.14005119541619143  0.6816812640171079  1.0000
  O   O9        1.0  0.7463425451781233  0.6816814959375462  0.1400520548919104  1.0000
  O   O10       1.0  0.7536563365117529  0.8599484832040288  0.3183210411789545  1.0000
