data_image0
_chemical_formula_structural       Hg2H20C28S4Br4N8
_chemical_formula_sum              "Hg2 H20 C28 S4 Br4 N8"
_cell_length_a       9.619927995714269
_cell_length_b       10.283205722726617
_cell_length_c       10.283212808364457
_cell_angle_alpha    74.52789217483398
_cell_angle_beta     68.81352026423147
_cell_angle_gamma    68.81344665205489

_space_group_name_H-M_alt    "P 1"
_space_group_IT_number       1

loop_
  _space_group_symop_operation_xyz
  'x, y, z'

loop_
  _atom_site_type_symbol
  _atom_site_label
  _atom_site_symmetry_multiplicity
  _atom_site_fract_x
  _atom_site_fract_y
  _atom_site_fract_z
  _atom_site_occupancy
  Hg  Hg1       1.0  0.2499993383894079  0.7461092550636438  0.2538916488666699  1.0000
  Hg  Hg2       1.0  0.7500001342331615  0.2538897676645107  0.7461099562263344  1.0000
  H   H1        1.0  0.04774741383749868  0.6093523272269011  0.8923456161179217  1.0000
  H   H2        1.0  0.4522529223822501  0.1076548937069717  0.3906474259028982  1.0000
  H   H3        1.0  0.9522539286739188  0.39064775961058024  0.10765312034215668  1.0000
  H   H4        1.0  0.547747312457361  0.8923451890659353  0.6093526636805678  1.0000
  H   H5        1.0  0.08549065558644747  0.8057601783558324  0.68794250241681  1.0000
  H   H6        1.0  0.41451115989268333  0.3120569124220367  0.19424099392050198  1.0000
  H   H7        1.0  0.9145100094967304  0.19424201498147653  0.3120578510538863  1.0000
  H   H8        1.0  0.5854883127298862  0.6879421103061177  0.8057606111725022  1.0000
  H   H9        1.0  0.19711047666479692  0.9845388512541078  0.7074430930491431  1.0000
  H   H10       1.0  0.30289093948189105  0.29255673394482784  0.01546119996412193  1.0000
  H   H11       1.0  0.8028879663341116  0.0154633366843271  0.29255899577685796  1.0000
  H   H12       1.0  0.6971085264000295  0.7074422915135942  0.9845394342374192  1.0000
  H   H13       1.0  0.2733889289836569  0.9559305425499146  0.9209689297238413  1.0000
  H   H14       1.0  0.22661077298538151  0.07903132792871047  0.04407022028171068  1.0000
  H   H15       1.0  0.7266113125966102  0.044069537492724506  0.07903213075108792  1.0000
  H   H16       1.0  0.7733886996371878  0.9209676947994438  0.9559313848112937  1.0000
  H   H17       1.0  0.8921402708297491  0.4594313959442149  0.4255227114310928  1.0000
  H   H18       1.0  0.6078616253834498  0.5744771883420158  0.5405687043714308  1.0000
  H   H19       1.0  0.10786028924266595  0.5405676390393168  0.5744746278641415  1.0000
  H   H20       1.0  0.39213973060928004  0.42552289303493035  0.459431973871574  1.0000
  C   C1        1.0  0.1326393226759351  0.6867956102226029  0.01510305690664644  1.0000
  C   C2        1.0  0.3673598829946628  0.9848970223689404  0.3132057269953776  1.0000
  C   C3        1.0  0.8673616743807102  0.31320553259506323  0.9848955171672812  1.0000
  C   C4        1.0  0.632640358585597  0.015103057673698598  0.6867953334795445  1.0000
  C   C5        1.0  0.09584465664534755  0.6893149596240207  0.8949526146612429  1.0000
  C   C6        1.0  0.4041564768222656  0.1050470855162757  0.31068635803670464  1.0000
  C   C7        1.0  0.9041563404112981  0.3106861831936457  0.10504595941268483  1.0000
  C   C8        1.0  0.5958441169534225  0.8949519358159108  0.6893158357158385  1.0000
  C   C9        1.0  0.11727882903138459  0.7981303505348052  0.7820789244520938  1.0000
  C   C10       1.0  0.38272118961199925  0.21791995526177024  0.20187040211371238  1.0000
  C   C11       1.0  0.882721053612798  0.20187079094855423  0.21792003185375816  1.0000
  C   C12       1.0  0.6172782830105702  0.7820790674663771  0.7981312029792916  1.0000
  C   C13       1.0  0.17969140856435217  0.8968250553756077  0.792107136273586  1.0000
  C   C14       1.0  0.32031031710967284  0.20789208256113065  0.10317620993429698  1.0000
  C   C15       1.0  0.820308142106363  0.1031771366273944  0.2078935994290348  1.0000
  C   C16       1.0  0.679689500967676  0.7921058841868387  0.8968255575448582  1.0000
  C   C17       1.0  0.21905250104054375  0.8830183407005665  0.9137007399185392  1.0000
  C   C18       1.0  0.2809480153554205  0.08629873991701228  0.11698275814425331  1.0000
  C   C19       1.0  0.7809488482115298  0.1169817434066474  0.08629896743300947  1.0000
  C   C20       1.0  0.7190514572671561  0.913700282811142  0.8830188469487508  1.0000
  C   C21       1.0  0.8998013636936194  0.6318596801464622  0.24656848466516118  1.0000
  C   C22       1.0  0.6001994013190383  0.7534314585524129  0.36814099562453617  1.0000
  C   C23       1.0  0.10019808196633313  0.36813935350276944  0.7534292368619973  1.0000
  C   C24       1.0  0.39980083352057244  0.24656862422049397  0.6318590939589299  1.0000
  C   C25       1.0  0.8275590398213805  0.560397134210696  0.37689599025591736  1.0000
  C   C26       1.0  0.6724416948798578  0.6231049712168116  0.43960323255885203  1.0000
  C   C27       1.0  0.17244041257922765  0.43960189670826816  0.6231027021626971  1.0000
  C   C28       1.0  0.3275588786738695  0.3768940583061848  0.5603960485193014  1.0000
  S   S1        1.0  0.09960711375091341  0.5543848354412546  0.16472551868714896  1.0000
  S   S2        1.0  0.400393999037263  0.8352740182884091  0.44561450740292935  1.0000
  S   S3        1.0  0.9003934530621576  0.44561419681200926  0.8352727914995483  1.0000
  S   S4        1.0  0.5996065879977762  0.164725005774045  0.5543867154581505  1.0000
  Br  Br1       1.0  0.9932781913049739  0.8054570337012734  0.4549263664947814  1.0000
  Br  Br2       1.0  0.5067226895410568  0.5450723941905694  0.19454228494526396  1.0000
  Br  Br3       1.0  0.006722388989409513  0.1945419930914554  0.5450738854748353  1.0000
  Br  Br4       1.0  0.4932767696002075  0.45492663399812017  0.8054573783648209  1.0000
  N   N1        1.0  0.19383891113851354  0.7811029021621466  0.024771416216090254  1.0000
  N   N2        1.0  0.30615964686818836  0.9752286595215695  0.21889848409694676  1.0000
  N   N3        1.0  0.806160978246325  0.2188982365909453  0.9752285109812179  1.0000
  N   N4        1.0  0.693839825754381  0.0247703632065779  0.7811031209960504  1.0000
  N   N5        1.0  0.82541377614713  0.75506017579729  0.18342015271706916  1.0000
  N   N6        1.0  0.6745855429297478  0.8165805754628154  0.24493931828622803  1.0000
  N   N7        1.0  0.1745856762534785  0.24493885512166716  0.8165785397015526  1.0000
  N   N8        1.0  0.3254124563442815  0.18341950737175236  0.7550605648696234  1.0000
