data_image0
_chemical_formula_structural       Sm2H32C36N6O16
_chemical_formula_sum              "Sm2 H32 C36 N6 O16"
_cell_length_a       9.455523106986911
_cell_length_b       10.514816810880417
_cell_length_c       10.514853839651485
_cell_angle_alpha    83.47017103329955
_cell_angle_beta     84.62372623518222
_cell_angle_gamma    84.62360439807303

_space_group_name_H-M_alt    "P 1"
_space_group_IT_number       1

loop_
  _space_group_symop_operation_xyz
  'x, y, z'

loop_
  _atom_site_type_symbol
  _atom_site_label
  _atom_site_symmetry_multiplicity
  _atom_site_fract_x
  _atom_site_fract_y
  _atom_site_fract_z
  _atom_site_occupancy
  Sm  Sm1       1.0  0.24999850915457958  0.9758557633036559  0.024145721259877528  1.0000
  Sm  Sm2       1.0  0.7500031993611029  0.024142800100591385  0.9758555762058382  1.0000
  H   H1        1.0  0.02362978832712772  0.7936136245946981  0.11325963451006525  1.0000
  H   H2        1.0  0.4763691556122609  0.8867412268587882  0.20638592294773164  1.0000
  H   H3        1.0  0.9763685350974426  0.2063868691671829  0.8867379414976712  1.0000
  H   H4        1.0  0.5236336148302313  0.11325733996868335  0.7936152822159743  1.0000
  H   H5        1.0  0.17504719227675028  0.7159496681523903  0.15250637239886095  1.0000
  H   H6        1.0  0.3249526569956629  0.8474901763355687  0.2840474399263685  1.0000
  H   H7        1.0  0.824947269285296  0.28404695004540753  0.8474957643359392  1.0000
  H   H8        1.0  0.6750481697389503  0.15250647209330734  0.7159522403919071  1.0000
  H   H9        1.0  0.9571296453340138  0.19785866178417416  0.6334826972811956  1.0000
  H   H10       1.0  0.5428673972496937  0.366522635214906  0.8021482329736788  1.0000
  H   H11       1.0  0.04287285488987182  0.8021427723715174  0.36652107205668477  1.0000
  H   H12       1.0  0.457124673434265  0.6334768386187903  0.19785760384154835  1.0000
  H   H13       1.0  0.0962306848349357  0.15922848464840908  0.4216658441876434  1.0000
  H   H14       1.0  0.40376946325246604  0.5783421682473743  0.8407709947121023  1.0000
  H   H15       1.0  0.903773972037932  0.8407835314641049  0.578335634589273  1.0000
  H   H16       1.0  0.5962266590222284  0.4216592550606818  0.15923142583333322  1.0000
  H   H17       1.0  0.699616515305621  0.09637744812898318  0.2778822359147314  1.0000
  H   H18       1.0  0.8003874603072203  0.7221181603314122  0.9036250330380401  1.0000
  H   H19       1.0  0.300393498896362  0.9036230687508034  0.7221171786776427  1.0000
  H   H20       1.0  0.19961249103463527  0.27787656343036815  0.09637493273727672  1.0000
  H   H21       1.0  0.5790296214622046  0.13317985282839828  0.49479183411403244  1.0000
  H   H22       1.0  0.9209720419485804  0.5052044374617637  0.8668298920062157  1.0000
  H   H23       1.0  0.4209770977215256  0.8668216386329558  0.5052030042956448  1.0000
  H   H24       1.0  0.07902695670426849  0.49478929802555155  0.133175019159836  1.0000
  H   H25       1.0  0.35501291090910303  0.3602069870671583  0.3923353492723935  1.0000
  H   H26       1.0  0.14497902784211186  0.607664583379609  0.6397922983326156  1.0000
  H   H27       1.0  0.6449800996872384  0.6397934944244523  0.6076617369431363  1.0000
  H   H28       1.0  0.8550191122425516  0.39233782678027734  0.36020603582232985  1.0000
  H   H29       1.0  0.3580871047807221  0.1752614386443127  0.5669030101655822  1.0000
  H   H30       1.0  0.14190712894704663  0.43309609342986716  0.8247376020257633  1.0000
  H   H31       1.0  0.6419068776695626  0.8247400020465957  0.4330948384726626  1.0000
  H   H32       1.0  0.8580887940169645  0.5669072705055029  0.17526082015567113  1.0000
  C   C1        1.0  0.9049982919310438  0.17552866465904765  0.5514508111483991  1.0000
  C   C2        1.0  0.5950034808478079  0.4485477442788905  0.824476560176237  1.0000
  C   C3        1.0  0.09500594630173251  0.8244766382142783  0.44854858206642945  1.0000
  C   C4        1.0  0.40499117363660286  0.5514469429833183  0.17552767231808283  1.0000
  C   C5        1.0  0.9811113043414891  0.1545574950407484  0.43448213838213706  1.0000
  C   C6        1.0  0.518893054119573  0.5655252069838567  0.8454474879548145  1.0000
  C   C7        1.0  0.018894781137987607  0.8454506916989782  0.5655177317983658  1.0000
  C   C8        1.0  0.48110820722590825  0.4344781304548987  0.1545590344367582  1.0000
  C   C9        1.0  0.9080064997207059  0.12324594206060618  0.3340625446033202  1.0000
  C   C10       1.0  0.5919828666961068  0.6659407229810907  0.8767576548472039  1.0000
  C   C11       1.0  0.09199348441650562  0.8767593568115329  0.6659353152150518  1.0000
  C   C12       1.0  0.4079998235981178  0.3340568133372769  0.12324635193439805  1.0000
  C   C13       1.0  0.9864725407031184  0.08794660923368977  0.20974423380447155  1.0000
  C   C14       1.0  0.5135410356646374  0.7902701397624199  0.9120429042796517  1.0000
  C   C15       1.0  0.013534360966716012  0.912042342260676  0.7902614654373538  1.0000
  C   C16       1.0  0.4864773138248421  0.20974291054913147  0.08795157018020922  1.0000
  C   C17       1.0  0.7601744694464116  0.11867102477955876  0.35413948531377326  1.0000
  C   C18       1.0  0.7398322580868422  0.6458644388138166  0.8813340213943878  1.0000
  C   C19       1.0  0.2398352681486458  0.8813323691201732  0.6458605908482937  1.0000
  C   C20       1.0  0.2601713973308861  0.35413603814317424  0.11866975221900593  1.0000
  C   C21       1.0  0.6937197696200103  0.1394903762988449  0.4745027010362862  1.0000
  C   C22       1.0  0.8062777527411951  0.5254912404842853  0.8605168920684251  1.0000
  C   C23       1.0  0.3062857847874128  0.860512086898794  0.5254892791911558  1.0000
  C   C24       1.0  0.19371699181608898  0.4745024910018428  0.13948648570116973  1.0000
  C   C25       1.0  0.3081359258039739  0.37330515923899543  0.4894219880457343  1.0000
  C   C26       1.0  0.19185550091681597  0.510575379477302  0.6266911397917099  1.0000
  C   C27       1.0  0.6918581467191771  0.6266953256758395  0.5105750058677858  1.0000
  C   C28       1.0  0.8081384751451568  0.48942607090532414  0.3733048062420537  1.0000
  C   C29       1.0  0.3110251172837337  0.2705860641184116  0.5858046428880642  1.0000
  C   C30       1.0  0.188965256819067  0.4141944466139618  0.7294135368240833  1.0000
  C   C31       1.0  0.6889645273864248  0.7294163186556657  0.4141944296829367  1.0000
  C   C32       1.0  0.8110286355583508  0.5858079498530201  0.2705851665388864  1.0000
  C   C33       1.0  0.24999451173494686  0.2911880521626954  0.7088081444659837  1.0000
  C   C34       1.0  0.7499984988613946  0.7088124293289154  0.291188941749546  1.0000
  C   C35       1.0  0.24999244647649016  0.18449471835168643  0.8155015368280589  1.0000
  C   C36       1.0  0.7499973751452558  0.815505757716103  0.18449487499124476  1.0000
  N   N1        1.0  0.7639266003489239  0.16581956693040922  0.5721885049992111  1.0000
  N   N2        1.0  0.7360736521562714  0.42781462642949447  0.8341907973138236  1.0000
  N   N3        1.0  0.236080047926869  0.8341828512318511  0.42781289594863386  1.0000
  N   N4        1.0  0.26392364447720235  0.5721858106046865  0.16581733532057544  1.0000
  N   N5        1.0  0.2499943702829057  0.4918141857993558  0.5081873987700336  1.0000
  N   N6        1.0  0.7499983669006695  0.5081891678663337  0.4918113003174299  1.0000
  O   O1        1.0  0.12176830641099198  0.07987301410626198  0.20213051342416583  1.0000
  O   O2        1.0  0.37823880545519734  0.7978806280280821  0.9201267819534282  1.0000
  O   O3        1.0  0.8782496395553848  0.9201226751678319  0.7978782509641676  1.0000
  O   O4        1.0  0.6217579992898906  0.20212465088265927  0.0798732573754464  1.0000
  O   O5        1.0  0.914341200628634  0.06456611713662139  0.12035958885655867  1.0000
  O   O6        1.0  0.5856714679258417  0.8796492743065792  0.9354122973718049  1.0000
  O   O7        1.0  0.08568419691927427  0.9354074997949835  0.8796499840024057  1.0000
  O   O8        1.0  0.4143323069486584  0.12034938316961785  0.06457169204954738  1.0000
  O   O9        1.0  0.34254836128203436  0.0884490372770017  0.8085475462051974  1.0000
  O   O10       1.0  0.1574430837274079  0.19144671694443352  0.9115470642150927  1.0000
  O   O11       1.0  0.657448897021567  0.9115514579075064  0.19144917080230078  1.0000
  O   O12       1.0  0.8425504832769448  0.8085480056614286  0.08844965016329805  1.0000
  O   O13       1.0  0.12049434517666671  0.8041638984609912  0.13658939714358112  1.0000
  O   O14       1.0  0.37950541624460493  0.8634111586878034  0.19583526961363876  1.0000
  O   O15       1.0  0.8795020632874183  0.19583463328953593  0.8634152157388899  1.0000
  O   O16       1.0  0.6204954104900082  0.13658548974107276  0.804164410704637  1.0000
