data_image0
_chemical_formula_structural       Mn3H30C36N24
_chemical_formula_sum              "Mn3 H30 C36 N24"
_cell_length_a       8.575041416309183
_cell_length_b       11.004767651159076
_cell_length_c       11.38729417161636
_cell_angle_alpha    72.74986462646523
_cell_angle_beta     71.30402290814465
_cell_angle_gamma    89.04295948899143

_space_group_name_H-M_alt    "P 1"
_space_group_IT_number       1

loop_
  _space_group_symop_operation_xyz
  'x, y, z'

loop_
  _atom_site_type_symbol
  _atom_site_label
  _atom_site_symmetry_multiplicity
  _atom_site_fract_x
  _atom_site_fract_y
  _atom_site_fract_z
  _atom_site_occupancy
  Mn  Mn1       1.0  0.11970563628760539  0.1129999651851463  0.3684923046589076  1.0000
  Mn  Mn2       1.0  0.8787150901668355  0.8853639457011439  0.6332620372871317  1.0000
  Mn  Mn3       1.0  0.5019167362893742  0.5016392376525617  0.9984878186678399  1.0000
  H   H1        1.0  0.883403143131254  0.2619057247868001  0.22188659161965762  1.0000
  H   H2        1.0  0.1170696496399373  0.7376413065910797  0.7785062855734424  1.0000
  H   H3        1.0  0.7113669086315325  0.4459799808098667  0.21777325349954424  1.0000
  H   H4        1.0  0.288910265273536  0.5535217405120606  0.7824653430871464  1.0000
  H   H5        1.0  0.8213420888068728  0.4743925183109783  0.5547023097478385  1.0000
  H   H6        1.0  0.1793806852719797  0.5258782226336579  0.4450915733681597  1.0000
  H   H7        1.0  0.99587709279772  0.29438463547823096  0.5398859504349218  1.0000
  H   H8        1.0  0.004633230734626214  0.7056837693959042  0.460300546893606  1.0000
  H   H9        1.0  0.6564786373713575  0.6258854489525165  0.47197749907947156  1.0000
  H   H10       1.0  0.3437990737052914  0.3738702344874484  0.5280330061713272  1.0000
  H   H11       1.0  0.5835262187020974  0.6147243934987472  0.22666721330718068  1.0000
  H   H12       1.0  0.4163906549653618  0.38477543455285723  0.7735759084929371  1.0000
  H   H13       1.0  0.37954690682853004  0.9791570799920992  0.4804791071266478  1.0000
  H   H14       1.0  0.6208605425342171  0.0205614342954377  0.5195708149115816  1.0000
  H   H15       1.0  0.5510488546485987  0.7963513267139106  0.476042983204053  1.0000
  H   H16       1.0  0.44940924532965454  0.20336675343982336  0.5238532635193209  1.0000
  H   H17       1.0  0.40822839282137113  0.7662062647723289  0.15281309093851547  1.0000
  H   H18       1.0  0.5914974266113545  0.23319940527671432  0.8475660866831448  1.0000
  H   H19       1.0  0.2489928542786117  0.9572284782905954  0.16745674808667124  1.0000
  H   H20       1.0  0.750998367727199  0.04238258258638441  0.8328180624484744  1.0000
  H   H21       1.0  0.1293988877749115  0.5214724115096204  0.11741007052079057  1.0000
  H   H22       1.0  0.872511916407376  0.4791876345368422  0.8821114918822841  1.0000
  H   H23       1.0  0.9230689341843145  0.682575666693495  0.13811699982581158  1.0000
  H   H24       1.0  0.07728026845691718  0.3171618411094385  0.8614570142715294  1.0000
  H   H25       1.0  0.3095889986363147  0.9697617546718436  0.8587583823700057  1.0000
  H   H26       1.0  0.6888708991643  0.03134914891238339  0.14062032321218243  1.0000
  H   H27       1.0  0.4983367816216742  0.7990585428432126  0.8510864837484391  1.0000
  H   H28       1.0  0.5014813427363762  0.20302673897792545  0.14821684289907464  1.0000
  H   H29       1.0  0.8508610137381112  0.8980610661335433  0.06830427813892463  1.0000
  H   H30       1.0  0.14800092979351834  0.10177220202532308  0.9316656761406749  1.0000
  C   C1        1.0  0.8673339201512462  0.31298472191734567  0.29317098124442226  1.0000
  C   C2        1.0  0.13311507659636135  0.6867139093904843  0.707103643433335  1.0000
  C   C3        1.0  0.7709120226262414  0.4155759091500499  0.29191142046699525  1.0000
  C   C4        1.0  0.2294401140287832  0.5840724026495181  0.7082915356635623  1.0000
  C   C5        1.0  0.7527574351209054  0.4791800029703169  0.3857959555620027  1.0000
  C   C6        1.0  0.24760838201163432  0.5206001693540117  0.6142887140833935  1.0000
  C   C7        1.0  0.8336110597401997  0.4314728703262319  0.47769236983018715  1.0000
  C   C8        1.0  0.16692165689078564  0.5685491025956326  0.5223148461370427  1.0000
  C   C9        1.0  0.9301513367737613  0.3297621435724807  0.47055796102187486  1.0000
  C   C10       1.0  0.07037468710969111  0.6702443997545019  0.5295922976695236  1.0000
  C   C11       1.0  0.6589455855726527  0.5895653130356424  0.3920451109384827  1.0000
  C   C12       1.0  0.34126889264900484  0.41014690038953466  0.6080143789482122  1.0000
  C   C13       1.0  0.5820075026577528  0.6500995834093362  0.3069576158136513  1.0000
  C   C14       1.0  0.4180905088984161  0.3495038397646654  0.693181678061279  1.0000
  C   C15       1.0  0.39183337121285433  0.9300229859653939  0.40815504207524367  1.0000
  C   C16       1.0  0.6084356596364628  0.06964001281589564  0.5919481645865402  1.0000
  C   C17       1.0  0.48546131886994465  0.8265404714841865  0.40591719310291546  1.0000
  C   C18       1.0  0.5148082802590821  0.1731197109690612  0.5941331093377684  1.0000
  C   C19       1.0  0.4929802707244805  0.7625542522267141  0.31391021206945163  1.0000
  C   C20       1.0  0.507147438414613  0.23705036192644974  0.6862258553492849  1.0000
  C   C21       1.0  0.406606124229299  0.8118337123685821  0.22602635757232997  1.0000
  C   C22       1.0  0.5933594097728161  0.18769607509641878  0.7742173614176834  1.0000
  C   C23       1.0  0.3170201808261552  0.9171189726936932  0.23422437634745558  1.0000
  C   C24       1.0  0.683001877501276  0.08244560913223613  0.766016632127929  1.0000
  C   C25       1.0  0.16400842927994572  0.622061244823243  0.062196158294220504  1.0000
  C   C26       1.0  0.83698449138231  0.37866221005166534  0.9372573495265398  1.0000
  C   C27       1.0  0.04951172416685521  0.7119439927091095  0.07297821206271489  1.0000
  C   C28       1.0  0.9507089444728437  0.28827437186245675  0.9265040366574478  1.0000
  C   C29       1.0  0.0981297660185021  0.8418291547213599  0.002916681018781717  1.0000
  C   C30       1.0  0.9011557630889868  0.15852098478916332  0.9967404050213629  1.0000
  C   C31       1.0  0.2636631682701278  0.872211036931475  0.9200359448539572  1.0000
  C   C32       1.0  0.7354866823780098  0.12879174598896276  0.079385471086745  1.0000
  C   C33       1.0  0.370095974131374  0.7761334701404511  0.9146367184903779  1.0000
  C   C34       1.0  0.6297856386039626  0.22538080913898284  0.08469555083142664  1.0000
  C   C35       1.0  0.9795482855236558  0.9363051931173346  0.019359217232406033  1.0000
  C   C36       1.0  0.019270947795519102  0.06368039869678911  0.9805961474526369  1.0000
  N   N1        1.0  0.16334697270849574  0.17751850600315322  0.15821996815568434  1.0000
  N   N2        1.0  0.8366402978188746  0.821548098427023  0.8403969580717925  1.0000
  N   N3        1.0  0.2404036527621756  0.2717526671425503  0.0796191557869506  1.0000
  N   N4        1.0  0.7588692452751146  0.7278295490732845  0.9197904848318075  1.0000
  N   N5        1.0  0.31595106483466406  0.3652999306032428  0.9985931099571345  1.0000
  N   N6        1.0  0.6823866563189965  0.6346923490506668  0.0013703210890910072  1.0000
  N   N7        1.0  0.31017500798637343  0.24580175795395587  0.36853067822903535  1.0000
  N   N8        1.0  0.6932667209987501  0.7541963522859731  0.6315714130029448  1.0000
  N   N9        1.0  0.3518717022685039  0.3484425800381815  0.28992562128555477  1.0000
  N   N10       1.0  0.6477013275983268  0.6521084672129689  0.7107031285093653  1.0000
  N   N11       1.0  0.39356197530696596  0.45141212856103874  0.21301800499689696  1.0000
  N   N12       1.0  0.602092405216041  0.5497084817169694  0.7883328270336063  1.0000
  N   N13       1.0  0.07512961651477919  0.0307822043014383  0.5797069958289071  1.0000
  N   N14       1.0  0.9240661854794825  0.9685504242865264  0.4208843910402821  1.0000
  N   N15       1.0  0.09355555757739611  0.0956855083454613  0.6441277668578635  1.0000
  N   N16       1.0  0.9059146904270037  0.9037371729713402  0.3563188398561862  1.0000
  N   N17       1.0  0.11225864542909393  0.16118958479579965  0.7031681817091311  1.0000
  N   N18       1.0  0.8872582366157432  0.8380873965923287  0.29740256910498175  1.0000
  N   N19       1.0  0.9489185042650519  0.2706810974486942  0.37938025659096297  1.0000
  N   N20       1.0  0.0515333776241249  0.729167331804085  0.6209097232074824  1.0000
  N   N21       1.0  0.32344004345004146  0.6523034420748601  0.9853336570818881  1.0000
  N   N22       1.0  0.6774265149540499  0.3491145574181901  0.014077183775121634  1.0000
  N   N23       1.0  0.30775822924110235  0.975809216065578  0.32449558941537743  1.0000
  N   N24       1.0  0.6924337477447579  0.023831181179474498  0.6756715931516267  1.0000
