data_image0
_chemical_formula_structural       Zn8H8C40O34F4
_chemical_formula_sum              "Zn8 H8 C40 O34 F4"
_cell_length_a       15.94276066550777
_cell_length_b       15.941966696794124
_cell_length_c       17.108121378795342
_cell_angle_alpha    117.55857984592538
_cell_angle_beta     117.56029666213402
_cell_angle_gamma    90.41694178519192

_space_group_name_H-M_alt    "P 1"
_space_group_IT_number       1

loop_
  _space_group_symop_operation_xyz
  'x, y, z'

loop_
  _atom_site_type_symbol
  _atom_site_label
  _atom_site_symmetry_multiplicity
  _atom_site_fract_x
  _atom_site_fract_y
  _atom_site_fract_z
  _atom_site_occupancy
  Zn  Zn1       1.0  0.7049231957914729  0.3071836772787366  0.4123878295815616  1.0000
  Zn  Zn2       1.0  0.10541237717778527  0.7059287732751329  0.4096969507545579  1.0000
  Zn  Zn3       1.0  0.7059233976329224  0.10540656483495789  0.4096867334147589  1.0000
  Zn  Zn4       1.0  0.29407569983362686  0.8945885126304917  0.5903094351961895  1.0000
  Zn  Zn5       1.0  0.8945881976902044  0.29406954295053833  0.590303594393781  1.0000
  Zn  Zn6       1.0  0.2950781080276101  0.6928141300904544  0.587615733308965  1.0000
  Zn  Zn7       1.0  0.6928289937163044  0.29507462506994403  0.5876228497242835  1.0000
  Zn  Zn8       1.0  0.3071715700746082  0.7049201493289631  0.4123767443013763  1.0000
  H   H1        1.0  0.34633455978418237  0.04352984501780815  0.9296462340279491  1.0000
  H   H2        1.0  0.3717580980098276  0.9693474151979589  0.17654675390930658  1.0000
  H   H3        1.0  0.9697562455853727  0.3715754663233072  0.17657770750227544  1.0000
  H   H4        1.0  0.030239931110791898  0.6284301150235196  0.8234229076631862  1.0000
  H   H5        1.0  0.6282468945635884  0.03064930466136674  0.8234544262657266  1.0000
  H   H6        1.0  0.6536638140410959  0.9564713956647997  0.07035403922549247  1.0000
  H   H7        1.0  0.9561279187617728  0.6534519977225914  0.07031977093034669  1.0000
  H   H8        1.0  0.043874145145295494  0.3465495690403132  0.9296799002037801  1.0000
  C   C1        1.0  0.8859783230586089  0.38941032410185983  0.7777580967699224  1.0000
  C   C2        1.0  0.47276462877208997  0.9734349137440362  0.500212286901281  1.0000
  C   C3        1.0  0.9734308817763804  0.472766584552403  0.5002118787988578  1.0000
  C   C4        1.0  0.0265682314821021  0.5272398068686287  0.4997962010029511  1.0000
  C   C5        1.0  0.5272359407860705  0.026557748120957632  0.4997811358623848  1.0000
  C   C6        1.0  0.9731786323092563  0.026813652391595628  0.499995276611692  1.0000
  C   C7        1.0  0.026821938050169095  0.9731853653949329  0.5000084924132295  1.0000
  C   C8        1.0  0.11402298656210519  0.6105867830150302  0.22224165884939845  1.0000
  C   C9        1.0  0.9091902642064652  0.4081479291313174  0.5002187267982592  1.0000
  C   C10       1.0  0.09080958642528002  0.5918586680796525  0.4997897606760731  1.0000
  C   C11       1.0  0.5918527582982022  0.0907995467960419  0.49977518172907764  1.0000
  C   C12       1.0  0.4081441374275344  0.9091963360496396  0.5002174606980958  1.0000
  C   C13       1.0  0.9091761388364716  0.0908159133174565  0.49999252480178313  1.0000
  C   C14       1.0  0.6105642219586825  0.11404913098839137  0.22224886206875985  1.0000
  C   C15       1.0  0.0908236947790328  0.9091821931925991  0.5000093628579022  1.0000
  C   C16       1.0  0.5906971685159802  0.409321400655422  0.5000147303365948  1.0000
  C   C17       1.0  0.40930340505892815  0.5906769142616926  0.4999863982063745  1.0000
  C   C18       1.0  0.5268078058996508  0.47320169474235046  0.5000081620447929  1.0000
  C   C19       1.0  0.47319719523346737  0.5268013888898438  0.49999986402376345  1.0000
  C   C20       1.0  0.38943636461572584  0.8859520215775163  0.7777511605095596  1.0000
  C   C21       1.0  0.5210960607135036  0.09536106236273414  0.03093489692759014  1.0000
  C   C22       1.0  0.4789037871945681  0.9046398831046717  0.9690653013728223  1.0000
  C   C23       1.0  0.9046539913826805  0.47868847697088074  0.969040804403143  1.0000
  C   C24       1.0  0.0953473292807274  0.5213107596911541  0.030957538348076262  1.0000
  C   C25       1.0  0.41510872548048644  0.02460482431084902  0.9611796257747613  1.0000
  C   C26       1.0  0.584889654180806  0.9753971284010703  0.038819204198269  1.0000
  C   C27       1.0  0.9752020175604342  0.5847691012762796  0.03879292874226076  1.0000
  C   C28       1.0  0.0247985716001153  0.41523205390674184  0.9612059270468051  1.0000
  C   C29       1.0  0.4469394253695995  0.9431867506806882  0.8930819960382336  1.0000
  C   C30       1.0  0.5530604205816729  0.05681348668308319  0.10691789535871264  1.0000
  C   C31       1.0  0.0567880913374452  0.5530773548823759  0.10691209724567588  1.0000
  C   C32       1.0  0.9432139725696231  0.4469242118805284  0.893087573888444  1.0000
  C   C33       1.0  0.5557873571446237  0.014704250708277307  0.9636475560715355  1.0000
  C   C34       1.0  0.4442110179737284  0.98529699128288  0.036352133787282685  1.0000
  C   C35       1.0  0.9854834914594475  0.4441320326441983  0.03635502573300888  1.0000
  C   C36       1.0  0.014519307234742502  0.5558697372915375  0.9636462198628877  1.0000
  C   C37       1.0  0.6240399256458601  0.039143959722942254  0.9357302376699224  1.0000
  C   C38       1.0  0.3759584657906174  0.9608636538924316  0.06427279771467183  1.0000
  C   C39       1.0  0.9612663990906752  0.3758012470473633  0.06430479705178287  1.0000
  C   C40       1.0  0.0387378684796289  0.6241988101573311  0.9356963431787833  1.0000
  O   O1        1.0  0.7499733798246949  0.25002760831532106  0.5000020523919203  1.0000
  O   O2        1.0  0.204472705690236  0.6124691072123198  0.2670335551622927  1.0000
  O   O3        1.0  0.6124317091340431  0.2044993081130714  0.2670482739617557  1.0000
  O   O4        1.0  0.38757034502340554  0.7955001304132384  0.732952226645857  1.0000
  O   O5        1.0  0.9492641664419565  0.3924301870492003  0.5742964165878277  1.0000
  O   O6        1.0  0.0507364032537367  0.6075681239422436  0.4257064621390042  1.0000
  O   O7        1.0  0.6075709874322186  0.05072520929847004  0.4256982219177701  1.0000
  O   O8        1.0  0.39241928426993405  0.9492709522914283  0.574288755193919  1.0000
  O   O9        1.0  0.2500271950432946  0.7499707079103504  0.4999984927564185  1.0000
  O   O10       1.0  0.9517367012737807  0.1829058312557523  0.5527428762830199  1.0000
  O   O11       1.0  0.04826313751402009  0.8170922804885309  0.44725667779817263  1.0000
  O   O12       1.0  0.8170896293274268  0.048255216308234705  0.44723308905444986  1.0000
  O   O13       1.0  0.18291094162695737  0.9517416837101537  0.552766842286971  1.0000
  O   O14       1.0  0.5941327277173939  0.36314384187114973  0.5450090536638115  1.0000
  O   O15       1.0  0.4058685819377104  0.6368546775273533  0.45499306594630445  1.0000
  O   O16       1.0  0.6368750381712829  0.40589157080564325  0.45502533577960935  1.0000
  O   O17       1.0  0.3631218387533296  0.5941021746435455  0.5449722198834125  1.0000
  O   O18       1.0  0.8194635187975763  0.3743025560971491  0.42619012788868094  1.0000
  O   O19       1.0  0.1805348486311047  0.6257015026058996  0.5738177903194598  1.0000
  O   O20       1.0  0.6256962595978804  0.1805269049676141  0.5738013577419352  1.0000
  O   O21       1.0  0.37430504023883765  0.8194666616310614  0.42619686336007595  1.0000
  O   O22       1.0  0.9335044553507571  0.3474631631923162  0.7349597476226962  1.0000
  O   O23       1.0  0.0664998174262195  0.6525383115282182  0.26504142302017186  1.0000
  O   O24       1.0  0.6525388354389888  0.06652156840717546  0.2650383196638089  1.0000
  O   O25       1.0  0.34746248131081353  0.9334762520475767  0.734959409280485  1.0000
  O   O26       1.0  0.7955271200636886  0.3875247546015645  0.7329647408927544  1.0000
  O   O27       1.0  0.7108672236789457  0.08455708132142095  0.9993272997985159  1.0000
  O   O28       1.0  0.5788061941093687  0.007779049870464442  0.8335261852688516  1.0000
  O   O29       1.0  0.289125324191204  0.9154680073898405  0.0006795938100694081  1.0000
  O   O30       1.0  0.4211995058559594  0.9922079597107045  0.16647227271950274  1.0000
  O   O31       1.0  0.9161042847639392  0.2889042029171804  0.0007619105250780579  1.0000
  O   O32       1.0  0.9925104512790313  0.4210547664936756  0.1664817919904067  1.0000
  O   O33       1.0  0.08391102708714727  0.711092569512445  0.9992419992676247  1.0000
  O   O34       1.0  0.007482042464438602  0.5789512021107087  0.8335173986193425  1.0000
  F   F1        1.0  0.5420379847617839  0.1914022944609003  0.059647527322709906  1.0000
  F   F2        1.0  0.4579596523539635  0.808599447226847  0.9403532285562902  1.0000
  F   F3        1.0  0.8086262892482381  0.45753331540218783  0.9403014916676115  1.0000
  F   F4        1.0  0.1913750392423736  0.542468753674413  0.05969807869745129  1.0000
