data_image0
_chemical_formula_structural       Cu6H14C20N16
_chemical_formula_sum              "Cu6 H14 C20 N16"
_cell_length_a       7.8253594250755505
_cell_length_b       8.667443404322649
_cell_length_c       10.377892174486233
_cell_angle_alpha    111.45535190132101
_cell_angle_beta     99.6377243348924
_cell_angle_gamma    103.68080907539307

_space_group_name_H-M_alt    "P 1"
_space_group_IT_number       1

loop_
  _space_group_symop_operation_xyz
  'x, y, z'

loop_
  _atom_site_type_symbol
  _atom_site_label
  _atom_site_symmetry_multiplicity
  _atom_site_fract_x
  _atom_site_fract_y
  _atom_site_fract_z
  _atom_site_occupancy
  Cu  Cu1       1.0  0.38223445475515644  0.17291671899022276  0.3858021989002936  1.0000
  Cu  Cu2       1.0  0.6177796508221363  0.8270816182642944  0.614201805906447  1.0000
  Cu  Cu3       1.0  0.5375840953995166  0.9528472299742246  0.23112141593577457  1.0000
  Cu  Cu4       1.0  0.4624209734967621  0.04715526632881509  0.7688771034210334  1.0000
  Cu  Cu5       1.0  0.6833954846459915  0.6885410743313612  0.9873074884133788  1.0000
  Cu  Cu6       1.0  0.3165909167523182  0.3114590375351867  0.012700724506409182  1.0000
  H   H1        1.0  0.2811641590968179  0.2806969128599093  0.6100722801833102  1.0000
  H   H2        1.0  0.7188335101436534  0.7192951082867579  0.3899307940095298  1.0000
  H   H3        1.0  0.7314959885965635  0.28217613756989124  0.4462715153212572  1.0000
  H   H4        1.0  0.26851450844416286  0.717834160311618  0.5537319902020884  1.0000
  H   H5        1.0  0.31969282470677746  0.5491181194099967  0.8236334549363706  1.0000
  H   H6        1.0  0.680315495761647  0.4508935562102464  0.17636734900386136  1.0000
  H   H7        1.0  0.7859547234449378  0.5401719907150593  0.6658548450263739  1.0000
  H   H8        1.0  0.21403552631220887  0.45982152911003027  0.3341411245331188  1.0000
  H   H9        1.0  0.09692791534084931  0.6803193024284654  0.9789847898406097  1.0000
  H   H10       1.0  0.9030743718119538  0.3196833028369568  0.02100477883671913  1.0000
  H   H11       1.0  0.9737600928603241  0.762423723038836  0.8724069421263395  1.0000
  H   H12       1.0  0.02624495313767739  0.23757878019171122  0.1275906130655642  1.0000
  H   H13       1.0  0.21719366154837866  0.8093929198970782  0.9024552856437396  1.0000
  H   H14       1.0  0.7827953482230398  0.19060858731861433  0.09753534544494613  1.0000
  C   C1        1.0  0.4722596500115159  0.4182141412943281  0.4716193217932344  1.0000
  C   C2        1.0  0.5277453710410213  0.5817803909255301  0.5283843994367388  1.0000
  C   C3        1.0  0.9733908406802809  0.0976111793100145  0.37681657180907285  1.0000
  C   C4        1.0  0.02661157609351503  0.9023979134370846  0.6231904708460476  1.0000
  C   C5        1.0  0.9998125767687114  0.2517681044987724  0.5078907391140463  1.0000
  C   C6        1.0  0.00019347246352188107  0.7482330096629324  0.49211420188787974  1.0000
  C   C7        1.0  0.4429185060547454  0.10268129384397887  0.1708677146380637  1.0000
  C   C8        1.0  0.5570872138092753  0.8973224573804116  0.8291389821449329  1.0000
  C   C9        1.0  0.16708406604811188  0.3313968131439679  0.6173152026347709  1.0000
  C   C10       1.0  0.8329042829396939  0.6686019902588995  0.3826860702190303  1.0000
  C   C11       1.0  0.8628341192975099  0.3302395407470086  0.5271907406604371  1.0000
  C   C12       1.0  0.13715550913528324  0.6697421992134238  0.4727898917509421  1.0000
  C   C13       1.0  0.629507368457574  0.4486607661795502  0.894839139758581  1.0000
  C   C14       1.0  0.3704819160932045  0.551340657906081  0.10516306130902818  1.0000
  C   C15       1.0  0.19141340614405064  0.48126120452140236  0.7379415466070398  1.0000
  C   C16       1.0  0.808576590708412  0.5187284025371425  0.26204738223992763  1.0000
  C   C17       1.0  0.8922337754424489  0.4783808022124346  0.650964816040876  1.0000
  C   C18       1.0  0.10775979458168186  0.5216218761473427  0.34903633059676054  1.0000
  C   C19       1.0  0.08774852192680534  0.7116061027349616  0.8854181075313081  1.0000
  C   C20       1.0  0.9122507998884826  0.28841624712550373  0.1145908282771374  1.0000
  N   N1        1.0  0.11115164864780519  0.04289499641716789  0.33269295280110367  1.0000
  N   N2        1.0  0.8888447327631893  0.957097048036914  0.6673099847940946  1.0000
  N   N3        1.0  0.48722200493090645  0.02838348737649449  0.45868765026450137  1.0000
  N   N4        1.0  0.5127776280522339  0.9716177363947904  0.5413175719140995  1.0000
  N   N5        1.0  0.033711676867376625  0.8988437044302343  0.2084767657995101  1.0000
  N   N6        1.0  0.9662970234637455  0.10114682431832017  0.7915232170056115  1.0000
  N   N7        1.0  0.8550456708336538  0.8664900174479085  0.17714882868279608  1.0000
  N   N8        1.0  0.1449679679857425  0.1335109984343248  0.8228511469155536  1.0000
  N   N9        1.0  0.8114175760956852  0.9880433711614671  0.2792808041635838  1.0000
  N   N10       1.0  0.18860077018198498  0.011960223191309197  0.7207166527818742  1.0000
  N   N11       1.0  0.4254416863361428  0.7056056042332202  0.16480680364917086  1.0000
  N   N12       1.0  0.5745496831938226  0.2943944698237003  0.8351942423419204  1.0000
  N   N13       1.0  0.3957881540776995  0.1715278395742033  0.09847118221266983  1.0000
  N   N14       1.0  0.6041954884754119  0.8284723743272266  0.9015290441925361  1.0000
  N   N15       1.0  0.05536199473209546  0.5524720548809724  0.7540281064478549  1.0000
  N   N16       1.0  0.9446416479214362  0.4475265173254215  0.2459680564233367  1.0000
