data_image0
_chemical_formula_structural       Sr2H30C16N2O24
_chemical_formula_sum              "Sr2 H30 C16 N2 O24"
_cell_length_a       7.60224863501974
_cell_length_b       10.150404470017122
_cell_length_c       10.742281737790856
_cell_angle_alpha    114.08419102400157
_cell_angle_beta     105.56583295078782
_cell_angle_gamma    100.45609553076147

_space_group_name_H-M_alt    "P 1"
_space_group_IT_number       1

loop_
  _space_group_symop_operation_xyz
  'x, y, z'

loop_
  _atom_site_type_symbol
  _atom_site_label
  _atom_site_symmetry_multiplicity
  _atom_site_fract_x
  _atom_site_fract_y
  _atom_site_fract_z
  _atom_site_occupancy
  Sr  Sr1       1.0  0.9406435532863923  0.6722654906694814  0.3271012393439107  1.0000
  Sr  Sr2       1.0  0.11358206862960435  0.3454096977777966  0.6728708187376499  1.0000
  H   H1        1.0  0.8371873998135795  0.9807504155890708  0.5184631415156459  1.0000
  H   H2        1.0  0.8156640802420014  0.460674150203019  0.4795339409418702  1.0000
  H   H3        1.0  0.8053179412270239  0.8539606737135303  0.5631621053799308  1.0000
  H   H4        1.0  0.7419753882460753  0.289610615280644  0.43687750524650687  1.0000
  H   H5        1.0  0.5775538726322368  0.7431708360087228  0.19092210251150735  1.0000
  H   H6        1.0  0.886555143957551  0.5521485254964134  0.8086761384105046  1.0000
  H   H7        1.0  0.5650463688973559  0.5987355693230043  0.04782320599096585  1.0000
  H   H8        1.0  0.016937079932986997  0.5508549133518842  0.9519622731871067  1.0000
  H   H9        1.0  0.21175634438350951  0.7013035585847192  0.16728812670721288  1.0000
  H   H10       1.0  0.5448437479153296  0.5338802809190356  0.8325742074413185  1.0000
  H   H11       1.0  0.1805331875456844  0.5272333703539474  0.12666359803841937  1.0000
  H   H12       1.0  0.5541761361596899  0.40036810245746335  0.8732710902894497  1.0000
  H   H13       1.0  0.26961494833474836  0.5905984161377023  0.4480415659290671  1.0000
  H   H14       1.0  0.32155299198710446  0.142285888364917  0.5518665564112126  1.0000
  H   H15       1.0  0.2235793630078292  0.4531195001116758  0.2893927777238261  1.0000
  H   H16       1.0  0.4344113931947361  0.16360609755712122  0.7105870139242397  1.0000
  H   H17       1.0  0.6141711326794237  0.5864050589325559  0.4421673114040346  1.0000
  H   H18       1.0  0.6718186590067389  0.143856572511993  0.5579765633655001  1.0000
  H   H19       1.0  0.5264649388085941  0.4734008653211176  0.27049013045186837  1.0000
  H   H20       1.0  0.7561571510585808  0.20330932039170346  0.7297449008453116  1.0000
  H   H21       1.0  0.4067863941963594  0.8358196543852614  0.43137904514516384  1.0000
  H   H22       1.0  0.4750849400934527  0.4042416990852403  0.5682339080514325  1.0000
  H   H23       1.0  0.31443689438015804  0.9229433196229095  0.5381284658617531  1.0000
  H   H24       1.0  0.2759489579725027  0.38499312979339356  0.46165701411921845  1.0000
  H   H25       1.0  0.6358143239632454  0.992231802283854  0.7639557435007518  1.0000
  H   H26       1.0  0.3714699636955315  0.22832567642361573  0.2364191252900412  1.0000
  H   H27       1.0  0.8559341687340946  0.7795721971998973  0.020618050419990784  1.0000
  H   H28       1.0  0.3351275388919889  0.7591586329929925  0.9795628618793657  1.0000
  H   H29       1.0  0.8773135988959737  0.2466975253967831  0.2389009678162566  1.0000
  H   H30       1.0  0.13895690329415794  0.008341600148760602  0.7614722072611072  1.0000
  C   C1        1.0  0.7571824812796704  0.13630834477987722  0.0012520517315976916  1.0000
  C   C2        1.0  0.25590683950066045  0.1353657562891684  0.9990984304898519  1.0000
  C   C3        1.0  0.7048424408905518  0.0009538988631164007  0.8709979718628773  1.0000
  C   C4        1.0  0.33359659116461415  0.13009566428918617  0.12934282356798119  1.0000
  C   C5        1.0  0.7391746483597926  0.8738533587521503  0.8801806977287682  1.0000
  C   C6        1.0  0.3587541305644065  0.993777880879655  0.12006675535619135  1.0000
  C   C7        1.0  0.8262132392685118  0.8779930910497455  0.014569210384877442  1.0000
  C   C8        1.0  0.3114750740694917  0.8636405920843375  0.9856724927060796  1.0000
  C   C9        1.0  0.8755374328138784  0.013101133498196301  0.1450441901098358  1.0000
  C   C10       1.0  0.2306468026932934  0.8684445392124475  0.8552508287764269  1.0000
  C   C11       1.0  0.8392871698085215  0.1408227881735797  0.13748229701832315  1.0000
  C   C12       1.0  0.20203966553219738  0.0037657636319750015  0.8628818013315466  1.0000
  C   C13       1.0  0.7225307411972537  0.27666811821779197  0.9966736570237983  1.0000
  C   C14       1.0  0.2260186239912798  0.2803435398965206  0.0036263032259498296  1.0000
  C   C15       1.0  0.9647316259561904  0.017160927352449604  0.2925090458118831  1.0000
  C   C16       1.0  0.17258125548040248  0.7251943189973817  0.7076629479981237  1.0000
  N   N1        1.0  0.6812365335396535  0.7341454386360696  0.7440372244563777  1.0000
  N   N2        1.0  0.43683905972748965  0.9899971807140844  0.25609929906671186  1.0000
  O   O1        1.0  0.7651094519365103  0.3939244567860032  0.11617149002967865  1.0000
  O   O2        1.0  0.14936530986341984  0.27815739428658054  0.8840958603881716  1.0000
  O   O3        1.0  0.8092005641580116  0.8703609564492824  0.4805075595831952  1.0000
  O   O4        1.0  0.8286128592073254  0.3892495062324386  0.5184883511106975  1.0000
  O   O5        1.0  0.6510320548486916  0.680210138442142  0.14968575607505133  1.0000
  O   O6        1.0  0.0012898383706599682  0.5305416122605564  0.8501594923309668  1.0000
  O   O7        1.0  0.11159973372631535  0.6050667847656683  0.13439110162450876  1.0000
  O   O8        1.0  0.4776171431077997  0.4705609764151646  0.8655034316612102  1.0000
  O   O9        1.0  0.18760685742233113  0.4843786476935747  0.3768122147057085  1.0000
  O   O10       1.0  0.31099133901376064  0.10735768634296511  0.6231665235749517  1.0000
  O   O11       1.0  0.6468450060565444  0.5241726900078023  0.3600672264576801  1.0000
  O   O12       1.0  0.7869981088741793  0.1645489124481614  0.6402388184748347  1.0000
  O   O13       1.0  0.32300627977397073  0.819175314448174  0.48222674953311206  1.0000
  O   O14       1.0  0.340361255664213  0.3369120908206399  0.5173948202320489  1.0000
  O   O15       1.0  0.6495962604368656  0.265881083092701  0.8677690022425324  1.0000
  O   O16       1.0  0.281928291248299  0.3984517172141367  0.13251828209238437  1.0000
  O   O17       1.0  0.941214257483942  0.11495994181507291  0.4014135044295841  1.0000
  O   O18       1.0  0.0405372259533508  0.7144938970015602  0.5987550778914468  1.0000
  O   O19       1.0  0.05172533731862247  0.9219722744450254  0.2925387331832782  1.0000
  O   O20       1.0  0.2592897763452342  0.6297999575423887  0.7076059463401521  1.0000
  O   O21       1.0  0.6782440853469611  0.611553301312597  0.747190969896252  1.0000
  O   O22       1.0  0.43088036985516714  0.8642160225519151  0.25277622917789727  1.0000
  O   O23       1.0  0.6351594725624636  0.7389271923480153  0.6263295982514097  1.0000
  O   O24       1.0  0.5082577200052681  0.112325254842645  0.3739527143573723  1.0000
