data_image0
_chemical_formula_structural       Cu2H48C52N12O12
_chemical_formula_sum              "Cu2 H48 C52 N12 O12"
_cell_length_a       9.364572901580313
_cell_length_b       11.780507998847844
_cell_length_c       13.200747494928754
_cell_angle_alpha    114.97078770339435
_cell_angle_beta     110.79998987881946
_cell_angle_gamma    89.99313683534578

_space_group_name_H-M_alt    "P 1"
_space_group_IT_number       1

loop_
  _space_group_symop_operation_xyz
  'x, y, z'

loop_
  _atom_site_type_symbol
  _atom_site_label
  _atom_site_symmetry_multiplicity
  _atom_site_fract_x
  _atom_site_fract_y
  _atom_site_fract_z
  _atom_site_occupancy
  Cu  Cu1       1.0  0.9999998264730081  0.49999989188088284  0.4999989682206093  1.0000
  Cu  Cu2       1.0  0.5000003288524012  9.260551437006407e-07  0.5000014984778359  1.0000
  H   H1        1.0  0.6564861653026028  0.6927723140541318  0.48502739964251873  1.0000
  H   H2        1.0  0.17163938603051324  0.8072425268768202  0.5150853784534775  1.0000
  H   H3        1.0  0.3435142035273628  0.3072269359241987  0.5149701530071908  1.0000
  H   H4        1.0  0.8283604742697861  0.1927595609245004  0.4849154054554178  1.0000
  H   H5        1.0  0.8677271095106959  0.10959215639025646  0.9399222452809113  1.0000
  H   H6        1.0  0.927588967137275  0.39044121826361794  0.060029380908161976  1.0000
  H   H7        1.0  0.1322739981425727  0.8904051639682465  0.060077783754806505  1.0000
  H   H8        1.0  0.07241141129424022  0.609558013224195  0.9399704397272401  1.0000
  H   H9        1.0  0.9383439838282681  0.17948293996803952  0.8662589268930956  1.0000
  H   H10       1.0  0.07175722244124222  0.32037019421217394  0.1336601556701282  1.0000
  H   H11       1.0  0.06165411740175844  0.8205162837335253  0.13374183820828742  1.0000
  H   H12       1.0  0.9282449214615909  0.6796318890483733  0.8663411957632547  1.0000
  H   H13       1.0  0.7446541776928443  0.08865160440910812  0.790926598892213  1.0000
  H   H14       1.0  0.9536572808392023  0.41143051056779  0.20903800026837158  1.0000
  H   H15       1.0  0.255345276428983  0.9113485622062715  0.20907562164521942  1.0000
  H   H16       1.0  0.04634309439179419  0.5885687270835332  0.7909610643717996  1.0000
  H   H17       1.0  0.25889523961176764  0.7585319367545014  0.8958749950812575  1.0000
  H   H18       1.0  0.3627051773228586  0.7415937805148901  0.10431922979201154  1.0000
  H   H19       1.0  0.7411039938179727  0.24146730316720522  0.10412378579666644  1.0000
  H   H20       1.0  0.6372960358692481  0.25840925020024497  0.8956830095529398  1.0000
  H   H21       1.0  0.3377944318907566  0.8176633706776004  0.8203218582000674  1.0000
  H   H22       1.0  0.5175274748453802  0.6825334960689418  0.17972286971417634  1.0000
  H   H23       1.0  0.6622045904484465  0.18233492405990157  0.179675751004055  1.0000
  H   H24       1.0  0.4824723918559639  0.3174685794053644  0.8202794261851877  1.0000
  H   H25       1.0  0.3215372993024914  0.9265313902299754  0.9594453275078224  1.0000
  H   H26       1.0  0.36193703050388853  0.5736193765803678  0.040656451095131364  1.0000
  H   H27       1.0  0.6784642113287446  0.0734678574779721  0.04055250890413477  1.0000
  H   H28       1.0  0.6380651101984327  0.42638271284369006  0.959344144343028  1.0000
  H   H29       1.0  0.6258191220852324  0.3821536563503543  0.4677302286121545  1.0000
  H   H30       1.0  0.15813707603769697  0.11799035238380641  0.5323511547620967  1.0000
  H   H31       1.0  0.37418053032505577  0.6178474801032581  0.5322701396181627  1.0000
  H   H32       1.0  0.8418644537966388  0.882008858343092  0.46765121762124584  1.0000
  H   H33       1.0  0.3937047484870817  0.22789584856985814  0.29643248707117925  1.0000
  H   H34       1.0  0.09724861449986827  0.27208095824696693  0.7035948380560767  1.0000
  H   H35       1.0  0.6062979231485244  0.772103359886657  0.7035701690744107  1.0000
  H   H36       1.0  0.9027529121339553  0.7279182586434345  0.29640677833203444  1.0000
  H   H37       1.0  0.30152554688980615  0.22833401681089777  0.0947142966917767  1.0000
  H   H38       1.0  0.2069557355201397  0.27153487065452  0.9052814219281445  1.0000
  H   H39       1.0  0.6984746364537742  0.7716642386751715  0.9052881322459713  1.0000
  H   H40       1.0  0.7930450682929687  0.7284662450381847  0.09472149805011308  1.0000
  H   H41       1.0  0.44578476408757683  0.381866808454575  0.06529050603190714  1.0000
  H   H42       1.0  0.38058133130274285  0.11802261666785803  0.9347127983296133  1.0000
  H   H43       1.0  0.5542127102718837  0.6181295673673759  0.9347082560385047  1.0000
  H   H44       1.0  0.619417707039048  0.8819756472521052  0.06528859085066341  1.0000
  H   H45       1.0  0.6811999322194495  0.5351963332981455  0.23804389390881653  1.0000
  H   H46       1.0  0.44323389622353193  0.9647521952449554  0.7619727953568401  1.0000
  H   H47       1.0  0.3187990997213106  0.4648019429488386  0.7619559832809911  1.0000
  H   H48       1.0  0.5567662839195221  0.0352460664046177  0.23802887758568397  1.0000
  C   C1        1.0  0.7727019430151075  0.6711384245698043  0.5198438086531993  1.0000
  C   C2        1.0  0.25283969189866434  0.8288972385123972  0.48015195722184967  1.0000
  C   C3        1.0  0.22729728721411385  0.3288608215154127  0.4801542162295008  1.0000
  C   C4        1.0  0.7471601652011158  0.17110485545243395  0.5198480706918147  1.0000
  C   C5        1.0  0.8784486274547091  0.7727835087385841  0.6280826410749824  1.0000
  C   C6        1.0  0.2503864355002747  0.727205040804357  0.3719639579061749  1.0000
  C   C7        1.0  0.12155195246578639  0.2272166864239509  0.3719160832485429  1.0000
  C   C8        1.0  0.7496145634007759  0.2727970508900839  0.6280363537697369  1.0000
  C   C9        1.0  0.029205480250311742  0.7588532351885962  0.691928510426557  1.0000
  C   C10       1.0  0.3372637540371173  0.7411730174120877  0.3081588545775488  1.0000
  C   C11       1.0  0.9707950964696719  0.24114696613744266  0.3080694579017305  1.0000
  C   C12       1.0  0.6627340273501545  0.2588300324412245  0.6918410214902053  1.0000
  C   C13       1.0  0.059727160924403215  0.9650521104600431  0.8641662638518781  1.0000
  C   C14       1.0  0.1957772276726857  0.5348259970826917  0.13589530730180854  1.0000
  C   C15       1.0  0.9402741482178528  0.034946173573175095  0.1358326688719559  1.0000
  C   C16       1.0  0.804220137934557  0.46517515007519716  0.86410373740879  1.0000
  C   C17       1.0  0.8189481233894751  0.8873353923802514  0.6789008799191903  1.0000
  C   C18       1.0  0.14023137941767772  0.6125251042953936  0.32107696497696026  1.0000
  C   C19       1.0  0.18105111004026492  0.11266384754144809  0.32109790095873336  1.0000
  C   C20       1.0  0.8597673390813653  0.38747698577631695  0.6789235351696875  1.0000
  C   C21       1.0  0.8637080247234293  0.09785129172173872  0.8521465925225017  1.0000
  C   C22       1.0  0.011423692240264008  0.4021179188039811  0.1477818412880936  1.0000
  C   C23       1.0  0.1362910072173236  0.9021469845252384  0.14785328466731332  1.0000
  C   C24       1.0  0.9885780390830591  0.5978822555976393  0.8522194347833646  1.0000
  C   C25       1.0  0.26815562579333374  0.8385003882303155  0.8752638451583153  1.0000
  C   C26       1.0  0.39284526021249633  0.6616157906178728  0.12487762418082583  1.0000
  C   C27       1.0  0.7318433933453503  0.16149791267069696  0.12473300805056912  1.0000
  C   C28       1.0  0.6071548111783398  0.3383872423676523  0.8751243314018852  1.0000
  C   C29       1.0  0.664568140866116  0.4683840619413218  0.36272219262831834  1.0000
  C   C30       1.0  0.3020514527497724  0.03170771409835281  0.6373517026648443  1.0000
  C   C31       1.0  0.3354299539628797  0.5316151740872641  0.637277060482603  1.0000
  C   C32       1.0  0.6979516218637941  0.968293421707614  0.3626487608569775  1.0000
  C   C33       1.0  0.5847353302947552  0.3815160006709418  0.379232669392806  1.0000
  C   C34       1.0  0.20564289726605267  0.11855219369857652  0.6208092957040918  1.0000
  C   C35       1.0  0.41526640422907957  0.618484167567175  0.620769362673883  1.0000
  C   C36       1.0  0.7943574843659819  0.8814470316257257  0.37919128092654136  1.0000
  C   C37       1.0  0.4543218867807751  0.29570263316114165  0.28277457265459555  1.0000
  C   C38       1.0  0.1716538334021109  0.20431851607683887  0.7172406639089317  1.0000
  C   C39       1.0  0.5456787059417961  0.7042975373473654  0.7172271756498461  1.0000
  C   C40       1.0  0.8283471783010087  0.7956835509635736  0.28276267174790337  1.0000
  C   C41       1.0  0.4034366886520501  0.2959270953238615  0.16964056758927626  1.0000
  C   C42       1.0  0.23399923776576512  0.20408691375583027  0.8303667203492252  1.0000
  C   C43       1.0  0.5965609967979405  0.704070225682287  0.8303593661549371  1.0000
  C   C44       1.0  0.7660036353588209  0.7959132583754068  0.16963483948447317  1.0000
  C   C45       1.0  0.48495148277998357  0.38205290781817786  0.1535412463677517  1.0000
  C   C46       1.0  0.3316348485912215  0.11795052751408264  0.8464850999590823  1.0000
  C   C47       1.0  0.515046407359506  0.6179453706991894  0.8464583470598156  1.0000
  C   C48       1.0  0.6683653315518399  0.8820477341354905  0.15351657298344198  1.0000
  C   C49       1.0  0.6155514980643346  0.46822186625195183  0.24947884171059806  1.0000
  C   C50       1.0  0.3663109651452173  0.031843829252835604  0.7505857159340934  1.0000
  C   C51       1.0  0.3844465967646542  0.5317773697766341  0.7505204114003164  1.0000
  C   C52       1.0  0.6336896307778801  0.968156335092161  0.24941678836558628  1.0000
  N   N1        1.0  0.7966211184186847  0.5564244462398094  0.4623944809972969  1.0000
  N   N2        1.0  0.3341923388934518  0.9436326455379601  0.5375684975426083  1.0000
  N   N3        1.0  0.2033794615018181  0.44357574892272567  0.5376042433262213  1.0000
  N   N4        1.0  0.6658105342311343  0.05636752659327732  0.4624330622910903  1.0000
  N   N5        1.0  0.11440171642779269  0.8549188178570408  0.8079260235074062  1.0000
  N   N6        1.0  0.3066705006645591  0.6450180776151982  0.19224969103419914  1.0000
  N   N7        1.0  0.8855988570916721  0.14508138963250874  0.19207118882565064  1.0000
  N   N8        1.0  0.6933302935469995  0.35498305656803103  0.8077509609583658  1.0000
  N   N9        1.0  0.9176509245859918  0.9803806168224939  0.7947943173681012  1.0000
  N   N10       1.0  0.1229322650133184  0.5195107688786749  0.20516793088083315  1.0000
  N   N11       1.0  0.0823483088437484  0.019618623099205507  0.2052044635098227  1.0000
  N   N12       1.0  0.8770698756890027  0.48049132054537586  0.7948326645573189  1.0000
  O   O1        1.0  0.093122434365057  0.663356874279664  0.6532983832181003  1.0000
  O   O2        1.0  0.43969796694651814  0.8367373013013478  0.34672311388610666  1.0000
  O   O3        1.0  0.9068796903346693  0.3366452459619325  0.34669843224389746  1.0000
  O   O4        1.0  0.5603007387504491  0.16326481342439084  0.6532743622796175  1.0000
  O   O5        1.0  0.6871327021655135  0.9055229512532396  0.6278226695087882  1.0000
  O   O6        1.0  0.05957565903165122  0.5942447155759966  0.3721347719197183  1.0000
  O   O7        1.0  0.3128659171957294  0.09447341613481802  0.372177132319095  1.0000
  O   O8        1.0  0.9404251415809384  0.4057564062802117  0.6278673920633082  1.0000
  O   O9        1.0  0.13463616155820549  0.04505439980494692  0.9700162155405536  1.0000
  O   O10       1.0  0.16493279871195196  0.45480852218945966  0.030094645223769628  1.0000
  O   O11       1.0  0.8653650260297497  0.9549486802182516  0.029979975842543652  1.0000
  O   O12       1.0  0.835064765183752  0.545193594806662  0.9699025471797142  1.0000
