data_image0
_chemical_formula_structural       Cd2H28C40N4O12
_chemical_formula_sum              "Cd2 H28 C40 N4 O12"
_cell_length_a       10.38668592619633
_cell_length_b       9.996862602558549
_cell_length_c       9.996859335884718
_cell_angle_alpha    72.34536259339444
_cell_angle_beta     74.5880728779882
_cell_angle_gamma    74.58807474786481

_space_group_name_H-M_alt    "P 1"
_space_group_IT_number       1

loop_
  _space_group_symop_operation_xyz
  'x, y, z'

loop_
  _atom_site_type_symbol
  _atom_site_label
  _atom_site_symmetry_multiplicity
  _atom_site_fract_x
  _atom_site_fract_y
  _atom_site_fract_z
  _atom_site_occupancy
  Cd  Cd1       1.0  0.24999970452211076  0.9605886578812527  0.03941160963359651  1.0000
  Cd  Cd2       1.0  0.7500020263590271  0.039410591278397085  0.9605873479331067  1.0000
  H   H1        1.0  0.37985687937503326  0.8550332891610137  0.7346296399360527  1.0000
  H   H2        1.0  0.12014488598217812  0.26536487278553966  0.14496291374463516  1.0000
  H   H3        1.0  0.6201434857016463  0.1449627104991507  0.26536976286137565  1.0000
  H   H4        1.0  0.8798540568295649  0.7346332998257026  0.8550371587040716  1.0000
  H   H5        1.0  0.4495520995928928  0.9450843489588506  0.44005824891907963  1.0000
  H   H6        1.0  0.050449740872004205  0.5599346827323471  0.05491559694910824  1.0000
  H   H7        1.0  0.5504438682923052  0.05491375401430788  0.5599406548812027  1.0000
  H   H8        1.0  0.9495471952224788  0.44006351853597175  0.9450860130966064  1.0000
  H   H9        1.0  0.20361097237262976  0.048004229582986106  0.3528229162428715  1.0000
  H   H10       1.0  0.2963888342895799  0.6471735335505642  0.9520008142593498  1.0000
  H   H11       1.0  0.7963849553418924  0.9519940021029709  0.6471799590361941  1.0000
  H   H12       1.0  0.703606886482447  0.3528257694021163  0.04800176322868319  1.0000
  H   H13       1.0  0.03861582504685401  0.20863685468236065  0.8785693778053842  1.0000
  H   H14       1.0  0.46138099355030704  0.12143553735854336  0.791365545417314  1.0000
  H   H15       1.0  0.961384276626852  0.7913656386950974  0.12142995162156475  1.0000
  H   H16       1.0  0.5386180897007691  0.8785670186147454  0.20863604211267986  1.0000
  H   H17       1.0  0.029350832188846696  0.421597176631863  0.6678431656426583  1.0000
  H   H18       1.0  0.4706454007010735  0.3321579848757138  0.5784073679340481  1.0000
  H   H19       1.0  0.9706490725850471  0.5784063558341115  0.3321548731235638  1.0000
  H   H20       1.0  0.5293550847295946  0.6678424625028894  0.42159553568406244  1.0000
  H   H21       1.0  0.0725931045967414  0.6573419408682638  0.5776277588535949  1.0000
  H   H22       1.0  0.42740779512316596  0.42237276624300074  0.34266077327681194  1.0000
  H   H23       1.0  0.9274092107367194  0.3426594525853943  0.42237033076738584  1.0000
  H   H24       1.0  0.572597681993976  0.5776276899384173  0.6573407685230209  1.0000
  H   H25       1.0  0.07871028251965842  0.8616886710205234  0.36049346717742037  1.0000
  H   H26       1.0  0.42129648613722986  0.639505879415104  0.13831327783755396  1.0000
  H   H27       1.0  0.9212960261629772  0.13831272947538045  0.6395035329889326  1.0000
  H   H28       1.0  0.5787102163450442  0.36049344290375973  0.8616863036502667  1.0000
  C   C1        1.0  0.0726734133796397  0.9078740368137019  0.8314066368780574  1.0000
  C   C2        1.0  0.42732905781318203  0.16858948727809767  0.0921258842765695  1.0000
  C   C3        1.0  0.9273255093467652  0.09212420015394679  0.16859542131004449  1.0000
  C   C4        1.0  0.5726712708883569  0.8314118704762306  0.907871757202024  1.0000
  C   C5        1.0  0.17215282826288805  0.926518539443144  0.6943174315514185  1.0000
  C   C6        1.0  0.3278475799428406  0.3056758284819167  0.07348230510910268  1.0000
  C   C7        1.0  0.8278447487444037  0.07347638366861275  0.3056830861280135  1.0000
  C   C8        1.0  0.6721505714740915  0.6943212711020407  0.9265183374943007  1.0000
  C   C9        1.0  0.3124200219321763  0.9002467493279693  0.6585036603091796  1.0000
  C   C10       1.0  0.1875806964413299  0.3414918175205058  0.09975303965600096  1.0000
  C   C11       1.0  0.6875777155997795  0.09975249278943468  0.34149638671214433  1.0000
  C   C12       1.0  0.8124170410906328  0.6585074245968979  0.900247007365323  1.0000
  C   C13       1.0  0.34815748031745386  0.9483235224451216  0.5063803003215172  1.0000
  C   C14       1.0  0.15184168612584867  0.4936136485536549  0.05167681197922757  1.0000
  C   C15       1.0  0.6518364808504842  0.05167460918511319  0.49362014107577323  1.0000
  C   C16       1.0  0.8481550794012872  0.5063802658872233  0.9483262615942895  1.0000
  C   C17       1.0  0.22805254621661664  0.001401410458385  0.45834327311402495  1.0000
  C   C18       1.0  0.2719469776376258  0.5416519890439274  0.9986038216473576  1.0000
  C   C19       1.0  0.7719424132886202  0.9985967229324114  0.5416568959196155  1.0000
  C   C20       1.0  0.7280507498516612  0.4583472852516691  0.0013972182436676154  1.0000
  C   C21       1.0  0.13181972518062676  0.2403729860027609  0.8079422415064599  1.0000
  C   C22       1.0  0.3681776290793336  0.19206041978198127  0.759630208662692  1.0000
  C   C23       1.0  0.8681803664504099  0.7596295395528898  0.19205808079018302  1.0000
  C   C24       1.0  0.6318203053524413  0.807937783246899  0.24037112901936553  1.0000
  C   C25       1.0  0.12772072096650788  0.3592827983136857  0.6912775970029232  1.0000
  C   C26       1.0  0.37227718355127587  0.30872385481819004  0.6407196342314309  1.0000
  C   C27       1.0  0.872279814677526  0.6407174881739265  0.3087203422667102  1.0000
  C   C28       1.0  0.6277231049795728  0.691277631648937  0.35928197872594597  1.0000
  C   C29       1.0  0.24999784010299916  0.3956275715938844  0.6043749772032784  1.0000
  C   C30       1.0  0.7500034768931626  0.6043738200992052  0.3956233847813593  1.0000
  C   C31       1.0  0.2500006298172721  0.5206782732256554  0.4793226467368046  1.0000
  C   C32       1.0  0.7500026738108118  0.4793231541667635  0.5206761633902135  1.0000
  C   C33       1.0  0.15077733787997977  0.6469013127794054  0.4819015248002146  1.0000
  C   C34       1.0  0.349225396936191  0.518098196232799  0.35310188095723305  1.0000
  C   C35       1.0  0.8492257688482849  0.35310115370153733  0.5180959946660766  1.0000
  C   C36       1.0  0.6507798832811389  0.4819032990371426  0.6468983701818658  1.0000
  C   C37       1.0  0.15419712310508513  0.7623704440187637  0.3616603316535959  1.0000
  C   C38       1.0  0.3458079198303423  0.6383397693605984  0.2376308672186483  1.0000
  C   C39       1.0  0.8458083841400705  0.23762991562805513  0.6383382315371479  1.0000
  C   C40       1.0  0.6541983587242794  0.3616617276699116  0.7623691115567939  1.0000
  N   N1        1.0  0.24999824693911418  0.15846184551838854  0.8415411824748702  1.0000
  N   N2        1.0  0.7500000549598196  0.8415396052494157  0.15845998234011915  1.0000
  N   N3        1.0  0.2500039825579988  0.7589087885811663  0.24109088106344256  1.0000
  N   N4        1.0  0.7500047165988591  0.2410905372588203  0.7589081556970712  1.0000
  O   O1        1.0  0.11734237119935641  0.8659435567437511  0.9473883982371593  1.0000
  O   O2        1.0  0.38265945087147907  0.05260813814140159  0.13405773936381846  1.0000
  O   O3        1.0  0.8826569089515315  0.13405796014102114  0.052614479953568674  1.0000
  O   O4        1.0  0.6173422699669898  0.9473911431964481  0.8659422110725786  1.0000
  O   O5        1.0  0.94717168354704  0.9335404512405533  0.8235460059709042  1.0000
  O   O6        1.0  0.5528317742010885  0.17645060765664763  0.06645766296522021  1.0000
  O   O7        1.0  0.05282824755932581  0.06645775530945738  0.1764547869838466  1.0000
  O   O8        1.0  0.4471695628804112  0.8235507196800423  0.9335387132800222  1.0000
  O   O9        1.0  0.12014607082736009  0.9883719025006383  0.5708241201655258  1.0000
  O   O10       1.0  0.3798557323865736  0.42917322755895526  0.011631149440930195  1.0000
  O   O11       1.0  0.8798524743892101  0.0116231189062788  0.4291791037593385  1.0000
  O   O12       1.0  0.6201425996403742  0.5708281266742502  0.9883670367649702  1.0000
