data_image0
_chemical_formula_structural       CuH30C26N4O8
_chemical_formula_sum              "Cu1 H30 C26 N4 O8"
_cell_length_a       7.573682039111218
_cell_length_b       8.880334139970268
_cell_length_c       10.581173484768428
_cell_angle_alpha    69.75736234142575
_cell_angle_beta     75.40364414025332
_cell_angle_gamma    68.55438504710543

_space_group_name_H-M_alt    "P 1"
_space_group_IT_number       1

loop_
  _space_group_symop_operation_xyz
  'x, y, z'

loop_
  _atom_site_type_symbol
  _atom_site_label
  _atom_site_symmetry_multiplicity
  _atom_site_fract_x
  _atom_site_fract_y
  _atom_site_fract_z
  _atom_site_occupancy
  Cu  Cu1       1.0  3.44655752848078e-07  0.9999998165709131  1.1035432167237219e-08  1.0000
  H   H1        1.0  0.805714205678484  0.3262477130128403  0.2995853296060957  1.0000
  H   H2        1.0  0.19428662465296742  0.6737513305915216  0.7004157492126595  1.0000
  H   H3        1.0  0.325784009497845  0.6975223603414803  0.975147415743983  1.0000
  H   H4        1.0  0.674218185792448  0.30247668138699174  0.02485340649548814  1.0000
  H   H5        1.0  0.38398621488704515  0.38032473661986904  0.057466555268980805  1.0000
  H   H6        1.0  0.6160114347761906  0.6196755640934767  0.9425338033705799  1.0000
  H   H7        1.0  0.11552145753771735  0.27153430057643385  0.19556617952875405  1.0000
  H   H8        1.0  0.8844775833326394  0.728466013426704  0.8044358033821838  1.0000
  H   H9        1.0  0.757549748002951  0.788894979510502  0.14824550751308155  1.0000
  H   H10       1.0  0.24245244728734863  0.2111040622179701  0.8517553147263968  1.0000
  H   H11       1.0  0.5004919983029765  0.3637417283638982  0.46586738389834176  1.0000
  H   H12       1.0  0.4995070031949638  0.6362585628907169  0.5341317777366115  1.0000
  H   H13       1.0  0.44672736485355796  0.35086462186053075  0.31984741264813726  1.0000
  H   H14       1.0  0.5532712121421284  0.6491369379169855  0.6801523964997144  1.0000
  H   H15       1.0  0.1820874010288875  0.6278070881234472  0.3018341988499529  1.0000
  H   H16       1.0  0.8179139190086174  0.3721944754851306  0.6981660375646684  1.0000
  H   H17       1.0  0.2313778273006833  0.6421070120611745  0.4493764971526204  1.0000
  H   H18       1.0  0.7686239172390755  0.35789328302450946  0.5506230917491024  1.0000
  H   H19       1.0  0.10778550857789782  0.356193055277032  0.4335462379372004  1.0000
  H   H20       1.0  0.8922144596249024  0.6438085177902695  0.5664551954820353  1.0000
  H   H21       1.0  0.1584066083810072  0.36760412794327374  0.5820626358991206  1.0000
  H   H22       1.0  0.8415938364037032  0.6323999575454098  0.41793701469065064  1.0000
  H   H23       1.0  0.2004114298440669  0.9825839456287967  0.4572025969395952  1.0000
  H   H24       1.0  0.799585716988993  0.0174138274974922  0.542797663678769  1.0000
  H   H25       1.0  0.47004966527744324  0.013863952545953902  0.2669560764854211  1.0000
  H   H26       1.0  0.5299478929337339  0.9861325444746073  0.7330425961947142  1.0000
  H   H27       1.0  0.14536314500106332  0.0242742250766952  0.18818273308855277  1.0000
  H   H28       1.0  0.8546394616673538  0.9757235405460493  0.8118165012126894  1.0000
  H   H29       1.0  0.33706951374747957  0.8866402306659394  0.1535776670250897  1.0000
  H   H30       1.0  0.6629303367549823  0.1133575235429021  0.8464201995840597  1.0000
  C   C1        1.0  0.21471967303263986  0.6410659603104493  0.03544977895201383  1.0000
  C   C2        1.0  0.7852789564595924  0.3589356297984168  0.96455379189716  1.0000
  C   C3        1.0  0.2451758558635646  0.4678925826141126  0.08235108966887587  1.0000
  C   C4        1.0  0.7548249875920235  0.5321064685730905  0.9176509295752099  1.0000
  C   C5        1.0  0.0952034345436559  0.406477901618544  0.1589366632962097  1.0000
  C   C6        1.0  0.9047973826636593  0.5935211344029767  0.8410634750972149  1.0000
  C   C7        1.0  0.9142008927306122  0.52051635032538  0.18501130634886206  1.0000
  C   C8        1.0  0.08579991135256651  0.47948267811329975  0.8149878916192321  1.0000
  C   C9        1.0  0.8933434948505901  0.6938571089745552  0.13316030149020716  1.0000
  C   C10       1.0  0.10665730923258825  0.30614191946412456  0.8668388964778944  1.0000
  C   C11       1.0  0.5736616540566928  0.5441707210127547  0.2814483831525081  1.0000
  C   C12       1.0  0.4263400773589295  0.4558295664900953  0.7185502653238842  1.0000
  C   C13       1.0  0.44200084571299664  0.4422663470568154  0.3703866624358056  1.0000
  C   C14       1.0  0.5579990831173943  0.5577352032619703  0.6296119497074387  1.0000
  C   C15       1.0  0.2355319465234942  0.5509909936603776  0.3988704268459103  1.0000
  C   C16       1.0  0.764467557804636  0.4490118251813017  0.6011288328102397  1.0000
  C   C17       1.0  0.10353026596996533  0.4461913235462802  0.48534829827792686  1.0000
  C   C18       1.0  0.8964688007317676  0.5538127562354447  0.5146506684657979  1.0000
  C   C19       1.0  0.18920245197843133  0.957294703658292  0.7207836622556414  1.0000
  C   C20       1.0  0.8107970133941861  0.04270434182195971  0.27921767314239093  1.0000
  C   C21       1.0  0.3497407631997121  0.9813822642842568  0.6065821445575637  1.0000
  C   C22       1.0  0.6502586238449767  0.0186129850860439  0.39341844530637354  1.0000
  C   C23       1.0  0.3323250871920466  0.9897403391370432  0.4751997808217183  1.0000
  C   C24       1.0  0.6676738491021084  0.0102561635904692  0.5247995757044635  1.0000
  C   C25       1.0  0.4820818218547415  0.0078502117268116  0.36922452120671073  1.0000
  C   C26       1.0  0.517918041771857  0.9921475500648711  0.630774285827762  1.0000
  N   N1        1.0  0.04196328170952065  0.7499799385450814  0.062068669344490984  1.0000
  N   N2        1.0  0.958038489078511  0.2500203717062845  0.9379328004078858  1.0000
  N   N3        1.0  0.7649696328187189  0.4556071199087484  0.2623566802072119  1.0000
  N   N4        1.0  0.23503075988634245  0.544393184635659  0.7376441056991184  1.0000
  O   O1        1.0  0.5132792445196941  0.6984298329748669  0.22890154364355908  1.0000
  O   O2        1.0  0.4867215595634844  0.3015691954638129  0.7710976543245351  1.0000
  O   O3        1.0  0.059578624353228866  0.9117985599586119  0.7015906488219842  1.0000
  O   O4        1.0  0.9404186008077459  0.08820300927762051  0.2984103573304822  1.0000
  O   O5        1.0  0.19808738644102422  0.9824999990636273  0.830795568786577  1.0000
  O   O6        1.0  0.8019143712228781  0.017500303604897693  0.1692049605404691  1.0000
  O   O7        1.0  0.24824972649396684  0.9964782867196577  0.11281836251687592  1.0000
  O   O8        1.0  0.7517483345473931  0.0035207378879605028  0.887180408184449  1.0000
