data_image0
_chemical_formula_structural       Zn2H2C30N6O8F18
_chemical_formula_sum              "Zn2 H2 C30 N6 O8 F18"
_cell_length_a       11.32759208113797
_cell_length_b       15.982477638384555
_cell_length_c       17.170484330907616
_cell_angle_alpha    86.14889295192319
_cell_angle_beta     86.79803920880316
_cell_angle_gamma    68.62908064610798

_space_group_name_H-M_alt    "P 1"
_space_group_IT_number       1

loop_
  _space_group_symop_operation_xyz
  'x, y, z'

loop_
  _atom_site_type_symbol
  _atom_site_label
  _atom_site_symmetry_multiplicity
  _atom_site_fract_x
  _atom_site_fract_y
  _atom_site_fract_z
  _atom_site_occupancy
  Zn  Zn1       1.0  0.4658761297435916  0.5922096298679804  0.5094281427086926  1.0000
  Zn  Zn2       1.0  0.5265697547203984  0.40296438186310723  0.49950557880989516  1.0000
  H   H1        1.0  0.6255500309413761  0.6889959228518805  0.4427020444501437  1.0000
  H   H2        1.0  0.36941307837368953  0.30453399981759327  0.5665149509135003  1.0000
  C   C1        1.0  0.5209571387455726  0.5183157263013741  0.3545822855705864  1.0000
  C   C2        1.0  0.47505227742059475  0.4775363240732772  0.6545007981016437  1.0000
  C   C3        1.0  0.4273882058166691  0.597155201893834  0.22737581110737878  1.0000
  C   C4        1.0  0.5938198385177813  0.4148170069424069  0.7781798033760692  1.0000
  C   C5        1.0  0.43701394270616584  0.2521985419525308  0.5320751019070044  1.0000
  C   C6        1.0  0.55609606481994  0.7423887834275857  0.47519921281762817  1.0000
  C   C7        1.0  0.42990398925631007  0.16771452324476843  0.5303371556414262  1.0000
  C   C8        1.0  0.562418973128146  0.8272558146563186  0.475447064946941  1.0000
  C   C9        1.0  0.5163744108425375  0.10150818547942461  0.48326900838640086  1.0000
  C   C10       1.0  0.4726986788610575  0.8950777477305464  0.5195048911618371  1.0000
  C   C11       1.0  0.6066025560070756  0.12703610974826057  0.4387959865832797  1.0000
  C   C12       1.0  0.3791630368970333  0.8712042056628561  0.5618680683466761  1.0000
  C   C13       1.0  0.6096767733574069  0.21291572906193315  0.44502906663776526  1.0000
  C   C14       1.0  0.37709437728809553  0.7849096162800816  0.5570697755634624  1.0000
  C   C15       1.0  0.7356537014495502  0.4612515483655669  0.5176051171993448  1.0000
  C   C16       1.0  0.2563598303776545  0.5354446508987677  0.4937750010480854  1.0000
  C   C17       1.0  0.873179693373423  0.44654054708206564  0.5190451466954824  1.0000
  C   C18       1.0  0.11801535505537702  0.5516957496824871  0.4943817521098522  1.0000
  C   C19       1.0  0.9259088659140388  0.5101275095260431  0.5231875777983815  1.0000
  C   C20       1.0  0.06099512183806159  0.49354030293922335  0.521953009219878  1.0000
  C   C21       1.0  0.5220907521470723  0.5277101592518817  0.2666847732921482  1.0000
  C   C22       1.0  0.48342131988427894  0.4720408725264987  0.7420898785385572  1.0000
  C   C23       1.0  0.6119158076508312  0.4627223072918626  0.22177347534076822  1.0000
  C   C24       1.0  0.38705674901871845  0.5287019196835915  0.7899101681144953  1.0000
  C   C25       1.0  0.6052775552032088  0.4637153129673166  0.14109944710754257  1.0000
  C   C26       1.0  0.4014038399771352  0.5316841036505126  0.8695637818676684  1.0000
  C   C27       1.0  0.5056155977976574  0.531402838288791  0.10133216274396516  1.0000
  C   C28       1.0  0.5142527555541179  0.475604133422017  0.9056142410907665  1.0000
  C   C29       1.0  0.41918254614729045  0.5993192852071374  0.14658644141105978  1.0000
  C   C30       1.0  0.6085290337809184  0.41580125315881844  0.8579668323950354  1.0000
  N   N1        1.0  0.48357812025322733  0.5400472563154038  0.0212513053883967  1.0000
  N   N2        1.0  0.5390491134187487  0.46838840863280495  0.9851500778799787  1.0000
  N   N3        1.0  0.5280651668536719  0.27288643181806543  0.49029381889190654  1.0000
  N   N4        1.0  0.4625232895139107  0.7230626741029126  0.5152357188987011  1.0000
  N   N5        1.0  0.5134008294564937  0.0161624126519797  0.4714221181948374  1.0000
  N   N6        1.0  0.4755964486519349  0.9805001109164023  0.5307799319691495  1.0000
  O   O1        1.0  0.518244034652085  0.5852183843815908  0.3912621929330199  1.0000
  O   O2        1.0  0.512382742003382  0.40395267693965303  0.6204252593970807  1.0000
  O   O3        1.0  0.5198413197537518  0.443328749423145  0.38297374694395353  1.0000
  O   O4        1.0  0.4346486730476755  0.556704695571831  0.6232800213400579  1.0000
  O   O5        1.0  0.657892953502646  0.5397294155734471  0.5310761938717901  1.0000
  O   O6        1.0  0.33028505191018814  0.4541712105752326  0.5034010031048266  1.0000
  O   O7        1.0  0.7099777683913189  0.3932961754534645  0.5020335565536342  1.0000
  O   O8        1.0  0.2866474489147635  0.6045666527282094  0.483270356049459  1.0000
  F   F1        1.0  0.13287613868469353  0.4111262316084705  0.5519612537042347  1.0000
  F   F2        1.0  0.8503545747837011  0.597819146110801  0.5270961156643138  1.0000
  F   F3        1.0  0.6973371259937906  0.23635570272592327  0.4040999030985758  1.0000
  F   F4        1.0  0.2863588287861987  0.7628614350184932  0.5958600794803529  1.0000
  F   F5        1.0  0.044666968750299026  0.633143458393107  0.4639839254874472  1.0000
  F   F6        1.0  0.9519854723344922  0.3603935412276796  0.5111460496147372  1.0000
  F   F7        1.0  0.2757890117599898  0.5820832811295134  0.7592839780581  1.0000
  F   F8        1.0  0.7086265199786085  0.39670507466483684  0.25701556466290737  1.0000
  F   F9        1.0  0.3029721072022299  0.5859568370006796  0.911805617936302  1.0000
  F   F10       1.0  0.6975138675594151  0.4000872624780669  0.10245413351782416  1.0000
  F   F11       1.0  0.32332402805612054  0.6658137500767862  0.11195540651623759  1.0000
  F   F12       1.0  0.7177051151369799  0.36080856171390235  0.8893872214444014  1.0000
  F   F13       1.0  0.3377582947164654  0.6615584092926384  0.2676321892599489  1.0000
  F   F14       1.0  0.6917734489877815  0.35968859057564373  0.7357524949461974  1.0000
  F   F15       1.0  0.6582387672950889  0.8431534129086768  0.435743777349451  1.0000
  F   F16       1.0  0.3360522172923126  0.15093017626740135  0.5715699505954958  1.0000
  F   F17       1.0  0.6915531577134146  0.06916048003293437  0.39209541049682156  1.0000
  F   F18       1.0  0.2901467316595048  0.9311309589897403  0.604977086552388  1.0000
