data_image0
_chemical_formula_structural       Al4H32C64Br4O24
_chemical_formula_sum              "Al4 H32 C64 Br4 O24"
_cell_length_a       6.643007978259733
_cell_length_b       20.270731680114384
_cell_length_c       23.04197765153171
_cell_angle_alpha    86.70185976600833
_cell_angle_beta     90.00178744390642
_cell_angle_gamma    90.00116556261875

_space_group_name_H-M_alt    "P 1"
_space_group_IT_number       1

loop_
  _space_group_symop_operation_xyz
  'x, y, z'

loop_
  _atom_site_type_symbol
  _atom_site_label
  _atom_site_symmetry_multiplicity
  _atom_site_fract_x
  _atom_site_fract_y
  _atom_site_fract_z
  _atom_site_occupancy
  Al  Al1       1.0  0.7849017616905983  0.24741578739664755  0.7515387971991244  1.0000
  Al  Al2       1.0  0.2150900517716821  0.7525863537676827  0.2484593005082445  1.0000
  Al  Al3       1.0  0.28489934255731697  0.2525893785721891  0.7484622475605179  1.0000
  Al  Al4       1.0  0.7150969869106163  0.7474112538045645  0.2515362835730528  1.0000
  H   H1        1.0  0.7795800323818439  0.40146801890090705  0.00252914372129  1.0000
  H   H2        1.0  0.2204328560427342  0.5985185137053008  0.9974811129225145  1.0000
  H   H3        1.0  0.2795895210658302  0.0985224736150769  0.4974629180991954  1.0000
  H   H4        1.0  0.7204384208840082  0.9014746785039095  0.5025434353565147  1.0000
  H   H5        1.0  0.290113148872031  0.35306848998941837  0.588849366826814  1.0000
  H   H6        1.0  0.709889201655578  0.6469274408520745  0.4111456823019354  1.0000
  H   H7        1.0  0.790132019140934  0.1469338666099489  0.9111499848215702  1.0000
  H   H8        1.0  0.2098778588133996  0.8530749204209441  0.0888520314524541  1.0000
  H   H9        1.0  0.5728863343201313  0.529996384606399  0.5925528378272064  1.0000
  H   H10       1.0  0.4271084891171242  0.4699954536376437  0.40743699082771917  1.0000
  H   H11       1.0  0.07287916890663841  0.9700046709860287  0.907441225060147  1.0000
  H   H12       1.0  0.9271081293156059  0.03000971734486769  0.09256557814304502  1.0000
  H   H13       1.0  0.5593283991704538  0.6045728406602606  0.5046140961637136  1.0000
  H   H14       1.0  0.4406874993163825  0.395425816994468  0.4953770428098495  1.0000
  H   H15       1.0  0.0593123437019258  0.8954315778609538  0.9953798442223984  1.0000
  H   H16       1.0  0.9406915129965655  0.10457654232240536  0.0046247798507011  1.0000
  H   H17       1.0  0.5169801165050316  0.5608112244038068  0.052273976954090494  1.0000
  H   H18       1.0  0.6147754179555563  0.5645183378253833  0.12462078385973291  1.0000
  H   H19       1.0  0.4171366760009434  0.5073160953826701  0.1097810174365819  1.0000
  H   H20       1.0  0.3851697274056818  0.4355251369290655  0.8753047491977525  1.0000
  H   H21       1.0  0.4828521255571303  0.43909903667302064  0.9476740443706646  1.0000
  H   H22       1.0  0.58289427709542  0.4926578767963364  0.8902474871193463  1.0000
  H   H23       1.0  0.0167750691751039  0.9392846373877716  0.44778028833896855  1.0000
  H   H24       1.0  0.1146968258159617  0.9354095611330562  0.37546249644350393  1.0000
  H   H25       1.0  0.9171940885932343  0.9927132575927828  0.39018211989385787  1.0000
  H   H26       1.0  0.8850797312525742  0.0644449321460669  0.6247676189995772  1.0000
  H   H27       1.0  0.9826868794325918  0.060968276787860994  0.5523858360910338  1.0000
  H   H28       1.0  0.08289557186287769  0.0073645505642048  0.6097686587870115  1.0000
  H   H29       1.0  0.5474338358642967  0.33358686934705867  0.7290739396159154  1.0000
  H   H30       1.0  0.4525579771687589  0.6664132970302247  0.27091676584086605  1.0000
  H   H31       1.0  0.0474333212225062  0.16641846039508582  0.7709283863460927  1.0000
  H   H32       1.0  0.9525630089976361  0.8335893416173902  0.22908101950576304  1.0000
  C   C1        1.0  0.5290838449230081  0.16339618686931356  0.8270871237346712  1.0000
  C   C2        1.0  0.4709200115858679  0.8366091181653629  0.1729153241767492  1.0000
  C   C3        1.0  0.0290665112816839  0.3366041168653879  0.6729145932240995  1.0000
  C   C4        1.0  0.9709313231982931  0.6633918428834492  0.3270800211734226  1.0000
  C   C5        1.0  0.532991697343313  0.17656558650303822  0.6703443175927292  1.0000
  C   C6        1.0  0.46698355732718266  0.8234355680194553  0.3296537791679768  1.0000
  C   C7        1.0  0.033009018112466  0.3234354390652427  0.8296543931639633  1.0000
  C   C8        1.0  0.9669933326601382  0.6765683555484402  0.17034109763523733  1.0000
  C   C9        1.0  0.842563575828791  0.4921516227443873  0.0416438994107864  1.0000
  C   C10       1.0  0.15746888217785943  0.507834214176967  0.9583693998608709  1.0000
  C   C11       1.0  0.3425925795856344  0.007843061189419099  0.45835135727766396  1.0000
  C   C12       1.0  0.6574624582755177  0.9921600667717956  0.5416467415923519  1.0000
  C   C13       1.0  0.9697123530543621  0.5487740807167114  0.0407180030551757  1.0000
  C   C14       1.0  0.0303201048251935  0.4512134674636883  0.9592918198388888  1.0000
  C   C15       1.0  0.4697515092288853  0.9512158769461082  0.4592868857366454  1.0000
  C   C16       1.0  0.5303185817318125  0.04877744304165791  0.540710335082231  1.0000
  C   C17       1.0  0.1224670207115182  0.5554197994458787  0.9983225587461888  1.0000
  C   C18       1.0  0.877553394423586  0.4445682709102741  0.0016868298168262  1.0000
  C   C19       1.0  0.6224764465695786  0.9445731466840716  0.5016949967411506  1.0000
  C   C20       1.0  0.37756203282452117  0.0554249631343922  0.49831179234367795  1.0000
  C   C21       1.0  0.9610676626671973  0.5953923245019723  0.0838896496418613  1.0000
  C   C22       1.0  0.0389256564211848  0.404598154386484  0.9161206103914309  1.0000
  C   C23       1.0  0.4611118610574039  0.9046034952525942  0.4161151643699128  1.0000
  C   C24       1.0  0.5389025326843964  0.09540305670508789  0.583883372067362  1.0000
  C   C25       1.0  0.0336674688288028  0.36550584066534947  0.8778819626329266  1.0000
  C   C26       1.0  0.9663273553041094  0.634494269490638  0.12211700276899509  1.0000
  C   C27       1.0  0.5336413891918995  0.13450000649405783  0.6221184973698541  1.0000
  C   C28       1.0  0.4663564458283603  0.8655064875638916  0.37788090841142713  1.0000
  C   C29       1.0  0.16848972376948979  0.3888912323413151  0.5825232522725018  1.0000
  C   C30       1.0  0.8315066048551429  0.6110997928550218  0.41746396725741863  1.0000
  C   C31       1.0  0.6684996771957898  0.11110886505550611  0.9174745374571032  1.0000
  C   C32       1.0  0.3315086955288962  0.8889007928677941  0.0825292185212732  1.0000
  C   C33       1.0  0.0171763778290739  0.3893354013185757  0.624709709107286  1.0000
  C   C34       1.0  0.9828289829679094  0.6106575103143542  0.3752788163354452  1.0000
  C   C35       1.0  0.5171715077058608  0.110664821716334  0.8752845071717702  1.0000
  C   C36       1.0  0.48283837037556765  0.8893422540555138  0.12472098547983991  1.0000
  C   C37       1.0  0.861027027605573  0.43610988607365186  0.6181473102897571  1.0000
  C   C38       1.0  0.138985860183233  0.5638867405527322  0.38184469635049106  1.0000
  C   C39       1.0  0.3610273933817325  0.06389070661469988  0.8818492178616708  1.0000
  C   C40       1.0  0.6389900111366558  0.9361121319979447  0.1181532279374196  1.0000
  C   C41       1.0  0.8493383284015297  0.4808409634361581  0.5688524452127481  1.0000
  C   C42       1.0  0.15065800044813923  0.5191518035549975  0.43113825373981735  1.0000
  C   C43       1.0  0.3493426446655192  0.019157694107065002  0.9311422341739118  1.0000
  C   C44       1.0  0.650665727876401  0.9808501641767152  0.0688589118024794  1.0000
  C   C45       1.0  0.0033473040900773004  0.4780771183768594  0.5253225170271919  1.0000
  C   C46       1.0  0.9966685945089752  0.5219239479002055  0.47466949354205923  1.0000
  C   C47       1.0  0.5033519619266117  0.021922490576635312  0.974672005556222  1.0000
  C   C48       1.0  0.49666694777231163  0.9780785194791407  0.025328264958176305  1.0000
  C   C49       1.0  0.16459109725323634  0.4318400564638266  0.5327821168038085  1.0000
  C   C50       1.0  0.8354052314764786  0.5681538995706176  0.4672055400464856  1.0000
  C   C51       1.0  0.664599126017137  0.06815891274312239  0.9672173747987786  1.0000
  C   C52       1.0  0.33540473070962656  0.9318486563021222  0.0327881182599725  1.0000
  C   C53       1.0  0.6906129273793482  0.5282627865117105  0.5598314612827621  1.0000
  C   C54       1.0  0.3093818961210175  0.47173050269019967  0.4401588033875115  1.0000
  C   C55       1.0  0.1906106704372732  0.9717364692602788  0.9401654280829489  1.0000
  C   C56       1.0  0.8093916809616104  0.028270055348443193  0.0598409335194674  1.0000
  C   C57       1.0  0.6834145946121949  0.5696347793083661  0.5110492514824897  1.0000
  C   C58       1.0  0.3165772180419141  0.43035821904660304  0.4889379697665603  1.0000
  C   C59       1.0  0.183405889337422  0.930364486452362  0.9889467017981063  1.0000
  C   C60       1.0  0.8165949567755603  0.06964247360006232  0.0110605296530011  1.0000
  C   C61       1.0  0.5536258791152378  0.5317842835693083  0.09267680783683119  1.0000
  C   C62       1.0  0.4463569002862399  0.46818422200592374  0.9073003928475033  1.0000
  C   C63       1.0  0.0535915054960157  0.9682260984913428  0.40734642089934425  1.0000
  C   C64       1.0  0.946290424028561  0.0318256818466125  0.5927434493341366  1.0000
  Br  Br1       1.0  0.6669601231453299  0.4455571910412742  0.6784456476816132  1.0000
  Br  Br2       1.0  0.3330512593287125  0.5544434976167949  0.3215446235904267  1.0000
  Br  Br3       1.0  0.1669448315495003  0.054445187426651394  0.82154734769815  1.0000
  Br  Br4       1.0  0.8330605302318689  0.9455561134210483  0.1784559661608256  1.0000
  O   O1        1.0  0.3614834450917499  0.19613472508401486  0.6871289769485429  1.0000
  O   O2        1.0  0.6385068630751434  0.8038806755392329  0.3128626114071693  1.0000
  O   O3        1.0  0.8614997722976909  0.30387521434278864  0.8128679984772802  1.0000
  O   O4        1.0  0.13850107287738211  0.6961381536837195  0.18711706709727588  1.0000
  O   O5        1.0  0.7040614647645711  0.18145570745579684  0.8101765497288794  1.0000
  O   O6        1.0  0.2959423921797963  0.8185556633249575  0.18983112036156768  1.0000
  O   O7        1.0  0.2040689018929669  0.3185466878689951  0.6898276573945737  1.0000
  O   O8        1.0  0.7959063531996193  0.6814569636563022  0.31017739734140554  1.0000
  O   O9        1.0  0.7042875404796901  0.18897118030901075  0.6921602253417661  1.0000
  O   O10       1.0  0.295678682576245  0.8110206626802279  0.3078517747124394  1.0000
  O   O11       1.0  0.20432001950273807  0.311032434566954  0.8078405071777653  1.0000
  O   O12       1.0  0.7956793206289773  0.6889651512922937  0.1921593254906711  1.0000
  O   O13       1.0  0.8645045905897389  0.31235201504154025  0.6919550203702513  1.0000
  O   O14       1.0  0.13548722188247814  0.6876345704991138  0.3080321952236957  1.0000
  O   O15       1.0  0.36449698456161883  0.1876490072558639  0.8080428445018982  1.0000
  O   O16       1.0  0.6355128925288653  0.8123471260671022  0.19194916168940068  1.0000
  O   O17       1.0  0.5376684494328927  0.2900129704147075  0.7489185470266833  1.0000
  O   O18       1.0  0.46232938510931376  0.7099890534667993  0.251073899039298  1.0000
  O   O19       1.0  0.0376623767405135  0.2099906683103755  0.7510784702479397  1.0000
  O   O20       1.0  0.962327931457004  0.7900118793753065  0.24892093201845003  1.0000
  O   O21       1.0  0.6909486172697542  0.47906391413918203  0.0806426765956232  1.0000
  O   O22       1.0  0.309098894826505  0.5209276704323856  0.9193806267383167  1.0000
  O   O23       1.0  0.1910376469042561  0.0209267416465551  0.419337262667824  1.0000
  O   O24       1.0  0.8091077101347608  0.9790751621954783  0.5806347513906189  1.0000
