data_image0
_chemical_formula_structural       Gd4H32C24S6O28
_chemical_formula_sum              "Gd4 H32 C24 S6 O28"
_cell_length_a       7.952578983470989
_cell_length_b       10.547800405117915
_cell_length_c       14.21172851852225
_cell_angle_alpha    71.08651482284846
_cell_angle_beta     75.74485942951364
_cell_angle_gamma    77.09012292546798

_space_group_name_H-M_alt    "P 1"
_space_group_IT_number       1

loop_
  _space_group_symop_operation_xyz
  'x, y, z'

loop_
  _atom_site_type_symbol
  _atom_site_label
  _atom_site_symmetry_multiplicity
  _atom_site_fract_x
  _atom_site_fract_y
  _atom_site_fract_z
  _atom_site_occupancy
  Gd  Gd1       1.0  0.5905924562807742  0.5920485398426152  0.8584408230183058  1.0000
  Gd  Gd2       1.0  0.40940854001997445  0.40795290814285323  0.1415578224155851  1.0000
  Gd  Gd3       1.0  0.007405272525467347  0.8027269153298635  0.5967539037194456  1.0000
  Gd  Gd4       1.0  0.9925950562031148  0.1972715024556493  0.4032476859629668  1.0000
  H   H1        1.0  0.2711339189649137  0.41565394666522354  0.8227493140254865  1.0000
  H   H2        1.0  0.7288655742308308  0.5843485353056793  0.17725210150657483  1.0000
  H   H3        1.0  0.0550895059005754  0.45305551494773505  0.8914168686759609  1.0000
  H   H4        1.0  0.9449091085438397  0.5469449350750821  0.1085851653562315  1.0000
  H   H5        1.0  0.43385669033052193  0.9517002239110398  0.6159418470959467  1.0000
  H   H6        1.0  0.5661410439496706  0.0482981832132339  0.3840594009989644  1.0000
  H   H7        1.0  0.24430321487260184  0.981162237919854  0.7065425693891072  1.0000
  H   H8        1.0  0.7556943089348708  0.0188371729315051  0.29345705517612697  1.0000
  H   H9        1.0  0.5911094502702239  0.1277928107154125  0.7752466516457803  1.0000
  H   H10       1.0  0.4088882825970685  0.8722055854584101  0.22475319201171834  1.0000
  H   H11       1.0  0.41729776560733  0.028276417829012204  0.8293826375616791  1.0000
  H   H12       1.0  0.5826997582001425  0.9717229930223468  0.17061698700355532  1.0000
  H   H13       1.0  0.1892354156836262  0.8968459511095619  0.3876887906928986  1.0000
  H   H14       1.0  0.8107644928059725  0.10315447960535813  0.6123102541488663  1.0000
  H   H15       1.0  0.28775174219763494  0.7598708885858585  0.446783864631449  1.0000
  H   H16       1.0  0.7122494638693836  0.24012955019729526  0.5532157021134195  1.0000
  H   H17       1.0  0.9346489186776238  0.32716116692301256  0.7463557974478265  1.0000
  H   H18       1.0  0.0653520783295747  0.6728402865376778  0.253643550204771  1.0000
  H   H19       1.0  0.9163721096873658  0.3618173020370463  0.61720216234491  1.0000
  H   H20       1.0  0.08362800786205327  0.6381821140003298  0.38279710158911234  1.0000
  H   H21       1.0  0.9108916979047094  0.0991027179496058  0.9913246356594669  1.0000
  H   H22       1.0  0.089110805739729  0.9008977289017892  0.008675452988498535  1.0000
  H   H23       1.0  0.9902394465872245  0.1567095953122504  0.07355511862179756  1.0000
  H   H24       1.0  0.00976025425544687  0.8432918610306647  0.9264451115651084  1.0000
  H   H25       1.0  0.6568046206174997  0.5662128466439499  0.5636894202584628  1.0000
  H   H26       1.0  0.34319420006094964  0.4337865668004214  0.43631002399116886  1.0000
  H   H27       1.0  0.4850723300613496  0.4704361511400847  0.5885662242740111  1.0000
  H   H28       1.0  0.5149264927364426  0.5295632787299668  0.41143532663173943  1.0000
  H   H29       1.0  0.1891449562561718  0.7312426314859835  0.7707945219975941  1.0000
  H   H30       1.0  0.8108534484219733  0.2687588277391413  0.2292065907236278  1.0000
  H   H31       1.0  0.9863433153534088  0.726237996659556  0.8248801629452486  1.0000
  H   H32       1.0  0.013655297678113194  0.273762442412803  0.1751204666495241  1.0000
  C   C1        1.0  0.256108990360751  0.384618970872495  0.9810645583980461  1.0000
  C   C2        1.0  0.7438896233772212  0.6153814736750861  0.018936773415440214  1.0000
  C   C3        1.0  0.1798996387265673  0.3826677874652163  0.8942254740316998  1.0000
  C   C4        1.0  0.820101359693524  0.6173336769459324  0.10577527805831013  1.0000
  C   C5        1.0  0.22198945612566937  0.0852440227881459  0.5529765039167032  1.0000
  C   C6        1.0  0.7780104516574794  0.9147564024515517  0.44702183870635553  1.0000
  C   C7        1.0  0.3281217544085989  0.031264619829627804  0.6361924616060507  1.0000
  C   C8        1.0  0.6718757693988733  0.9687347910217314  0.3638071629591836  1.0000
  C   C9        1.0  0.5184843453233086  0.0594486073865284  0.7623737086504292  1.0000
  C   C10       1.0  0.4815131784841641  0.9405508034648308  0.23762591591480484  1.0000
  C   C11       1.0  0.6415654402845803  0.9337562574953469  0.7432782579865747  1.0000
  C   C12       1.0  0.3584340082797866  0.06624011739162228  0.2567225457585565  1.0000
  C   C13       1.0  0.7962029624548209  0.30010882878143974  0.9951132440847701  1.0000
  C   C14       1.0  0.20380062688143138  0.6998926189148236  0.004884338499209736  1.0000
  C   C15       1.0  0.9233849953501546  0.5355798042933345  0.6637441898573898  1.0000
  C   C16       1.0  0.07661600165704391  0.46442164916735595  0.33625515779520754  1.0000
  C   C17       1.0  0.41670616828417906  0.6370715891637531  0.652435284433551  1.0000
  C   C18       1.0  0.5832937416183129  0.3629288525016179  0.34756516484562644  1.0000
  C   C19       1.0  0.8714400572521583  0.39882262800856694  0.6842608274871793  1.0000
  C   C20       1.0  0.12856244568583722  0.6011778133675919  0.3157385589420799  1.0000
  C   C21       1.0  0.9545313052468387  0.18692123827514712  0.9987297179308285  1.0000
  C   C22       1.0  0.04546709801841329  0.8130802099995266  0.0012699903529735602  1.0000
  C   C23       1.0  0.5500044356224764  0.5217840085157733  0.6222615600380835  1.0000
  C   C24       1.0  0.44999568333984286  0.47821541847205407  0.3777391083333512  1.0000
  S   S1        1.0  0.6386007552895664  0.40006334327165405  0.7289908866058427  1.0000
  S   S2        1.0  0.36140045148390243  0.5999371009867218  0.2710093823577254  1.0000
  S   S3        1.0  0.4175532352703684  0.16293047252365514  0.6549909639977471  1.0000
  S   S4        1.0  0.582445586114531  0.8370689463959384  0.34500918247058354  1.0000
  S   S5        1.0  0.1421853488137899  0.21769301468304292  0.8974853588815678  1.0000
  S   S6        1.0  0.8578173645969186  0.7823064229660374  0.10251565107736851  1.0000
  O   O1        1.0  0.22595335107564543  0.20218721977448692  0.49125764166882396  1.0000
  O   O2        1.0  0.7740471845934208  0.7978101669078157  0.5087420604497339  1.0000
  O   O3        1.0  0.6898007323949642  0.2931064582282445  0.07821790908106863  1.0000
  O   O4        1.0  0.3101954945415314  0.7068929500301024  0.9217818957997752  1.0000
  O   O5        1.0  0.31895538399410134  0.7085391987315575  0.590876272736793  1.0000
  O   O6        1.0  0.681043226918078  0.29146122391512114  0.40912225020186804  1.0000
  O   O7        1.0  0.17271491261667654  0.3523399199082462  0.0715832854875202  1.0000
  O   O8        1.0  0.8272858774500449  0.6476625646556613  0.9284179497289315  1.0000
  O   O9        1.0  0.40656193699165033  0.4233783674777101  0.9620515310228017  1.0000
  O   O10       1.0  0.5934355896416149  0.5766210652745586  0.037950902417257744  1.0000
  O   O11       1.0  0.1258689715916077  0.006318263727209201  0.5464783825062725  1.0000
  O   O12       1.0  0.8741309368979912  0.9936821669877034  0.45352066233548544  1.0000
  O   O13       1.0  0.8319467077404639  0.6193398124084482  0.7135493964083326  1.0000
  O   O14       1.0  0.16805579519752453  0.3806606289677177  0.2864499900209267  1.0000
  O   O15       1.0  0.7825508554503102  0.39047159111024854  0.9114779064031638  1.0000
  O   O16       1.0  0.2174507694428058  0.6095268237930469  0.0885228007449328  1.0000
  O   O17       1.0  0.056380620058249085  0.5678549412669226  0.5969338765691462  1.0000
  O   O18       1.0  0.9436220912331167  0.43214447995647726  0.40306502673367106  1.0000
  O   O19       1.0  0.17093859011259127  0.8023970431567307  0.43088887392197245  1.0000
  O   O20       1.0  0.8290613183770077  0.19760338755818915  0.5691101709197852  1.0000
  O   O21       1.0  0.6025190504839912  0.8209557010424151  0.7990762133997366  1.0000
  O   O22       1.0  0.3974817374633801  0.17904676709582656  0.2009229151605965  1.0000
  O   O23       1.0  0.4066714801304983  0.6551911817578572  0.7385074942287276  1.0000
  O   O24       1.0  0.5933297231107275  0.3448092351243944  0.26148926364130903  1.0000
  O   O25       1.0  0.7761229819500598  0.9484999316729203  0.6713641193862685  1.0000
  O   O26       1.0  0.2238782234105159  0.0515005016350116  0.32863474513988683  1.0000
  O   O27       1.0  0.06534536949707358  0.7671751476109706  0.7619392114552069  1.0000
  O   O28       1.0  0.9346545396989753  0.23282528857917836  0.23806053560525706  1.0000
