data_image0
_chemical_formula_structural       Cd3H30C18Br6N14
_chemical_formula_sum              "Cd3 H30 C18 Br6 N14"
_cell_length_a       8.046201762458267
_cell_length_b       9.74212725240763
_cell_length_c       10.227814684127736
_cell_angle_alpha    92.52265967461989
_cell_angle_beta     97.59887245590417
_cell_angle_gamma    100.79441429282167

_space_group_name_H-M_alt    "P 1"
_space_group_IT_number       1

loop_
  _space_group_symop_operation_xyz
  'x, y, z'

loop_
  _atom_site_type_symbol
  _atom_site_label
  _atom_site_symmetry_multiplicity
  _atom_site_fract_x
  _atom_site_fract_y
  _atom_site_fract_z
  _atom_site_occupancy
  Cd  Cd1       1.0  0.4999983372269484  0.5000010511465333  0.5000007416873515  1.0000
  Cd  Cd2       1.0  0.47790080375693134  0.7236892481891031  0.1645822532389545  1.0000
  Cd  Cd3       1.0  0.5221031690667105  0.27631183525735276  0.8354160500566579  1.0000
  H   H1        1.0  0.8393050481042438  0.8931983234615684  0.2981180233326128  1.0000
  H   H2        1.0  0.16069539645403816  0.10680379318624489  0.7018819035259938  1.0000
  H   H3        1.0  0.014710469595669889  0.3557087879063586  0.3957538412394612  1.0000
  H   H4        1.0  0.9852872204263224  0.6442922708948728  0.6042467303856043  1.0000
  H   H5        1.0  0.8352988642846385  0.4270329100302206  0.40970363469420323  1.0000
  H   H6        1.0  0.1647005604716796  0.5729702544331657  0.5902991590983362  1.0000
  H   H7        1.0  0.21681028313702913  0.2014417218176661  0.39047329771354095  1.0000
  H   H8        1.0  0.7831879366580878  0.7985562005413626  0.6095272056602212  1.0000
  H   H9        1.0  0.118277489978624  0.937734660047845  0.3763081007373401  1.0000
  H   H10       1.0  0.8817204922113435  0.062262210431320894  0.6236903804052361  1.0000
  H   H11       1.0  0.2695526321219859  0.8302523334402209  0.3557177507050255  1.0000
  H   H12       1.0  0.7304483443263553  0.16974664460352074  0.6442811303101409  1.0000
  H   H13       1.0  0.04304848707447921  0.7882092402726855  0.16868639617621278  1.0000
  H   H14       1.0  0.956952489373862  0.21178973777105625  0.8313124848389534  1.0000
  H   H15       1.0  0.0734383435720005  0.9677900481057691  0.1360637914190548  1.0000
  H   H16       1.0  0.9265613775861684  0.0322089237118064  0.8639349567067143  1.0000
  H   H17       1.0  0.33514010482036144  0.9610497749869821  0.07435831103907022  1.0000
  H   H18       1.0  0.664861113466991  0.038950250612884894  0.9256406370229937  1.0000
  H   H19       1.0  0.2854863174979343  0.8244384755649674  0.8894191034721642  1.0000
  H   H20       1.0  0.7145149007894178  0.17556155003489948  0.11057984458989982  1.0000
  H   H21       1.0  0.07561848019636132  0.8368222264233723  0.9195043127355617  1.0000
  H   H22       1.0  0.9243812409618075  0.16317674539420318  0.08049443539020731  1.0000
  H   H23       1.0  0.064834863125391  0.6112806416377339  0.03709855650814829  1.0000
  H   H24       1.0  0.9351648580327778  0.38871833017984153  0.9629001916176209  1.0000
  H   H25       1.0  0.06877971876388501  0.5931629666370951  0.864375019130776  1.0000
  H   H26       1.0  0.9312214995234741  0.40683705896277195  0.1356239289312953  1.0000
  H   H27       1.0  0.36178559640305963  0.5778052262608641  0.9087357181522363  1.0000
  H   H28       1.0  0.6382138850330252  0.4221926958387243  0.09126198533449069  1.0000
  H   H29       1.0  0.2704405525428585  0.4758046347152032  0.013597168160586598  1.0000
  H   H30       1.0  0.7295601820664646  0.5241932957724201  0.9864016458076819  1.0000
  C   C1        1.0  0.7726106695348138  0.9772834982554669  0.31988079221837745  1.0000
  C   C2        1.0  0.22738977290652684  0.022718620554222496  0.6801201122323732  1.0000
  C   C3        1.0  0.5257580297669335  0.0461370497498095  0.33751904891581563  1.0000
  C   C4        1.0  0.47424115738424194  0.9538650628337065  0.6624817226455377  1.0000
  C   C5        1.0  0.6097670476771881  0.18481192640137317  0.37541688366891884  1.0000
  C   C6        1.0  0.3902296267767086  0.8151901758916863  0.6245845997057912  1.0000
  C   C7        1.0  0.7904252989063425  0.2133042701115571  0.3794790394602856  1.0000
  C   C8        1.0  0.20957263295466078  0.7866978362457998  0.6205215992116706  1.0000
  C   C9        1.0  0.34022048549383044  0.17660483886760403  0.3787349070490222  1.0000
  C   C10       1.0  0.6597767166162641  0.8233941291451287  0.6212674856665288  1.0000
  C   C11       1.0  0.21725800700780698  0.9193149818476696  0.31736465959004073  1.0000
  C   C12       1.0  0.7827429673235999  0.08068399835794078  0.6826351990172697  1.0000
  C   C13       1.0  0.13985598064946464  0.8849047327869854  0.17319332924029854  1.0000
  C   C14       1.0  0.8601447539598586  0.1150931977006309  0.8268054847279701  1.0000
  C   C15       1.0  0.19081173960719164  0.7965414757683361  0.9568130897206046  1.0000
  C   C16       1.0  0.8091889950021313  0.20345645471928003  0.043185724247663884  1.0000
  C   C17       1.0  0.14486264054203  0.6378292407615405  0.959320490108837  1.0000
  C   C18       1.0  0.8551385777453223  0.3621707848383266  0.04067845795322712  1.0000
  Br  Br1       1.0  0.7246144697597716  0.6154194342130452  0.3249976319680385  1.0000
  Br  Br2       1.0  0.27538375215227984  0.38457848598411454  0.6750018938135794  1.0000
  Br  Br3       1.0  0.2435933616157798  0.5399024693671067  0.3101683454203723  1.0000
  Br  Br4       1.0  0.7564088743565949  0.46009651057906326  0.689828713299903  1.0000
  Br  Br5       1.0  0.6927218159125701  0.7939742526582448  0.9816585186941111  1.0000
  Br  Br6       1.0  0.3072811392260491  0.2060278764419081  0.018341673943290008  1.0000
  N   N1        1.0  0.8680669212107408  0.10386845104727628  0.35484089311328393  1.0000
  N   N2        1.0  0.13193250777944598  0.8961347090923723  0.6451599454949744  1.0000
  N   N3        1.0  0.6012635809514892  0.9390827150782571  0.3067804926466735  1.0000
  N   N4        1.0  0.39873661965084045  0.060918356175307095  0.6932203447571723  1.0000
  N   N5        1.0  0.8886880045733538  0.3401977895883377  0.4061839905475324  1.0000
  N   N6        1.0  0.1113109386218767  0.6598032776009359  0.5938176915590673  1.0000
  N   N7        1.0  0.4896369975647802  0.2646069047355795  0.4008610053130965  1.0000
  N   N8        1.0  0.5103604463843254  0.7353931108332715  0.5991414544493522  1.0000
  N   N9        1.0  0.35452935176977723  0.04312003611899941  0.34064332887572846  1.0000
  N   N10       1.0  0.6454706069935341  0.9568799875784463  0.6593574414812194  1.0000
  N   N11       1.0  0.2687231761702122  0.8630700879558898  0.08885493343250767  1.0000
  N   N12       1.0  0.7312777981611945  0.13692889224972757  0.9111449251747955  1.0000
  N   N13       1.0  0.2995160532840445  0.5780145022687293  0.9898411477974847  1.0000
  N   N14       1.0  0.7004836678741243  0.4219844695488464  0.010157600328291496  1.0000
