data_image0
_chemical_formula_structural       Cd2H42C52Br2N6O8
_chemical_formula_sum              "Cd2 H42 C52 Br2 N6 O8"
_cell_length_a       10.303502256227134
_cell_length_b       10.84693920534053
_cell_length_c       13.8847481578794
_cell_angle_alpha    109.05270487887447
_cell_angle_beta     102.3277381272942
_cell_angle_gamma    108.84653937418308

_space_group_name_H-M_alt    "P 1"
_space_group_IT_number       1

loop_
  _space_group_symop_operation_xyz
  'x, y, z'

loop_
  _atom_site_type_symbol
  _atom_site_label
  _atom_site_symmetry_multiplicity
  _atom_site_fract_x
  _atom_site_fract_y
  _atom_site_fract_z
  _atom_site_occupancy
  Cd  Cd1       1.0  0.13083943277568016  0.25308656048709827  0.3213358804294373  1.0000
  Cd  Cd2       1.0  0.869159195351429  0.7469125341365626  0.6786628646058829  1.0000
  H   H1        1.0  0.6284669568090422  0.25464897974779893  0.31498027324257555  1.0000
  H   H2        1.0  0.37153120987581195  0.7453468636895836  0.6850161309515741  1.0000
  H   H3        1.0  0.2511364994043604  0.8580570179323601  0.20965433089660476  1.0000
  H   H4        1.0  0.7488617494377365  0.14194102786175483  0.7903462528675788  1.0000
  H   H5        1.0  0.6645330428178157  0.8529595529896243  0.19454301605713195  1.0000
  H   H6        1.0  0.3354669002898802  0.1470374745660621  0.8054618668699831  1.0000
  H   H7        1.0  0.12455393292870551  0.0803012596571477  0.4664294710637407  1.0000
  H   H8        1.0  0.8754427946217972  0.919697861972139  0.5335711754150195  1.0000
  H   H9        1.0  0.13474142428220395  0.09937871813544058  0.6535049842358589  1.0000
  H   H10       1.0  0.8652612024713805  0.9006225632315149  0.3464970454009517  1.0000
  H   H11       1.0  0.25110998800915507  0.554752823764467  0.7534317213963604  1.0000
  H   H12       1.0  0.7488960274538669  0.44524951872060115  0.24656961573413838  1.0000
  H   H13       1.0  0.23337828763229146  0.5150844749937703  0.5639198822173483  1.0000
  H   H14       1.0  0.7666223563874368  0.48491463102207866  0.43607986929286807  1.0000
  H   H15       1.0  0.2393403223906177  0.46030161476107895  0.887571440348843  1.0000
  H   H16       1.0  0.760670161800661  0.5397018185368341  0.11243152496174959  1.0000
  H   H17       1.0  0.27707976181444144  0.30837604960188986  0.8651091784195516  1.0000
  H   H18       1.0  0.7229263732943493  0.691624157722636  0.13489306799799997  1.0000
  H   H19       1.0  0.9725036076542964  0.3087702344667136  0.814795749890699  1.0000
  H   H20       1.0  0.027504184409807175  0.6912363897316214  0.1852047751405905  1.0000
  H   H21       1.0  0.9982168957636544  0.1485774068762993  0.7679590619768816  1.0000
  H   H22       1.0  0.0017885299518243156  0.851428166699755  0.23204302228796078  1.0000
  H   H23       1.0  0.9340433198232317  0.37295762281437567  0.9875331919140393  1.0000
  H   H24       1.0  0.06596049811364692  0.6270489977984823  0.01246677412662214  1.0000
  H   H25       1.0  0.9611057982940422  0.3505739144119246  0.163965763501345  1.0000
  H   H26       1.0  0.03889308514256142  0.6494305377601748  0.8360322321493356  1.0000
  H   H27       1.0  0.1943719303078453  0.10620821915856031  0.09860062004032952  1.0000
  H   H28       1.0  0.8056218166472319  0.8937908997816139  0.9013996071954579  1.0000
  H   H29       1.0  0.1721383064683693  0.1125228972393799  0.9177178662767815  1.0000
  H   H30       1.0  0.8278613396897896  0.8874783814384628  0.08228374411705626  1.0000
  H   H31       1.0  0.033979447538378414  0.5130015910412525  0.37790407171719653  1.0000
  H   H32       1.0  0.9660192137474936  0.48699533962349056  0.6220934016664259  1.0000
  H   H33       1.0  0.1359212332470038  0.7805774335636572  0.4423250930308456  1.0000
  H   H34       1.0  0.86407444744345  0.21941949441198008  0.5576719611098042  1.0000
  H   H35       1.0  0.5554536481056331  0.7766821619475835  0.4465341789904329  1.0000
  H   H36       1.0  0.4445465214825504  0.22332021355708787  0.5534692275724566  1.0000
  H   H37       1.0  0.4348520688954239  0.5103634795358617  0.38051965650227254  1.0000
  H   H38       1.0  0.5651495643263545  0.48963780093472303  0.6194822333868828  1.0000
  H   H39       1.0  0.4031199454898341  0.0077671787438973  0.5701239290299895  1.0000
  H   H40       1.0  0.5968762543008808  0.9922330196169327  0.42987691991099547  1.0000
  H   H41       1.0  0.35261051504632956  0.9906480525699379  0.4356385969277667  1.0000
  H   H42       1.0  0.6473846623835796  0.009352135295060302  0.5643613852859772  1.0000
  C   C1        1.0  0.8246694911876348  0.1408224393357287  0.2810721460117591  1.0000
  C   C2        1.0  0.17532876631398153  0.8591712593416574  0.7189244404898644  1.0000
  C   C3        1.0  0.6633838820591933  0.061941769371443904  0.2573018033573504  1.0000
  C   C4        1.0  0.3366143711126596  0.9380541028643063  0.7426967817755495  1.0000
  C   C5        1.0  0.5789948249112199  0.1377041841687046  0.2813609736038245  1.0000
  C   C6        1.0  0.4210033994316333  0.8622916784675921  0.7186368845494966  1.0000
  C   C7        1.0  0.4315107405336888  0.06419714196432842  0.26511796936348014  1.0000
  C   C8        1.0  0.568488444182208  0.9358008855272432  0.7348813001892011  1.0000
  C   C9        1.0  0.3658873158039811  0.9133176039751589  0.221214782681102  1.0000
  C   C10       1.0  0.634111489626896  0.08667937468687371  0.7787863256004356  1.0000
  C   C11       1.0  0.44989746679162584  0.8387433353265622  0.19443279386856457  1.0000
  C   C12       1.0  0.5500989722906269  0.1612525927131969  0.805569873646526  1.0000
  C   C13       1.0  0.5980120036040404  0.9109730749985163  0.2130075785201697  1.0000
  C   C14       1.0  0.40198738724462396  0.08902284613088801  0.7869947812583149  1.0000
  C   C15       1.0  0.3423921116155526  0.1462019847020173  0.2956265595351084  1.0000
  C   C16       1.0  0.6576070442713445  0.8537960331901006  0.7043719830379801  1.0000
  C   C17       1.0  0.15156450344148453  0.1829668111328999  0.5331131810535155  1.0000
  C   C18       1.0  0.8484337165716126  0.8170312250617541  0.4668866757310823  1.0000
  C   C19       1.0  0.15785216926465753  0.19455157052054523  0.636860053946144  1.0000
  C   C20       1.0  0.8421504574889269  0.8054497108464105  0.36314197569065954  1.0000
  C   C21       1.0  0.1937403185634992  0.3296454185740672  0.719816063582023  1.0000
  C   C22       1.0  0.8062637386649102  0.6703569317177127  0.2801857210327441  1.0000
  C   C23       1.0  0.22296851792016534  0.44694108688572237  0.6931802082528334  1.0000
  C   C24       1.0  0.777037060599838  0.5530601875708854  0.306821513647364  1.0000
  C   C25       1.0  0.2133201788650397  0.4257111891460639  0.5869687975642606  1.0000
  C   C26       1.0  0.7866794716228752  0.5742879159734217  0.41303081419830073  1.0000
  C   C27       1.0  0.1980921383245402  0.34586954041178336  0.832302710339242  1.0000
  C   C28       1.0  0.8019154272590752  0.6541317358375734  0.16769929105626596  1.0000
  C   C29       1.0  0.046493130145044956  0.2588550421342219  0.8327753847302048  1.0000
  C   C30       1.0  0.9535132314442335  0.7411505131392887  0.16722538532312106  1.0000
  C   C31       1.0  0.055972493339645324  0.24855762733645287  0.9391754135154284  1.0000
  C   C32       1.0  0.9440314730720016  0.7514468677153233  0.060826188791864376  1.0000
  C   C33       1.0  0.9942098643247803  0.313806448911656  0.009364526932458298  1.0000
  C   C34       1.0  0.005791995377485785  0.6862001795079139  0.9906358865924715  1.0000
  C   C35       1.0  0.008499624931865105  0.3017805441555837  0.10754018729665661  1.0000
  C   C36       1.0  0.9914988792197194  0.6982228591869771  0.8924596470828874  1.0000
  C   C37       1.0  0.1385030954087583  0.16525243852795063  0.07131251597404287  1.0000
  C   C38       1.0  0.8614935701539821  0.8347488374607863  0.9286886751768292  1.0000
  C   C39       1.0  0.1279482406201353  0.1709975841321238  0.9715723711849265  1.0000
  C   C40       1.0  0.8720523082530605  0.8290058402020862  0.0284291966490996  1.0000
  C   C41       1.0  0.14866602499997586  0.5769541228237712  0.39347274128292037  1.0000
  C   C42       1.0  0.8513311149943091  0.4230438836761437  0.6065247948152788  1.0000
  C   C43       1.0  0.20661550944118556  0.7252752592766214  0.42931954570511266  1.0000
  C   C44       1.0  0.7933831475149304  0.274723844946493  0.5706799263097935  1.0000
  C   C45       1.0  0.3558744593026832  0.8029792930396484  0.4502695452229943  1.0000
  C   C46       1.0  0.6441226763618387  0.1970208870186312  0.5497299895064742  1.0000
  C   C47       1.0  0.4390424952382547  0.7241677607140532  0.4319394629493303  1.0000
  C   C48       1.0  0.5609571509199044  0.2758335179637896  0.5680621474445076  1.0000
  C   C49       1.0  0.3733358438631953  0.5752712846954964  0.39545499626733255  1.0000
  C   C50       1.0  0.6266646761810079  0.4247321300392599  0.6045458445871077  1.0000
  C   C51       1.0  0.4193161267896388  0.9641214080079481  0.49216283821769485  1.0000
  C   C52       1.0  0.580680015343077  0.03587877115396049  0.5078365567641256  1.0000
  Br  Br1       1.0  0.3607023835898319  0.6325154248718476  0.13314688326060053  1.0000
  Br  Br2       1.0  0.6392950778532266  0.3674805136637361  0.8668566509817383  1.0000
  N   N1        1.0  0.17771160628598182  0.29628844952188166  0.5078113574438348  1.0000
  N   N2        1.0  0.8222870794991336  0.7037106643006865  0.4921888415506501  1.0000
  N   N3        1.0  0.0807117490545792  0.23009169840856458  0.13898058210688186  1.0000
  N   N4        1.0  0.9192853246221732  0.7699106360091649  0.8610194972947127  1.0000
  N   N5        1.0  0.23072321624358247  0.5026291428154082  0.37686172727754297  1.0000
  N   N6        1.0  0.7692769620041274  0.49736888557252706  0.6231376820227865  1.0000
  O   O1        1.0  0.899478938858195  0.0659842179492571  0.2745486297357829  1.0000
  O   O2        1.0  0.10051771086482139  0.934010527764926  0.7254458385416668  1.0000
  O   O3        1.0  0.8787028561151827  0.27473408954824663  0.3066345742017802  1.0000
  O   O4        1.0  0.1212968318612583  0.7252606780539637  0.693361767277807  1.0000
  O   O5        1.0  0.39219875366423196  0.2781557535773515  0.31563285703226274  1.0000
  O   O6        1.0  0.6078013380964649  0.7218422460122157  0.684364371329316  1.0000
  O   O7        1.0  0.21710496089682607  0.07458608626678401  0.2976600625413823  1.0000
  O   O8        1.0  0.7828936672302832  0.9254130083568698  0.7023386824939379  1.0000
