data_image0
_chemical_formula_structural       Zn2H44C60N8O8
_chemical_formula_sum              "Zn2 H44 C60 N8 O8"
_cell_length_a       8.392578325875093
_cell_length_b       13.35591020342144
_cell_length_c       13.355848123173597
_cell_angle_alpha    112.30572115369303
_cell_angle_beta     101.71672138662034
_cell_angle_gamma    101.71619418729281

_space_group_name_H-M_alt    "P 1"
_space_group_IT_number       1

loop_
  _space_group_symop_operation_xyz
  'x, y, z'

loop_
  _atom_site_type_symbol
  _atom_site_label
  _atom_site_symmetry_multiplicity
  _atom_site_fract_x
  _atom_site_fract_y
  _atom_site_fract_z
  _atom_site_occupancy
  Zn  Zn1       1.0  0.29124733642620976  0.6155223027883922  0.8831862627017488  1.0000
  Zn  Zn2       1.0  0.7912520390874676  0.8831890979284868  0.6155240038373507  1.0000
  H   H1        1.0  0.28857022254241826  0.43222150387455127  0.6529151596884548  1.0000
  H   H2        1.0  0.7885780702816304  0.6529191514783578  0.43222088733948993  1.0000
  H   H3        1.0  0.3034778061463257  0.4265882993748136  0.4641472091569981  1.0000
  H   H4        1.0  0.8034836815613813  0.4641502433515825  0.42658746301946593  1.0000
  H   H5        1.0  0.30532434604786124  0.600631074763726  0.43463593128895195  1.0000
  H   H6        1.0  0.8053255103404097  0.4346377652875829  0.6006297627690601  1.0000
  H   H7        1.0  0.2988642371468585  0.774306407481724  0.5930207442225355  1.0000
  H   H8        1.0  0.7988578435417892  0.59302101054017  0.7743045910409238  1.0000
  H   H9        1.0  0.29408031456559064  0.9117836158534801  0.730356729468099  1.0000
  H   H10       1.0  0.7940712389195922  0.730352547703056  0.9117813915818263  1.0000
  H   H11       1.0  0.28397884362166076  0.0672173347224216  0.9025195297848043  1.0000
  H   H12       1.0  0.7839741257636774  0.9025163874905785  0.06721724719860586  1.0000
  H   H13       1.0  0.2731229489573649  0.0326498765933323  0.07509218637673602  1.0000
  H   H14       1.0  0.7731215637966925  0.07508989123406448  0.032652356781660806  1.0000
  H   H15       1.0  0.2803464234495792  0.841852291081409  0.06525122914366935  1.0000
  H   H16       1.0  0.7803486524289766  0.0652493314078555  0.8418529431947235  1.0000
  H   H17       1.0  0.7006020794758713  0.5099071564706747  0.8848492202480785  1.0000
  H   H18       1.0  0.20060421396244268  0.884848468005238  0.5099074009502262  1.0000
  H   H19       1.0  0.4260512522832727  0.3630947511992275  0.8197336405602373  1.0000
  H   H20       1.0  0.9260522749596446  0.8197326727926537  0.3630973878350261  1.0000
  H   H21       1.0  0.65722530259994  0.10415710218067893  0.6724797853365416  1.0000
  H   H22       1.0  0.15722223047418984  0.6724781584694242  0.10415584049049195  1.0000
  H   H23       1.0  0.9344909526535545  0.2528565971268435  0.7392220716052478  1.0000
  H   H24       1.0  0.4344902268611578  0.7392250516766983  0.25285633155087356  1.0000
  H   H25       1.0  0.3738253190780013  0.0441596054788818  0.6604791698796079  1.0000
  H   H26       1.0  0.8738179523750985  0.6604740726356155  0.04415770982807749  1.0000
  H   H27       1.0  0.19225587408833886  0.2245919181698071  0.7473477608205457  1.0000
  H   H28       1.0  0.6922516780273185  0.7473498417504701  0.22459274056927128  1.0000
  H   H29       1.0  0.9822861355259745  0.2503171484453333  0.5608118963055446  1.0000
  H   H30       1.0  0.4822885314526458  0.560812317285162  0.250326003073667  1.0000
  H   H31       1.0  0.8079110549520363  0.04673708851563419  0.48449426325529293  1.0000
  H   H32       1.0  0.30792055594260853  0.4844996030323401  0.04674347491300779  1.0000
  H   H33       1.0  0.6151409504932347  0.9479067249407366  0.2813087091713059  1.0000
  H   H34       1.0  0.1151492280052651  0.28131582804964955  0.947906716941418  1.0000
  H   H35       1.0  0.6090050324380128  0.056274365797442286  0.16544005500532682  1.0000
  H   H36       1.0  0.10900486319916779  0.1654444769812784  0.0562728692139771  1.0000
  H   H37       1.0  0.5525544687247219  0.17142488721381005  0.1059920302078368  1.0000
  H   H38       1.0  0.05255421021653459  0.10599448889442441  0.17142347826084864  1.0000
  H   H39       1.0  0.5711526590534033  0.2849151469005022  0.9953824309165358  1.0000
  H   H40       1.0  0.07115296544625938  0.9953838640657792  0.28491256742752585  1.0000
  H   H41       1.0  0.8243502991872659  0.4597505819981722  0.07006321738489876  1.0000
  H   H42       1.0  0.3243544905142315  0.0700619642515719  0.4597483986581069  1.0000
  H   H43       1.0  0.04663740926671518  0.5122832763300665  0.2530012620977615  1.0000
  H   H44       1.0  0.5466404546325734  0.2529994119478616  0.5122838636359077  1.0000
  C   C1        1.0  0.2918226018948928  0.5059804482494457  0.6355838500023057  1.0000
  C   C2        1.0  0.7918277432480565  0.6355859837905626  0.505979488335747  1.0000
  C   C3        1.0  0.2982185735805274  0.5027859932650003  0.5310311714812316  1.0000
  C   C4        1.0  0.7982201307718242  0.5310344554491949  0.5027854855847879  1.0000
  C   C5        1.0  0.2998367430629897  0.6002495329604756  0.5153087146003941  1.0000
  C   C6        1.0  0.7998360952921216  0.5153109547701433  0.6002497799929928  1.0000
  C   C7        1.0  0.29533159436130746  0.6971056981095882  0.6034413659543317  1.0000
  C   C8        1.0  0.7953269510915745  0.603443608277722  0.6971047161016771  1.0000
  C   C9        1.0  0.2920423707400841  0.694610938645425  0.7066534814767209  1.0000
  C   C10       1.0  0.7920385764826746  0.7066542801153018  0.6946097845215533  1.0000
  C   C11       1.0  0.2915247007971545  0.7941228321060835  0.8064027549565298  1.0000
  C   C12       1.0  0.7915198124238072  0.8064021561621574  0.7941218960589895  1.0000
  C   C13       1.0  0.2926165672302404  0.8988402130371754  0.8057799524803144  1.0000
  C   C14       1.0  0.7926097859173921  0.8057763996587755  0.898837847201364  1.0000
  C   C15       1.0  0.2856996053042025  0.9857517503423665  0.902500400701989  1.0000
  C   C16       1.0  0.7856953265237435  0.9024960274863146  0.9857514395700308  1.0000
  C   C17       1.0  0.2800067598780203  0.9672943114029239  0.9980221517153965  1.0000
  C   C18       1.0  0.7800040949841716  0.9980189894894597  0.9672940487747826  1.0000
  C   C19       1.0  0.28273010531777487  0.8616657285971527  0.9933442495587956  1.0000
  C   C20       1.0  0.7827285102737918  0.9933416302753459  0.8616660028016698  1.0000
  C   C21       1.0  0.0038497223838263113  0.4818485316578176  0.8549677409742389  1.0000
  C   C22       1.0  0.5038532783884051  0.8549696752430904  0.48184756085608893  1.0000
  C   C23       1.0  0.8377646651836557  0.391622866253691  0.8169503798421192  1.0000
  C   C24       1.0  0.3377642972429982  0.8169493926964224  0.3916226020456224  1.0000
  C   C25       1.0  0.6925117976099598  0.4212076383938522  0.8385815462093974  1.0000
  C   C26       1.0  0.19251471108933763  0.8385806032986379  0.4212088507298262  1.0000
  C   C27       1.0  0.5365086795045073  0.33783851108063356  0.8011919846441276  1.0000
  C   C28       1.0  0.03650811502718195  0.8011906020009009  0.33784060024895984  1.0000
  C   C29       1.0  0.5218065617843307  0.22209550395488256  0.7409670187848363  1.0000
  C   C30       1.0  0.021804576722416893  0.7409653133937226  0.2220972528458348  1.0000
  C   C31       1.0  0.6676239219973465  0.1933166380493604  0.7192480084931108  1.0000
  C   C32       1.0  0.1676212875237154  0.7192470772192222  0.193316469971677  1.0000
  C   C33       1.0  0.8235928241317508  0.277111774886734  0.7567240025764904  1.0000
  C   C34       1.0  0.32359003586311264  0.7567233155828674  0.27711057498732583  1.0000
  C   C35       1.0  0.3637444686361063  0.1299118588407779  0.701042859108334  1.0000
  C   C36       1.0  0.8637417477937176  0.7010389329046024  0.12991329718826722  1.0000
  C   C37       1.0  0.2102688589545636  0.1411718378701039  0.7094763395716939  1.0000
  C   C38       1.0  0.7102681734117978  0.709475343153727  0.14117195928581341  1.0000
  C   C39       1.0  0.0574871058501571  0.042700812435093397  0.668650175362835  1.0000
  C   C40       1.0  0.5574801327427608  0.6686459576914743  0.042699587042420814  1.0000
  C   C41       1.0  0.8980290588831107  0.20456367847272358  0.47274207154471537  1.0000
  C   C42       1.0  0.3980352688796458  0.4727418009694803  0.20456859211783046  1.0000
  C   C43       1.0  0.8010572213383469  0.09061593685347451  0.43042956252070047  1.0000
  C   C44       1.0  0.3010630755219806  0.4304332189470585  0.09062006256437632  1.0000
  C   C45       1.0  0.6946176065296256  0.03646827380191551  0.3180100123633594  1.0000
  C   C46       1.0  0.19462521854408973  0.31801452641524713  0.03647046205175293  1.0000
  C   C47       1.0  0.6910763802878676  0.09759672729040153  0.2535533809227815  1.0000
  C   C48       1.0  0.19107830294227307  0.253556034418139  0.0975958917962245  1.0000
  C   C49       1.0  0.7935279434211038  0.2120083521874179  0.3031123246950004  1.0000
  C   C50       1.0  0.29353234639913234  0.3031130094503496  0.21200914993982428  1.0000
  C   C51       1.0  0.7954524162856984  0.27978992531102165  0.23628177461179692  1.0000
  C   C52       1.0  0.2954505773450506  0.2362820763042208  0.2797901216735  1.0000
  C   C53       1.0  0.6631218374331239  0.24589587975546587  0.13539033607406742  1.0000
  C   C54       1.0  0.16312069666356876  0.13539183755601414  0.24589440626893122  1.0000
  C   C55       1.0  0.6722634043090777  0.30986538868048535  0.0739256901228771  1.0000
  C   C56       1.0  0.1722646431987442  0.0739267606443619  0.30986367724237607  1.0000
  C   C57       1.0  0.812010493842564  0.4071951931367083  0.11530495551557622  1.0000
  C   C58       1.0  0.31201092735933134  0.1153036482204328  0.4071941468145256  1.0000
  C   C59       1.0  0.9359518150380238  0.4358970890979848  0.21735185919362016  1.0000
  C   C60       1.0  0.43595230116419964  0.21735021733406507  0.4358977362049288  1.0000
  N   N1        1.0  0.2896539133153907  0.5994423792997025  0.7209883993877498  1.0000
  N   N2        1.0  0.7896535914346002  0.7209897241936221  0.5994420714888379  1.0000
  N   N3        1.0  0.28807304030039654  0.7779310339281977  0.8999380743622114  1.0000
  N   N4        1.0  0.7880734897821282  0.8999378044166235  0.7779310836155774  1.0000
  N   N5        1.0  0.8953033263194357  0.2646488823344484  0.4121757932718353  1.0000
  N   N6        1.0  0.3953048843339316  0.4121750881805256  0.26465165893277753  1.0000
  N   N7        1.0  0.9299220406148334  0.3745452476307776  0.27658519446116975  1.0000
  N   N8        1.0  0.42991971736411466  0.27658416633821054  0.3745467695868428  1.0000
  O   O1        1.0  0.013546582397644577  0.5858771869789123  0.9055756334890789  1.0000
  O   O2        1.0  0.5135544095625946  0.9055752757891328  0.5858779843423819  1.0000
  O   O3        1.0  0.13458393575522357  0.4522724514960146  0.832258054896606  1.0000
  O   O4        1.0  0.6345882342315575  0.8322626432095958  0.45227294030477344  1.0000
  O   O5        1.0  0.06287404422774753  0.9402881234366375  0.6267830095128915  1.0000
  O   O6        1.0  0.5628668758428788  0.6267785975029414  0.9402864673827696  1.0000
  O   O7        1.0  0.9157472343423477  0.0615894173569131  0.6773942756545923  1.0000
  O   O8        1.0  0.4157400046580619  0.6773925962237046  0.06158728930161332  1.0000
