data_image0
_chemical_formula_structural       Cu8H16C32I4N20
_chemical_formula_sum              "Cu8 H16 C32 I4 N20"
_cell_length_a       8.727579944528486
_cell_length_b       11.277388934707814
_cell_length_c       11.80594825034888
_cell_angle_alpha    109.18006851082251
_cell_angle_beta     89.9998095237188
_cell_angle_gamma    112.77738602161858

_space_group_name_H-M_alt    "P 1"
_space_group_IT_number       1

loop_
  _space_group_symop_operation_xyz
  'x, y, z'

loop_
  _atom_site_type_symbol
  _atom_site_label
  _atom_site_symmetry_multiplicity
  _atom_site_fract_x
  _atom_site_fract_y
  _atom_site_fract_z
  _atom_site_occupancy
  Cu  Cu1       1.0  0.34636192650186365  0.6905304773479627  0.26498069114720835  1.0000
  Cu  Cu2       1.0  0.6556179600864596  0.3091854221198744  0.23480833801705364  1.0000
  Cu  Cu3       1.0  0.6536363512161784  0.3094691557845834  0.7350197919387471  1.0000
  Cu  Cu4       1.0  0.3443791685446841  0.6908142044214644  0.7651912959874141  1.0000
  Cu  Cu5       1.0  0.08183052828388783  0.4958521274760059  0.9077372979385459  1.0000
  Cu  Cu6       1.0  0.5860452765985898  0.5041538517526832  0.5922137699397754  1.0000
  Cu  Cu7       1.0  0.918167111879477  0.504148521865787  0.0922618047119386  1.0000
  Cu  Cu8       1.0  0.41395248312168326  0.49584474564142067  0.4077855464120148  1.0000
  H   H1        1.0  0.8044024730901358  0.6006414357948344  0.9368401568393881  1.0000
  H   H2        1.0  0.2032904470363448  0.39936706887330325  0.5632784692882851  1.0000
  H   H3        1.0  0.19559912263338933  0.39936024965204103  0.06316011265752762  1.0000
  H   H4        1.0  0.796708332515607  0.6006335676527217  0.4367189353114754  1.0000
  H   H5        1.0  0.8905686692083494  0.7670459576313888  0.8294609805836334  1.0000
  H   H6        1.0  0.12310392259264093  0.23285671644794803  0.6705648383538333  1.0000
  H   H7        1.0  0.10943855239277414  0.23295781271922072  0.17054332061943006  1.0000
  H   H8        1.0  0.8768981878958828  0.7671459982683758  0.3294357488331698  1.0000
  H   H9        1.0  0.8229041197584693  0.9726871952143983  0.8961767522906856  1.0000
  H   H10       1.0  0.8497023482876357  0.027185246796186408  0.6037506216658671  1.0000
  H   H11       1.0  0.17710476246178078  0.027317604527873105  0.10382786663988951  1.0000
  H   H12       1.0  0.15029861957953033  0.9728174742669184  0.3962508145277824  1.0000
  H   H13       1.0  0.5780347492376735  0.8426898370006698  0.17842206870842153  1.0000
  H   H14       1.0  0.7346469428703487  0.15741205895339047  0.3217342035819187  1.0000
  H   H15       1.0  0.4219635220148278  0.15730978319388816  0.8215767162893856  1.0000
  H   H16       1.0  0.2653491529980272  0.842585502580064  0.6782639459982889  1.0000
  C   C1        1.0  0.6855215512998499  0.7103676851159904  0.06530315070883567  1.0000
  C   C2        1.0  0.9745216830549737  0.28976986129919174  0.43495043257917854  1.0000
  C   C3        1.0  0.31447952965867637  0.2896329710614367  0.9346968010979781  1.0000
  C   C4        1.0  0.025475445576162888  0.7102297652421471  0.565049201425282  1.0000
  C   C5        1.0  0.7750755783588232  0.690668178387014  0.9668306324029248  1.0000
  C   C6        1.0  0.08383990834121142  0.3093753939589021  0.5333649264885595  1.0000
  C   C7        1.0  0.22492614338715106  0.3093314680501679  0.03317154888343051  1.0000
  C   C8        1.0  0.9161600235304094  0.6906252556273247  0.46663417623676656  1.0000
  C   C9        1.0  0.8236919274725523  0.7845010825644962  0.9067612561709527  1.0000
  C   C10       1.0  0.03868229240213595  0.21545689051135503  0.593336729097608  1.0000
  C   C11       1.0  0.17631477289803144  0.21550164557868362  0.09324102925387483  1.0000
  C   C12       1.0  0.9613171279372635  0.7845427362744103  0.4066629049816939  1.0000
  C   C13       1.0  0.786083491822261  0.8994430096938688  0.9430697392891433  1.0000
  C   C14       1.0  0.8860891311836382  0.1004989838140702  0.5569629599617087  1.0000
  C   C15       1.0  0.21392321501386394  0.10055973138729261  0.056934244223825224  1.0000
  C   C16       1.0  0.11391131545298079  0.8995026950416044  0.44303646045371176  1.0000
  C   C17       1.0  0.697895749096894  0.9200851216161259  0.04246763650429844  1.0000
  C   C18       1.0  0.7772058354420041  0.07992572625905578  0.4576206792060092  1.0000
  C   C19       1.0  0.3021081448004281  0.07991657701317222  0.9575343311555929  1.0000
  C   C20       1.0  0.22279089798103516  0.9200708190651454  0.5423788508096621  1.0000
  C   C21       1.0  0.6471413618144269  0.8255420304922508  0.102613429346178  1.0000
  C   C22       1.0  0.8208827872882695  0.17457675103111112  0.39758951915012375  1.0000
  C   C23       1.0  0.35285806175774326  0.1744576027625087  0.8973870537771946  1.0000
  C   C24       1.0  0.17911560352113307  0.8254208172157577  0.6024094795489887  1.0000
  C   C25       1.0  0.6348329348442122  0.6153879690994444  0.13134684804803953  1.0000
  C   C26       1.0  0.019169661658494937  0.38467167533713115  0.3688245092483769  1.0000
  C   C27       1.0  0.36516482487606083  0.3846106282946593  0.8686524683037506  1.0000
  C   C28       1.0  0.980826945742109  0.6153269089967709  0.6311731089778478  1.0000
  C   C29       1.0  0.6590284225354708  0.0364098541988511  0.08644813129905773  1.0000
  C   C30       1.0  0.6221469101352569  0.9634596717423989  0.4135678160515042  1.0000
  C   C31       1.0  0.34097420595082184  0.9635938962559222  0.9135536226221108  1.0000
  C   C32       1.0  0.37786271626549006  0.0365420339669669  0.5864350008395577  1.0000
  I   I1        1.0  0.17634302501286217  0.7265271776438241  0.0986696381484293  1.0000
  I   I2        1.0  0.4495412407970037  0.27342593892368683  0.401254543103562  1.0000
  I   I3        1.0  0.823656910091536  0.27347347841139674  0.9013303136209674  1.0000
  I   I4        1.0  0.5504542304477767  0.7265726646949774  0.5987456222174574  1.0000
  N   N1        1.0  0.5184338258481985  0.608606483073828  0.20743112280292308  1.0000
  N   N2        1.0  0.9096446225536355  0.3913475070030685  0.29258968000475966  1.0000
  N   N3        1.0  0.4815644421715319  0.39139313065173553  0.7925668131508204  1.0000
  N   N4        1.0  0.09035250284473052  0.608652113069276  0.7074091049556303  1.0000
  N   N5        1.0  0.516248969300719  0.5149005509314577  0.25454173547037584  1.0000
  N   N6        1.0  0.0013118224172787088  0.4848940801371884  0.24536574463012786  1.0000
  N   N7        1.0  0.48374867086264567  0.48510009841033525  0.7454573671801087  1.0000
  N   N8        1.0  0.9986869700657623  0.5151065822648067  0.7546350561459151  1.0000
  N   N9        1.0  0.6231257557574921  0.4624880253013187  0.2063077568330982  1.0000
  N   N10       1.0  0.1606020978740049  0.5372869709910405  0.2936393332716278  1.0000
  N   N11       1.0  0.3768708613414163  0.5375105784395657  0.7936924085253453  1.0000
  N   N12       1.0  0.8393961798440372  0.46271266214150597  0.7063611498143275  1.0000
  N   N13       1.0  0.7015956395644595  0.5250965661830236  0.13038176264829093  1.0000
  N   N14       1.0  0.1763339798051576  0.47483042435090556  0.3697358854821432  1.0000
  N   N15       1.0  0.2984022364799443  0.4748999727943968  0.8696169183607267  1.0000
  N   N16       1.0  0.8236642914473437  0.5251691958436595  0.630262899515671  1.0000
  N   N17       1.0  0.6266878579677666  0.13187733315783126  0.12898215344897324  1.0000
  N   N18       1.0  0.4944208979403656  0.8678492715150768  0.37095245249840053  1.0000
  N   N19       1.0  0.3733170127583279  0.8681171546051942  0.8710167414858746  1.0000
  N   N20       1.0  0.5055698305608374  0.13214214003322414  0.6290471870426873  1.0000
