data_image0
_chemical_formula_structural       Zn2H46C48N10O12
_chemical_formula_sum              "Zn2 H46 C48 N10 O12"
_cell_length_a       10.054583514219631
_cell_length_b       11.904423462866088
_cell_length_c       12.002119947990245
_cell_angle_alpha    119.51680109016623
_cell_angle_beta     95.57574703050139
_cell_angle_gamma    103.50878828068166

_space_group_name_H-M_alt    "P 1"
_space_group_IT_number       1

loop_
  _space_group_symop_operation_xyz
  'x, y, z'

loop_
  _atom_site_type_symbol
  _atom_site_label
  _atom_site_symmetry_multiplicity
  _atom_site_fract_x
  _atom_site_fract_y
  _atom_site_fract_z
  _atom_site_occupancy
  Zn  Zn1       1.0  0.40233828452435466  0.2981214701094145  0.5199905557522584  1.0000
  Zn  Zn2       1.0  0.5976627680129454  0.7018759005792816  0.4800074019365467  1.0000
  H   H1        1.0  0.9908538954682697  0.5038037833820324  0.29196540817430605  1.0000
  H   H2        1.0  0.009154920348599622  0.49620174742059203  0.7080379469636711  1.0000
  H   H3        1.0  0.0964504316957928  0.3196808137002236  0.24278374231359123  1.0000
  H   H4        1.0  0.9035566872905677  0.6803226941343467  0.7572193349321452  1.0000
  H   H5        1.0  0.9927878260051345  0.14570565261785617  0.2996021076998332  1.0000
  H   H6        1.0  0.007217631091137411  0.8542989267200198  0.7004038298366596  1.0000
  H   H7        1.0  0.3126023401042204  0.1326396901538729  0.22340357692580431  1.0000
  H   H8        1.0  0.6873966026227976  0.8673516433881828  0.776596327692985  1.0000
  H   H9        1.0  0.12533976689596923  0.9150381742167609  0.044672280251958796  1.0000
  H   H10       1.0  0.8746562256895132  0.08495623645312378  0.9553288216959218  1.0000
  H   H11       1.0  0.9847554200069553  0.8658862956276392  0.35092612993928884  1.0000
  H   H12       1.0  0.015245298232841278  0.13411322099720724  0.649078649432127  1.0000
  H   H13       1.0  0.17473363514105247  0.08662104168175229  0.5171876581006744  1.0000
  H   H14       1.0  0.8252677470277022  0.9133774072679302  0.4828141738638863  1.0000
  H   H15       1.0  0.8428938817408138  0.7171569224457028  0.12644306785711726  1.0000
  H   H16       1.0  0.15710473135474956  0.28283333283535933  0.8735529624859096  1.0000
  H   H17       1.0  0.8819525562851993  0.7450170920536434  0.998434623934827  1.0000
  H   H18       1.0  0.11804653086954175  0.2549833951766657  0.0015671374576128323  1.0000
  H   H19       1.0  0.9664893796640399  0.5877875804540835  0.1797348699185405  1.0000
  H   H20       1.0  0.03351503599457567  0.4122107272853838  0.8202596656189342  1.0000
  H   H21       1.0  0.13288353009333775  0.7050611053895535  0.21120402742307928  1.0000
  H   H22       1.0  0.867117887281168  0.2949372282483225  0.7887910865189411  1.0000
  H   H23       1.0  0.8444093654656581  0.5167154550219023  0.8440556830576681  1.0000
  H   H24       1.0  0.15559439506544237  0.48328389156475987  0.15594012038101812  1.0000
  H   H25       1.0  0.7957994341630864  0.47381998498296685  0.9606691147823979  1.0000
  H   H26       1.0  0.2042053287298629  0.5261793433615765  0.03932593601956569  1.0000
  H   H27       1.0  0.34387618506549705  0.39863423179959057  0.7856915856918648  1.0000
  H   H28       1.0  0.6561114897987607  0.6013591456484305  0.21430578480433832  1.0000
  H   H29       1.0  0.42364824109169064  0.39004616831703487  0.9856183104124908  1.0000
  H   H30       1.0  0.5763458081148158  0.6099512868245822  0.014382396474942907  1.0000
  H   H31       1.0  0.6264350841286729  0.10315588770025386  0.7544141455319179  1.0000
  H   H32       1.0  0.37357072900336874  0.8968496834147501  0.24559062776342683  1.0000
  H   H33       1.0  0.5434939863674515  0.1266836627326668  0.565856058972976  1.0000
  H   H34       1.0  0.4565115276728308  0.8733239390066743  0.4341488179824323  1.0000
  H   H35       1.0  0.7082729195038269  0.29116023727425505  0.03588681539959987  1.0000
  H   H36       1.0  0.2917221931439328  0.7088434173958827  0.9641210947227563  1.0000
  H   H37       1.0  0.552138701429179  0.3109606815330962  0.09059798300570775  1.0000
  H   H38       1.0  0.44785170316713874  0.6890378095261765  0.9094028906818324  1.0000
  H   H39       1.0  0.5908622644221069  0.16361572857937998  0.178291220304672  1.0000
  H   H40       1.0  0.4091378250944828  0.8363847404088104  0.8217097884510451  1.0000
  H   H41       1.0  0.7409505683018197  0.15352370372488616  0.11080974343468598  1.0000
  H   H42       1.0  0.2590461495573492  0.8464726472573286  0.8891865107724397  1.0000
  H   H43       1.0  0.3528148206376258  0.03956101207405279  0.8585625661876861  1.0000
  H   H44       1.0  0.6471832468177182  0.9604363412711263  0.14143345064719873  1.0000
  H   H45       1.0  0.359979522182698  0.09878805944737219  0.028307759907207186  1.0000
  H   H46       1.0  0.6400125575058624  0.9012093168666694  0.971687734231125  1.0000
  C   C1        1.0  0.6724570882020088  0.36368123021320997  0.4959339849847666  1.0000
  C   C2        1.0  0.32753087334783965  0.6363005305029288  0.5040362324931563  1.0000
  C   C3        1.0  0.7882124469460764  0.35127734457288534  0.42233760443350127  1.0000
  C   C4        1.0  0.21178936580533042  0.648725060899494  0.5776586436975534  1.0000
  C   C5        1.0  0.8395337749454015  0.44113242018382687  0.37999088188924185  1.0000
  C   C6        1.0  0.16046736507561116  0.5588710817916576  0.620009993154298  1.0000
  C   C7        1.0  0.9497255004963351  0.42818791666017114  0.31670927794714737  1.0000
  C   C8        1.0  0.050283931106918124  0.571813495237869  0.6832905108594289  1.0000
  C   C9        1.0  0.007135015883868292  0.323767733743523  0.28739214588050993  1.0000
  C   C10       1.0  0.9928674123885913  0.6762337626074384  0.712610392124695  1.0000
  C   C11       1.0  0.9528456956694882  0.2297091155918237  0.32119560440418826  1.0000
  C   C12       1.0  0.04715773496481993  0.7702923625170184  0.6788061809642939  1.0000
  C   C13       1.0  0.84692304348809  0.2460963257288071  0.389438755849369  1.0000
  C   C14       1.0  0.15307609620994356  0.7539071983169449  0.6105627847148084  1.0000
  C   C15       1.0  0.7800010074594609  0.5531147908026313  0.3992612350697867  1.0000
  C   C16       1.0  0.2200047927357502  0.4468876137711463  0.6007362012784584  1.0000
  C   C17       1.0  0.2351372864988903  0.07167426136712857  0.2466301001108064  1.0000
  C   C18       1.0  0.7648643903609056  0.9283221713722014  0.7533724679465124  1.0000
  C   C19       1.0  0.13150309623866718  0.9509290995443251  0.14853036565803981  1.0000
  C   C20       1.0  0.868492896346815  0.0490653111255526  0.8514707362898406  1.0000
  C   C21       1.0  0.037774335147510246  0.8747060901383672  0.18435478940597225  1.0000
  C   C22       1.0  0.9622226991409591  0.12529138234676646  0.8156478583353673  1.0000
  C   C23       1.0  0.053179231146721344  0.9239485967802991  0.31895319284332396  1.0000
  C   C24       1.0  0.9468197990640022  0.07604886804854517  0.6810496291302002  1.0000
  C   C25       1.0  0.15850668033812812  0.04581918321471079  0.4116230917110145  1.0000
  C   C26       1.0  0.841494749973208  0.9541823169643916  0.5883793591780984  1.0000
  C   C27       1.0  0.9291306343601065  0.739818769477388  0.08183333878765339  1.0000
  C   C28       1.0  0.07086840905277818  0.26017865210952346  0.918166963927419  1.0000
  C   C29       1.0  0.05018281407915736  0.6110319772011364  0.13300340607093356  1.0000
  C   C30       1.0  0.949820256384001  0.388965313761389  0.8669905270859601  1.0000
  C   C31       1.0  0.8864417058408521  0.5033355748413226  0.9232625880644392  1.0000
  C   C32       1.0  0.11356340868714199  0.496664759694326  0.07673213824919142  1.0000
  C   C33       1.0  0.409498889955529  0.337233358074549  0.7849080642491301  1.0000
  C   C34       1.0  0.5905001097154924  0.662760997868972  0.21509077978857502  1.0000
  C   C35       1.0  0.45365530456761144  0.3309971202493712  0.8945049726983499  1.0000
  C   C36       1.0  0.5463391532179571  0.6690043634848166  0.10549434911965958  1.0000
  C   C37       1.0  0.5363738762511332  0.24948897784820184  0.8874497845651916  1.0000
  C   C38       1.0  0.46362820038628166  0.7505115123116466  0.11255307792834647  1.0000
  C   C39       1.0  0.5663130949537206  0.17167632457699963  0.7658911656211771  1.0000
  C   C40       1.0  0.433688774476373  0.8283323130800043  0.2341138781343517  1.0000
  C   C41       1.0  0.5185290523318287  0.18267056420626196  0.6604912821916287  1.0000
  C   C42       1.0  0.4814757672398002  0.8173349963229127  0.33951256423480186  1.0000
  C   C43       1.0  0.591930124049995  0.24576864042477806  0.0061128299814327365  1.0000
  C   C44       1.0  0.40806331817157104  0.7542329047934542  0.9938897637317651  1.0000
  C   C45       1.0  0.6265336162584701  0.10466850892776589  0.08837595224362356  1.0000
  C   C46       1.0  0.37346344443430723  0.8953288770735098  0.9116216569808058  1.0000
  C   C47       1.0  0.40465614177787057  0.040799242460281  0.9442280594995935  1.0000
  C   C48       1.0  0.5953399602949077  0.9592012274265115  0.05577176103894018  1.0000
  N   N1        1.0  0.4432104718780607  0.26573853074820153  0.6700769144171446  1.0000
  N   N2        1.0  0.5567889581102888  0.7342629915011681  0.32992620199259876  1.0000
  N   N3        1.0  0.5571210470929485  0.10671223019809159  0.9768721695287255  1.0000
  N   N4        1.0  0.4428750549798365  0.8932882396887007  0.023127651009801103  1.0000
  N   N5        1.0  0.24772377500890744  0.1186750267003802  0.3761753344580825  1.0000
  N   N6        1.0  0.7522755630950114  0.8813203786761786  0.6238257043497484  1.0000
  N   N7        1.0  0.9925650094732036  0.6310460674992199  0.02938249504374107  1.0000
  N   N8        1.0  0.007437757497484697  0.36895326850162036  0.9706123815260383  1.0000
  N   N9        1.0  0.7984335010434408  0.14567598759850844  0.4254958795909829  1.0000
  N   N10       1.0  0.20156398996665806  0.8543285647086164  0.5745060020054992  1.0000
  O   O1        1.0  0.5496412633259097  0.27502114859847626  0.42133288161667787  1.0000
  O   O2        1.0  0.4503607698349795  0.7249730661348223  0.5786586659939345  1.0000
  O   O3        1.0  0.7002454983140183  0.4492128205884143  0.6161811122041314  1.0000
  O   O4        1.0  0.29974772349806494  0.5507969153688987  0.38382618202950153  1.0000
  O   O5        1.0  0.6601168392884702  0.5440976375284093  0.4312288700933066  1.0000
  O   O6        1.0  0.33988561978902254  0.45590375792470883  0.5687677896421731  1.0000
  O   O7        1.0  0.8449898241860297  0.6439876634610399  0.3813438631236038  1.0000
  O   O8        1.0  0.1550183277018817  0.3560189350167419  0.6186624394212359  1.0000
  O   O9        1.0  0.7611273582637209  0.18264862919892974  0.5302717172343492  1.0000
  O   O10       1.0  0.23887217681121337  0.8173589666813185  0.46973095751886956  1.0000
  O   O11       1.0  0.798487329434643  0.027130994350308395  0.34907084449268677  1.0000
  O   O12       1.0  0.20150881197928067  0.9728725555938453  0.6509312744760294  1.0000
