data_image0
_chemical_formula_structural       Yb2H28C30O20
_chemical_formula_sum              "Yb2 H28 C30 O20"
_cell_length_a       6.046435007583766
_cell_length_b       10.5840264393585
_cell_length_c       13.415051426788898
_cell_angle_alpha    112.5427899678226
_cell_angle_beta     96.88675309990758
_cell_angle_gamma    97.72803913955431

_space_group_name_H-M_alt    "P 1"
_space_group_IT_number       1

loop_
  _space_group_symop_operation_xyz
  'x, y, z'

loop_
  _atom_site_type_symbol
  _atom_site_label
  _atom_site_symmetry_multiplicity
  _atom_site_fract_x
  _atom_site_fract_y
  _atom_site_fract_z
  _atom_site_occupancy
  Yb  Yb1       1.0  0.08364022972897092  0.1319260603452861  0.2108366256142489  1.0000
  Yb  Yb2       1.0  0.9163594457647548  0.8680743073295788  0.7891647887002904  1.0000
  H   H1        1.0  0.5320675845020874  0.9619594910108874  0.3743887196925044  1.0000
  H   H2        1.0  0.46792957947562297  0.038039083970154895  0.6256110458921995  1.0000
  H   H3        1.0  0.5410090996219524  0.14141881396502504  0.4577132958621206  1.0000
  H   H4        1.0  0.4589899448932756  0.8585807172101666  0.5422864751858327  1.0000
  H   H5        1.0  0.22813732664261724  0.23250034830719105  0.5378486796669719  1.0000
  H   H6        1.0  0.7718635093156011  0.7675006766986525  0.46215027990753293  1.0000
  H   H7        1.0  0.9826464230422616  0.7997375388468483  0.3224333128415253  1.0000
  H   H8        1.0  0.01735330065712767  0.20026485998737098  0.6775664722961993  1.0000
  H   H9        1.0  0.638963093328755  0.6209275720456588  0.9347267636673847  1.0000
  H   H10       1.0  0.3610376053292654  0.3790719594373471  0.0652730081472299  1.0000
  H   H11       1.0  0.9263417839164138  0.6177762100126502  0.9232243614103838  1.0000
  H   H12       1.0  0.07366142625762963  0.3822251141641786  0.0767770591340593  1.0000
  H   H13       1.0  0.86663238266582  0.4971319360339237  0.19978253885367536  1.0000
  H   H14       1.0  0.13336822689767308  0.5028681330855775  0.8002164160242344  1.0000
  H   H15       1.0  0.6115135092069296  0.5027221896612986  0.3295803087975031  1.0000
  H   H16       1.0  0.3884833392815282  0.4972759670699034  0.6704186351539079  1.0000
  H   H17       1.0  0.228808885300893  0.7485296488974456  0.2090833289384335  1.0000
  H   H18       1.0  0.7711914978678751  0.2514694643357134  0.7909156212428884  1.0000
  H   H19       1.0  0.4834671360316137  0.7430075920917999  0.07923404639537782  1.0000
  H   H20       1.0  0.5165330207424363  0.2569905652550234  0.9207648990893489  1.0000
  H   H21       1.0  0.13944298300558702  0.5945948420363436  0.4703208336526785  1.0000
  H   H22       1.0  0.8605598225846763  0.40540660152714736  0.5296789483217736  1.0000
  H   H23       1.0  0.4309189105225427  0.585822024355707  0.4691457902627221  1.0000
  H   H24       1.0  0.5690823300194482  0.4141788812634746  0.5308548078817736  1.0000
  H   H25       1.0  0.6246956433478561  0.12088747151792491  0.1230850260870611  1.0000
  H   H26       1.0  0.3753034011673648  0.8791120596572667  0.8769147449608923  1.0000
  H   H27       1.0  0.7428886395730389  0.029974121324471505  0.0252309610427375  1.0000
  H   H28       1.0  0.25711260096895955  0.9700267842947028  0.9747696371017583  1.0000
  C   C1        1.0  0.5881165560476518  0.09848029066599652  0.2928964744181641  1.0000
  C   C2        1.0  0.4118866541263913  0.901521033510825  0.7071049461262788  1.0000
  C   C3        1.0  0.47990524765423725  0.05797469101529635  0.37482501165904847  1.0000
  C   C4        1.0  0.5200956773985085  0.942025796354045  0.6251747648521544  1.0000
  C   C5        1.0  0.1309924266346272  0.13053098298166796  0.5225018360896314  1.0000
  C   C6        1.0  0.8690118067037107  0.8694695050032949  0.477497941954887  1.0000
  C   C7        1.0  0.11993227774895843  0.017190316240757394  0.4237025600729538  1.0000
  C   C8        1.0  0.8800688736985052  0.9828111270149265  0.576297221134837  1.0000
  C   C9        1.0  0.9896567120277242  0.8870164182408047  0.3999326629149422  1.0000
  C   C10       1.0  0.0103441239304942  0.11298460676503909  0.6000662966595627  1.0000
  C   C11       1.0  0.8676036164881824  0.818639346305595  0.0175070106183881  1.0000
  C   C12       1.0  0.1323981177321158  0.18136090229041457  0.9824960430328032  1.0000
  C   C13       1.0  0.8146631880598747  0.6614243032219775  0.9810801955972225  1.0000
  C   C14       1.0  0.185337599692673  0.3385746906245187  0.0189203931540973  1.0000
  C   C15       1.0  0.6976731903377101  0.6215998663690313  0.1322069388161538  1.0000
  C   C16       1.0  0.3023236581507477  0.37839829036217776  0.8677920051352573  1.0000
  C   C17       1.0  0.7275524715727643  0.553092385582211  0.2022209217088928  1.0000
  C   C18       1.0  0.27244768520128576  0.4469057717646125  0.7977780237758411  1.0000
  C   C19       1.0  0.5827288717064363  0.5573046096728191  0.2763451327328141  1.0000
  C   C20       1.0  0.4172698573195391  0.44269450325253257  0.7236538166818461  1.0000
  C   C21       1.0  0.40551529693915733  0.6307567452494284  0.2808412336760995  1.0000
  C   C22       1.0  0.5944854017188633  0.36924278623357054  0.7191585381385082  1.0000
  C   C23       1.0  0.3717274521843237  0.6960045851652268  0.20882910541743632  1.0000
  C   C24       1.0  0.6282712768416517  0.30399452776012487  0.7911698439972241  1.0000
  C   C25       1.0  0.5165078071912604  0.6918948068825302  0.1346439056528226  1.0000
  C   C26       1.0  0.48349037995074445  0.30810293190663873  0.8653542174319567  1.0000
  C   C27       1.0  0.2636977664234693  0.563446196283465  0.4161972068931732  1.0000
  C   C28       1.0  0.736303700513247  0.436555665222059  0.5838033959479105  1.0000
  C   C29       1.0  0.19392695173660005  0.40720100739600434  0.3462979371262875  1.0000
  C   C30       1.0  0.8060693745826699  0.5928019284590961  0.6537010295414163  1.0000
  O   O1        1.0  0.8016200327004341  0.11627189990726813  0.3036970442660731  1.0000
  O   O2        1.0  0.19838272468416573  0.8837275124968755  0.6963043668851938  1.0000
  O   O3        1.0  0.4568782136860179  0.1119547558283429  0.217031565771201  1.0000
  O   O4        1.0  0.543122456481122  0.8880488977553898  0.7829706842664024  1.0000
  O   O5        1.0  0.23662066695489162  0.03438047276464574  0.3436417039090287  1.0000
  O   O6        1.0  0.7633804844925793  0.965620970491038  0.656358077298762  1.0000
  O   O7        1.0  0.9689644802362382  0.8974620239076002  0.1142695795352751  1.0000
  O   O8        1.0  0.031033088325244824  0.10253643168677941  0.8857318246194268  1.0000
  O   O9        1.0  0.8019487383133427  0.8630796066647125  0.944238034364446  1.0000
  O   O10       1.0  0.19805062169113805  0.1369203427603125  0.0557625583168004  1.0000
  O   O11       1.0  0.855743168879414  0.6141059126777078  0.0656778481061906  1.0000
  O   O12       1.0  0.14425730338388834  0.3858926629189483  0.934321919011836  1.0000
  O   O13       1.0  0.25780235011006886  0.6458952730487084  0.3540250270572898  1.0000
  O   O14       1.0  0.7421966053106248  0.3541047957629857  0.6459739270539586  1.0000
  O   O15       1.0  0.07272131985395454  0.3623060994105245  0.2504307974847748  1.0000
  O   O16       1.0  0.9272797833878459  0.6376933126858119  0.7495706128998307  1.0000
  O   O17       1.0  0.25711001829868263  0.3225335982004652  0.3853070207865202  1.0000
  O   O18       1.0  0.7428875217719196  0.6774689794946411  0.6146968615911703  1.0000
  O   O19       1.0  0.7609576890902404  0.12125402709241231  0.0882679116021308  1.0000
  O   O20       1.0  0.2390434141515599  0.8787453850039243  0.9117334987824748  1.0000
