data_image0
_chemical_formula_structural       Ba2H20C28S2O16
_chemical_formula_sum              "Ba2 H20 C28 S2 O16"
_cell_length_a       7.733642095664923
_cell_length_b       8.919701375666627
_cell_length_c       11.270624192020549
_cell_angle_alpha    87.2166591858269
_cell_angle_beta     81.43621650632612
_cell_angle_gamma    73.31449875592897

_space_group_name_H-M_alt    "P 1"
_space_group_IT_number       1

loop_
  _space_group_symop_operation_xyz
  'x, y, z'

loop_
  _atom_site_type_symbol
  _atom_site_label
  _atom_site_symmetry_multiplicity
  _atom_site_fract_x
  _atom_site_fract_y
  _atom_site_fract_z
  _atom_site_occupancy
  Ba  Ba1       1.0  0.2887361810521512  0.39935592263859127  0.4391469890831062  1.0000
  Ba  Ba2       1.0  0.7112653642601144  0.6006423608356573  0.560851143510874  1.0000
  H   H1        1.0  0.7095028557913281  0.04083216048103112  0.4307735697750773  1.0000
  H   H2        1.0  0.29049614825350295  0.9591743096191294  0.5692254212896373  1.0000
  H   H3        1.0  0.6186815919880573  0.18952496724637777  0.5174346884346478  1.0000
  H   H4        1.0  0.3813164604577822  0.8104803537284513  0.48256443802333143  1.0000
  H   H5        1.0  0.23212465461699588  0.7172190083133999  0.6060941366855489  1.0000
  H   H6        1.0  0.7678800991537996  0.28278152793561884  0.3939080320199507  1.0000
  H   H7        1.0  0.13861536541967467  0.6109062084814881  0.693428025055816  1.0000
  H   H8        1.0  0.8613907009046144  0.38909430180082444  0.30657490004662696  1.0000
  H   H9        1.0  0.3192327267573987  0.4366304813700524  0.9497816779753167  1.0000
  H   H10       1.0  0.6807729840820896  0.5633712186361779  0.05021769246108932  1.0000
  H   H11       1.0  0.38772198045018064  0.8946271100697559  0.8113043703692925  1.0000
  H   H12       1.0  0.6122807552672284  0.10537584622570514  0.1886872697313606  1.0000
  H   H13       1.0  0.5011227944539128  0.08274286437278992  0.6767784243789094  1.0000
  H   H14       1.0  0.4988881702460332  0.9172587415211952  0.3232221963947239  1.0000
  H   H15       1.0  0.9909682182694224  0.06405617180961094  0.34113028828975445  1.0000
  H   H16       1.0  0.009030689173201363  0.9359421294569971  0.6588725448872736  1.0000
  H   H17       1.0  0.1141006642107953  0.6291891927637822  0.15202307210404342  1.0000
  H   H18       1.0  0.8859141451938938  0.37080417615111133  0.8479818847221807  1.0000
  H   H19       1.0  0.2597939966701972  0.7414923736799396  0.970825746925847  1.0000
  H   H20       1.0  0.7402030130441587  0.2585036439678916  0.029174694161881103  1.0000
  C   C1        1.0  0.48893826753066344  0.3858120389699239  0.7235579748570801  1.0000
  C   C2        1.0  0.5110527682374624  0.6141864278515357  0.2764385446877284  1.0000
  C   C3        1.0  0.4175692279493717  0.2710913968482559  0.8044754892298513  1.0000
  C   C4        1.0  0.5824209382360905  0.7289140506630647  0.1955244245981191  1.0000
  C   C5        1.0  0.3323555553959352  0.3187224695719594  0.9208522323675367  1.0000
  C   C6        1.0  0.6676386906539591  0.6812782549015568  0.0791474356635007  1.0000
  C   C7        1.0  0.2676870274496325  0.21192770378701914  0.9938313145435702  1.0000
  C   C8        1.0  0.7323075832012336  0.7880718553490527  0.006167470027136809  1.0000
  C   C9        1.0  0.2841196048686214  0.058687258212856405  0.9583090990137109  1.0000
  C   C10       1.0  0.7158793153366575  0.9413110771948114  0.04168752078638248  1.0000
  C   C11       1.0  0.37027881092073756  0.012259350865704703  0.8427796831172714  1.0000
  C   C12       1.0  0.6297272626964912  0.9877411789257812  0.15721969148406603  1.0000
  C   C13       1.0  0.4352291304423304  0.11899542430418825  0.7671471299353172  1.0000
  C   C14       1.0  0.5647769431749052  0.8810051054872975  0.23285224466602733  1.0000
  C   C15       1.0  0.2046652143410697  0.968399176780594  0.052648292535025114  1.0000
  C   C16       1.0  0.7953264066018377  0.031601599626348814  0.9473498627021331  1.0000
  C   C17       1.0  0.126338225809441  0.05487680872957412  0.1580742523646421  1.0000
  C   C18       1.0  0.8736468232498067  0.9451240731244402  0.8419245590141672  1.0000
  C   C19       1.0  0.046621220560574377  0.9944118137871814  0.26022694318954365  1.0000
  C   C20       1.0  0.9533663205178938  0.005593685657565602  0.7397714578445331  1.0000
  C   C21       1.0  0.042007825812674884  0.8386274756629606  0.2565417230244265  1.0000
  C   C22       1.0  0.9579828398847637  0.1613721418640567  0.7434583428565489  1.0000
  C   C23       1.0  0.9509635365514413  0.7671606328402379  0.3624456971909283  1.0000
  C   C24       1.0  0.04903296453475289  0.23284119040542361  0.63755902997017  1.0000
  C   C25       1.0  0.11962994011981455  0.7498052145913975  0.1523065617573209  1.0000
  C   C26       1.0  0.8803715978995046  0.25019304937367803  0.8476951213377645  1.0000
  C   C27       1.0  0.20081410781835274  0.8128642602011099  0.05062315612687482  1.0000
  C   C28       1.0  0.7991858934272074  0.18713054505315097  0.9493770266691258  1.0000
  S   S1        1.0  0.1506708531868739  0.24640117479454912  0.1413092940477867  1.0000
  S   S2        1.0  0.8493261638204219  0.7535948623624622  0.858687596538843  1.0000
  O   O1        1.0  0.5356988163828333  0.3519308253411992  0.6108346603657183  1.0000
  O   O2        1.0  0.46430009470626743  0.6480674856799951  0.3891663975607571  1.0000
  O   O3        1.0  0.6349464858179417  0.15361023418343933  0.43345738107123577  1.0000
  O   O4        1.0  0.3650538344268595  0.8463962197046019  0.5665405911398693  1.0000
  O   O5        1.0  0.49965355054082033  0.5090161987212128  0.7678289322790802  1.0000
  O   O6        1.0  0.5003401941738517  0.49099035085931325  0.2321714713242287  1.0000
  O   O7        1.0  0.16157992076759334  0.6394700403905704  0.6087448650673295  1.0000
  O   O8        1.0  0.8384248330032023  0.3605304958584484  0.39125730363817013  1.0000
  O   O9        1.0  0.9764392925799756  0.36590453946043067  0.14114588581276166  1.0000
  O   O10       1.0  0.023561162575823906  0.6340972497807587  0.858853121911693  1.0000
  O   O11       1.0  0.26804347934897527  0.2693108567079677  0.2244152411231894  1.0000
  O   O12       1.0  0.7319632378074273  0.730679202838843  0.7755808829181208  1.0000
  O   O13       1.0  0.8289767877108217  0.8556776903446635  0.43755071006044954  1.0000
  O   O14       1.0  0.17102365468232258  0.14432406475545892  0.5624545110409328  1.0000
  O   O15       1.0  0.9976641018925176  0.6185348716557046  0.3712584875171388  1.0000
  O   O16       1.0  0.0023402763378825757  0.381466800666992  0.6287498904003499  1.0000
