data_image0
_chemical_formula_structural       CuH18C22S4N10O14
_chemical_formula_sum              "Cu1 H18 C22 S4 N10 O14"
_cell_length_a       8.358177800759242
_cell_length_b       9.96256150196703
_cell_length_c       10.379658728842154
_cell_angle_alpha    109.54773169744422
_cell_angle_beta     98.28610594957429
_cell_angle_gamma    102.35057126556748

_space_group_name_H-M_alt    "P 1"
_space_group_IT_number       1

loop_
  _space_group_symop_operation_xyz
  'x, y, z'

loop_
  _atom_site_type_symbol
  _atom_site_label
  _atom_site_symmetry_multiplicity
  _atom_site_fract_x
  _atom_site_fract_y
  _atom_site_fract_z
  _atom_site_occupancy
  Cu  Cu1       1.0  0.9999972416086464  0.9999989746796349  0.9999993375664147  1.0000
  H   H1        1.0  0.7036206702920323  0.4040206723280875  0.0889197283669745  1.0000
  H   H2        1.0  0.29638055740563357  0.5959793883238335  0.9110794664123245  1.0000
  H   H3        1.0  0.20013362446805158  0.6897918276444062  0.315490643895572  1.0000
  H   H4        1.0  0.7998655535831671  0.3102093483637347  0.6845076926293244  1.0000
  H   H5        1.0  0.6719905199692918  0.9123516175483746  0.060181571521049214  1.0000
  H   H6        1.0  0.32800828522091047  0.0876484673764963  0.9398192669291702  1.0000
  H   H7        1.0  0.6060478479555016  0.0539622450762494  0.17868925835604435  1.0000
  H   H8        1.0  0.3939521602751484  0.9460378402315189  0.8213126881165563  1.0000
  H   H9        1.0  0.6107121555230821  0.8916625372438535  0.2119312434372063  1.0000
  H   H10       1.0  0.38928870342019906  0.10833642606511522  0.7880694883385074  1.0000
  H   H11       1.0  0.5665391513226156  0.31732868629434563  0.580402697339963  1.0000
  H   H12       1.0  0.4334613552928488  0.6826691546329117  0.41959571171648236  1.0000
  H   H13       1.0  0.4474786792351964  0.19001524938764905  0.4100955279060371  1.0000
  H   H14       1.0  0.5525260484865911  0.8099881228380144  0.5899041667155486  1.0000
  H   H15       1.0  0.3681396743999059  0.40265516286299885  0.3613436296287489  1.0000
  H   H16       1.0  0.6318666127967915  0.5973493258675902  0.6386585308055642  1.0000
  H   H17       1.0  0.5858641100864689  0.41894788820270895  0.38854924616536113  1.0000
  H   H18       1.0  0.41413818691457754  0.5810555208152764  0.6114540219849827  1.0000
  C   C1        1.0  0.7969098611129224  0.5874184555967333  0.028702196659743603  1.0000
  C   C2        1.0  0.20309185264962792  0.41257937945373874  0.9712963554901602  1.0000
  C   C3        1.0  0.807317665295642  0.5002044326732359  0.10662069003350877  1.0000
  C   C4        1.0  0.192682342935008  0.4997956526345321  0.8933812564390918  1.0000
  C   C5        1.0  0.9518475995961355  0.5408281777312778  0.21292384572235784  1.0000
  C   C6        1.0  0.04815192667626884  0.4591741269182564  0.7870777784507225  1.0000
  C   C7        1.0  0.08592504358836807  0.6622780763112602  0.2359085226223029  1.0000
  C   C8        1.0  0.9140758276748356  0.33772086821864633  0.7640893143666503  1.0000
  C   C9        1.0  0.07739148527530654  0.7465702697391805  0.15364909581931122  1.0000
  C   C10       1.0  0.9226091632905026  0.2534242106855443  0.8463444180306254  1.0000
  C   C11       1.0  0.929166441899902  0.7168694086417916  0.04587699635614943  1.0000
  C   C12       1.0  0.07082754291521809  0.28313068727084817  0.9541213398623966  1.0000
  C   C13       1.0  0.675672159692148  0.9707562364591314  0.17107591362093189  1.0000
  C   C14       1.0  0.32432869925112573  0.029242726849837194  0.8289248181547816  1.0000
  C   C15       1.0  0.8520267266828156  0.0433211438534968  0.2530414775755574  1.0000
  C   C16       1.0  0.14797413636710385  0.9566778131957818  0.7469582892712339  1.0000
  C   C17       1.0  0.11788220537404472  0.17630609450946372  0.42368754418492216  1.0000
  C   C18       1.0  0.8821177987499593  0.8236939970579938  0.576315367216594  1.0000
  C   C19       1.0  0.45984134746218785  0.2964476607692035  0.494135570003813  1.0000
  C   C20       1.0  0.5401609659654268  0.7035557232100301  0.5058638384308551  1.0000
  C   C21       1.0  0.48118685280148543  0.42361242212356137  0.44194106841906927  1.0000
  C   C22       1.0  0.5188170159943937  0.5763920846202879  0.5580617707572343  1.0000
  S   S1        1.0  0.909628492504396  0.11676724125635468  0.4342447739587171  1.0000
  S   S2        1.0  0.09037079875069046  0.8832306180670599  0.565755421862107  1.0000
  S   S3        1.0  0.27977450937526527  0.2676577753847695  0.5731779439893572  1.0000
  S   S4        1.0  0.7202279131495644  0.7323422981694351  0.4268242886701542  1.0000
  N   N1        1.0  0.6428818437365323  0.5425300302790107  0.9198863164146046  1.0000
  N   N2        1.0  0.35711708697745337  0.4574667191820723  0.08011348654478916  1.0000
  N   N3        1.0  0.9630924079386601  0.4524927909722296  0.2986392748123308  1.0000
  N   N4        1.0  0.03691123405318558  0.5475072579261281  0.7013602061538861  1.0000
  N   N5        1.0  0.2302757127766738  0.8620286422750992  0.17657507839893324  1.0000
  N   N6        1.0  0.7697215370452568  0.13797031988515573  0.8234223293096432  1.0000
  N   N7        1.0  0.984680862278779  0.0644520640291333  0.1994373343096001  1.0000
  N   N8        1.0  0.015320357205602757  0.9355480091421667  0.800563790327537  1.0000
  N   N9        1.0  0.13517919294340427  0.14019465135942266  0.2935998267462026  1.0000
  N   N10       1.0  0.8648211717217079  0.859806550070367  0.7064034775167441  1.0000
  O   O1        1.0  0.9083866659233238  0.7887811008063395  0.9666382444955275  1.0000
  O   O2        1.0  0.09160647228580392  0.2112201108454173  0.033360341490983096  1.0000
  O   O3        1.0  0.5814793318609972  0.6394618404618982  0.902703337791017  1.0000
  O   O4        1.0  0.41851839581254063  0.36053490861628024  0.09729535714599538  1.0000
  O   O5        1.0  0.5804760954592041  0.40649629845639623  0.8510294170522881  1.0000
  O   O6        1.0  0.41951919738694715  0.5935004936737942  0.14897381634239787  1.0000
  O   O7        1.0  0.8362411297648509  0.35072264711578793  0.2807138992912855  1.0000
  O   O8        1.0  0.1637600979328084  0.6492774135361401  0.7192852954880137  1.0000
  O   O9        1.0  0.09873215950204887  0.484053854055766  0.38442607487106517  1.0000
  O   O10       1.0  0.9012714824897969  0.5159461948425913  0.6155734060951586  1.0000
  O   O11       1.0  0.33500114466120573  0.9081084625160685  0.2906147066685988  1.0000
  O   O12       1.0  0.664995614989202  0.09189273150532531  0.7093843085982954  1.0000
  O   O13       1.0  0.2505399664576373  0.9068019743732096  0.07955041747043622  1.0000
  O   O14       1.0  0.7494580003398569  0.09319921377140622  0.9204487408899168  1.0000
