data_image0
_chemical_formula_structural       Gd2H32C30O22
_chemical_formula_sum              "Gd2 H32 C30 O22"
_cell_length_a       7.53252339829279
_cell_length_b       9.393188715439482
_cell_length_c       13.050542780906643
_cell_angle_alpha    102.55151408997509
_cell_angle_beta     99.51360723272751
_cell_angle_gamma    107.69051003892218

_space_group_name_H-M_alt    "P 1"
_space_group_IT_number       1

loop_
  _space_group_symop_operation_xyz
  'x, y, z'

loop_
  _atom_site_type_symbol
  _atom_site_label
  _atom_site_symmetry_multiplicity
  _atom_site_fract_x
  _atom_site_fract_y
  _atom_site_fract_z
  _atom_site_occupancy
  Gd  Gd1       1.0  0.6477144776732898  0.21491601065132224  0.011588568269011983  1.0000
  Gd  Gd2       1.0  0.35227935519930037  0.7850819876734006  0.9884099137862208  1.0000
  H   H1        1.0  0.28175943999986686  0.2441347986252468  0.2797444617559179  1.0000
  H   H2        1.0  0.7182384842073332  0.7558667864244059  0.7202549273143077  1.0000
  H   H3        1.0  0.08232006997460671  0.22000309157280643  0.1773874408791372  1.0000
  H   H4        1.0  0.9176766872167474  0.7799915609935368  0.8226145635982506  1.0000
  H   H5        1.0  0.8899120648312289  0.7693523860779832  0.2613830725443407  1.0000
  H   H6        1.0  0.11009105382699862  0.23065167710984721  0.738620964138029  1.0000
  H   H7        1.0  0.9507257371776136  0.6867947778552692  0.4311391084402771  1.0000
  H   H8        1.0  0.04927734807410642  0.31320238704386594  0.5688630399781829  1.0000
  H   H9        1.0  0.42520228353361483  0.12186292679307092  0.5757206682273974  1.0000
  H   H10       1.0  0.5748094845616407  0.8781322339017239  0.4242826117055216  1.0000
  H   H11       1.0  0.35717496352504696  0.20424338243247322  0.41462329265452524  1.0000
  H   H12       1.0  0.6428348678587169  0.7957540094345107  0.5853778956425941  1.0000
  H   H13       1.0  0.29261589635144253  0.06360425150188581  0.7164161520479126  1.0000
  H   H14       1.0  0.7073824844304824  0.9363950501826396  0.28358290289682486  1.0000
  H   H15       1.0  0.4826538641927414  0.9911174172640144  0.7027502158218724  1.0000
  H   H16       1.0  0.5173470587910458  0.008884274171329308  0.297254794707861  1.0000
  H   H17       1.0  0.35542675292912657  0.3673758669431777  0.7200329442465403  1.0000
  H   H18       1.0  0.644582503822498  0.6326272504339344  0.2799668275287814  1.0000
  H   H19       1.0  0.5265443031467356  0.5503255549166824  0.8048417010463991  1.0000
  H   H20       1.0  0.47345400062908977  0.4496737427682049  0.19515581402448126  1.0000
  H   H21       1.0  0.33786644286296763  0.5493825708128952  0.6483033027584284  1.0000
  H   H22       1.0  0.6621298907948585  0.4506120597554926  0.35169023241274994  1.0000
  H   H23       1.0  0.7662653599121613  0.3965248615564931  0.5228480956919555  1.0000
  H   H24       1.0  0.23372608731902028  0.6034673068722256  0.47714695136250646  1.0000
  H   H25       1.0  0.07303863230462335  0.3960333005473872  0.0010591069123648963  1.0000
  H   H26       1.0  0.9269568321686564  0.6039682061139688  0.9989454398153513  1.0000
  H   H27       1.0  0.9923205497336623  0.21438807753875014  0.9749215091107217  1.0000
  H   H28       1.0  0.007675594322506654  0.785612298537906  0.02507830890793631  1.0000
  H   H29       1.0  0.695291455732722  0.5666698607348765  0.08975780268414722  1.0000
  H   H30       1.0  0.3047062349079254  0.4333351604603238  0.910237525928011  1.0000
  H   H31       1.0  0.8852377695675813  0.5450653449870374  0.15426152910441707  1.0000
  H   H32       1.0  0.11476033914473761  0.4549373908432202  0.8457326954453208  1.0000
  C   C1        1.0  0.27142198533442047  0.1078712636620054  0.1222312107783949  1.0000
  C   C2        1.0  0.7285728711002193  0.8921290702207898  0.8777700311636137  1.0000
  C   C3        1.0  0.1724079541401196  0.1587396560509404  0.2087490274066397  1.0000
  C   C4        1.0  0.8275887619999196  0.8412584426600277  0.7912527662973119  1.0000
  C   C5        1.0  0.11529506202129623  0.991663142288303  0.3265801046686008  1.0000
  C   C6        1.0  0.8846997969616126  0.008333743450045015  0.6734205781099193  1.0000
  C   C7        1.0  0.006603375062731127  0.8441683257816877  0.33177193773159525  1.0000
  C   C8        1.0  0.993404368510923  0.155837044765569  0.668234211714136  1.0000
  C   C9        1.0  0.04113908908960438  0.7983810965083792  0.42512954957943083  1.0000
  C   C10       1.0  0.9588607333260413  0.2016182553692616  0.5748711611896695  1.0000
  C   C11       1.0  0.18938093704411324  0.8988427784757036  0.5152256908157895  1.0000
  C   C12       1.0  0.8106303334251024  0.10115811172884291  0.4847777124691817  1.0000
  C   C13       1.0  0.3048520289027222  0.04284016019263961  0.5086271321611093  1.0000
  C   C14       1.0  0.6951499891873567  0.957161563437495  0.4913726047606274  1.0000
  C   C15       1.0  0.2672570317287892  0.08936608387089962  0.41485491963834425  1.0000
  C   C16       1.0  0.7327520405177167  0.9106358827256003  0.5851500166574795  1.0000
  C   C17       1.0  0.3286845807880069  0.9569214233051112  0.7033814575971532  1.0000
  C   C18       1.0  0.6713144080325576  0.043079051157974405  0.2966209021332915  1.0000
  C   C19       1.0  0.3054356947802789  0.8953695973362131  0.8002189193348883  1.0000
  C   C20       1.0  0.6945577610719552  0.10462724020882773  0.1997808775562007  1.0000
  C   C21       1.0  0.5576235381840676  0.3515700679580719  0.8461224907949827  1.0000
  C   C22       1.0  0.4423788158750597  0.648436262596377  0.15387572051745477  1.0000
  C   C23       1.0  0.5085956345891844  0.429555131565678  0.7622558122884087  1.0000
  C   C24       1.0  0.49140891514437607  0.5704535707412576  0.23774142517667937  1.0000
  C   C25       1.0  0.5594481659960024  0.46644607083802464  0.5963198645718464  1.0000
  C   C26       1.0  0.4405533210615361  0.5335544840131663  0.40367810743803995  1.0000
  C   C27       1.0  0.4080183490786098  0.5241710282059272  0.5835833127057555  1.0000
  C   C28       1.0  0.591981811854346  0.4758294824515873  0.4164153132905568  1.0000
  C   C29       1.0  0.6514664283375212  0.4438167550645177  0.5130007085674109  1.0000
  C   C30       1.0  0.3485321064565951  0.5561825546192622  0.4870014261250403  1.0000
  O   O1        1.0  0.3990521365151806  0.21511609838331944  0.10228832615245409  1.0000
  O   O2        1.0  0.6009444256126598  0.7848819923283943  0.8977103878037838  1.0000
  O   O3        1.0  0.2208250083605989  0.9631401768273236  0.07579658726832857  1.0000
  O   O4        1.0  0.7791709406320634  0.036863637394702706  0.9241999402291796  1.0000
  O   O5        1.0  0.0510633697246163  0.0301839031568747  0.23477431739566157  1.0000
  O   O6        1.0  0.9489470671495182  0.9698181096331239  0.7652307348506611  1.0000
  O   O7        1.0  0.20919607466141343  0.8451750799322896  0.6054128709204889  1.0000
  O   O8        1.0  0.7908048174641422  0.15481626506991122  0.3945896921818459  1.0000
  O   O9        1.0  0.39164730498709593  0.9962611291127674  0.8940463167384891  1.0000
  O   O10       1.0  0.6083415619044814  0.0037378512171031032  0.10595269648965912  1.0000
  O   O11       1.0  0.21682170067166598  0.7550098623112476  0.7933694810248041  1.0000
  O   O12       1.0  0.7831703880046631  0.24499037718474165  0.20663075907926748  1.0000
  O   O13       1.0  0.44991395894737707  0.33976168785815025  0.9136615474595614  1.0000
  O   O14       1.0  0.5500939716796721  0.6602413853252784  0.08633887830218608  1.0000
  O   O15       1.0  0.6947360897071915  0.30062656625017337  0.85198130190782  1.0000
  O   O16       1.0  0.30525834865576934  0.6993760529975575  0.148021044096609  1.0000
  O   O17       1.0  0.6236964519123802  0.42631314354844113  0.6869586987825684  1.0000
  O   O18       1.0  0.37630597660457005  0.5736966391500717  0.3130416115672219  1.0000
  O   O19       1.0  0.0029717592399763106  0.31089553715585794  0.02807625336259179  1.0000
  O   O20       1.0  0.9970254879326035  0.689103730334054  0.9719273052532102  1.0000
  O   O21       1.0  0.7837988250432346  0.5026766372720742  0.0871530203094864  1.0000
  O   O22       1.0  0.21619928366908422  0.49732609855818294  0.9128412042402516  1.0000
