data_image0
_chemical_formula_structural       Zn2H44C58N4O16
_chemical_formula_sum              "Zn2 H44 C58 N4 O16"
_cell_length_a       8.626367714752016
_cell_length_b       12.345168974926715
_cell_length_c       13.324843991138675
_cell_angle_alpha    72.89994799597117
_cell_angle_beta     80.88109128709351
_cell_angle_gamma    85.70453039552238

_space_group_name_H-M_alt    "P 1"
_space_group_IT_number       1

loop_
  _space_group_symop_operation_xyz
  'x, y, z'

loop_
  _atom_site_type_symbol
  _atom_site_label
  _atom_site_symmetry_multiplicity
  _atom_site_fract_x
  _atom_site_fract_y
  _atom_site_fract_z
  _atom_site_occupancy
  Zn  Zn1       1.0  0.9422157145484604  0.3931974844425242  0.2465661189654541  1.0000
  Zn  Zn2       1.0  0.05778483588640171  0.6068015772747373  0.7534336105159627  1.0000
  H   H1        1.0  0.005330826619932299  0.9705449584042756  0.5877417491195517  1.0000
  H   H2        1.0  0.9946696620943027  0.0294557990251221  0.41225753464582493  1.0000
  H   H3        1.0  0.5444152218134022  0.28196348812278427  0.1868771867731667  1.0000
  H   H4        1.0  0.45558406187272027  0.7180381203532634  0.813121988249634  1.0000
  H   H5        1.0  0.40013373255193596  0.18283392549671626  0.3613044763186508  1.0000
  H   H6        1.0  0.5998667786425926  0.8171659785064591  0.6386957831234316  1.0000
  H   H7        1.0  0.31697420617954464  0.014681036967530802  0.6973230808537139  1.0000
  H   H8        1.0  0.6830251308471772  0.9853188702262227  0.30267729270380556  1.0000
  H   H9        1.0  0.7339956323456178  0.20674965274746882  0.5605546203052826  1.0000
  H   H10       1.0  0.266002421172317  0.793252790064763  0.4394467044309778  1.0000
  H   H11       1.0  0.7083507786797226  0.09215325593878991  0.7398677200027495  1.0000
  H   H12       1.0  0.29164859758734  0.9078458089690432  0.26013212359410426  1.0000
  H   H13       1.0  0.555502315195696  0.9940858999863877  0.7942120145075434  1.0000
  H   H14       1.0  0.44450061443508554  0.005912307493659301  0.2057877096010046  1.0000
  H   H15       1.0  0.3365330207306769  0.24363792558413164  0.7093160812413616  1.0000
  H   H16       1.0  0.6634688189332111  0.7563577359481215  0.29068517837537666  1.0000
  H   H17       1.0  0.3195760630462914  0.3611279903257768  0.9829117924082527  1.0000
  H   H18       1.0  0.6804255773554574  0.6388736173392715  0.01708640156498119  1.0000
  H   H19       1.0  0.6415382371217078  0.08861912659433104  0.9434633915526547  1.0000
  H   H20       1.0  0.35845994555771205  0.9113790602270984  0.0565413059297413  1.0000
  H   H21       1.0  0.004614597484177798  0.3737114280302124  0.4612182312545273  1.0000
  H   H22       1.0  0.9953847364820944  0.6262902138667386  0.5387764268561881  1.0000
  H   H23       1.0  0.2130842230125367  0.4242786064069934  0.5466349941889277  1.0000
  H   H24       1.0  0.7869151867746211  0.575720480781449  0.4533618381332047  1.0000
  H   H25       1.0  0.4958896665952678  0.5168086605161405  0.23634795492627358  1.0000
  H   H26       1.0  0.5041131704545733  0.4831920905321142  0.7636511006082217  1.0000
  H   H27       1.0  0.275910035715242  0.46093750938209144  0.16487677309773832  1.0000
  H   H28       1.0  0.7240927030334278  0.539066649800894  0.835119132548634  1.0000
  H   H29       1.0  0.13572338205096202  0.18140664602318424  0.251862010108411  1.0000
  H   H30       1.0  0.86427595497576  0.8185932611705696  0.7481383634491081  1.0000
  H   H31       1.0  0.5174592020728356  0.6069238020183293  0.404814034650606  1.0000
  H   H32       1.0  0.48254013495388665  0.3930761051754175  0.5951863389069132  1.0000
  H   H33       1.0  0.6174698607530403  0.4781156251098365  0.4076878131834505  1.0000
  H   H34       1.0  0.3825282628655415  0.5218851275604025  0.5923132044501713  1.0000
  H   H35       1.0  0.1703319014655662  0.039010190032598806  0.15086601752097556  1.0000
  H   H36       1.0  0.829668671449582  0.9609880182584406  0.8491346876371396  1.0000
  H   H37       1.0  0.17321237551747973  0.023788914286036796  0.9536170435180225  1.0000
  H   H38       1.0  0.8267858041014905  0.9762110072385967  0.046381938517576854  1.0000
  H   H39       1.0  0.011508577586077708  0.09011279308406019  0.8908220425813624  1.0000
  H   H40       1.0  0.9884896328932059  0.9098862805845018  0.1091771623122568  1.0000
  H   H41       1.0  0.9001785739188081  0.26386383193591467  0.9238940914900768  1.0000
  H   H42       1.0  0.09981957483984868  0.7361369374447834  0.07610466768750263  1.0000
  H   H43       1.0  0.8735628939422001  0.3976486060644361  0.03580254061217401  1.0000
  H   H44       1.0  0.12643648232486274  0.6023504588433894  0.9641973029846798  1.0000
  C   C1        1.0  0.57841716254584  0.20180097989986487  0.45150449705389667  1.0000
  C   C2        1.0  0.42158330102832053  0.7981997608190742  0.5484970451675224  1.0000
  C   C3        1.0  0.4368090857097543  0.1625365183575269  0.4393987573665115  1.0000
  C   C4        1.0  0.5631902036966068  0.8374642255519902  0.5606028989703448  1.0000
  C   C5        1.0  0.3420976717462167  0.09619845649260132  0.528168328075232  1.0000
  C   C6        1.0  0.6579028535485706  0.9038005885142016  0.4718336598622274  1.0000
  C   C7        1.0  0.3895934248201058  0.06841538790799721  0.6289398311013202  1.0000
  C   C8        1.0  0.610405903826596  0.9315845137155988  0.3710612952748775  1.0000
  C   C9        1.0  0.5306051232189831  0.108235152697219  0.6418543892405995  1.0000
  C   C10       1.0  0.4693942362880252  0.8917639010703127  0.35814695999361856  1.0000
  C   C11       1.0  0.6231734772085319  0.1750321692070856  0.5527746065482616  1.0000
  C   C12       1.0  0.3768257813375158  0.8249694225585034  0.4472268269305817  1.0000
  C   C13       1.0  0.5804912899303928  0.08267651111520989  0.74970439202324  1.0000
  C   C14       1.0  0.4195093306051163  0.9173208604600661  0.2502950303555381  1.0000
  C   C15       1.0  0.5015144546206826  0.15776290127606532  0.8160518419064786  1.0000
  C   C16       1.0  0.4984873515231102  0.8422327379755787  0.1839524289849805  1.0000
  C   C17       1.0  0.38115940891290023  0.2359978890078835  0.7831869741700146  1.0000
  C   C18       1.0  0.6188411864825342  0.7639994658569338  0.21681470666479907  1.0000
  C   C19       1.0  0.31550333228521776  0.3090411659901378  0.8425497045624368  1.0000
  C   C20       1.0  0.6844960047415044  0.6909587412036159  0.1574506689950823  1.0000
  C   C21       1.0  0.3687477950561515  0.30312616067505616  0.937709941275955  1.0000
  C   C22       1.0  0.6312514802499436  0.6968754422308335  0.06228998656552428  1.0000
  C   C23       1.0  0.4848136791236542  0.22182787749297006  0.9740969377240776  1.0000
  C   C24       1.0  0.5151856720033335  0.7781711707044042  0.025905164328818703  1.0000
  C   C25       1.0  0.550401986368918  0.150243272813384  0.9131716751039677  1.0000
  C   C26       1.0  0.44959621307054926  0.8497549251483466  0.08683151674107131  1.0000
  C   C27       1.0  0.6833692151898703  0.2717453743151665  0.3580733706453999  1.0000
  C   C28       1.0  0.3166301134568315  0.7282545273084369  0.641927755730798  1.0000
  C   C29       1.0  0.19240514812568682  0.05471115587194931  0.5142484065232011  1.0000
  C   C30       1.0  0.8075953322085212  0.9452895959872978  0.48575163006086103  1.0000
  C   C31       1.0  0.19620833908063423  0.3975128020788007  0.7972795617275068  1.0000
  C   C32       1.0  0.8037910764267622  0.6024854205431109  0.20271975190868832  1.0000
  C   C33       1.0  0.5434508951736846  0.20893322579585322  0.07660459726415786  1.0000
  C   C34       1.0  0.45654719758459084  0.7910683747304649  0.923396197511444  1.0000
  C   C35       1.0  0.11590694920455755  0.406051075122683  0.41470515098747285  1.0000
  C   C36       1.0  0.8840935897898277  0.5939497157276251  0.5852896158658254  1.0000
  C   C37       1.0  0.2336412905246519  0.435390980729686  0.46127414970259656  1.0000
  C   C38       1.0  0.7663592850502852  0.5646080976980272  0.5387233213227776  1.0000
  C   C39       1.0  0.37401791132550244  0.4780380526287474  0.39796515823188383  1.0000
  C   C40       1.0  0.6259861616127651  0.521960999516793  0.6020342289032145  1.0000
  C   C41       1.0  0.38847829004802037  0.48697248038138247  0.2893867730825121  1.0000
  C   C42       1.0  0.6115268252367726  0.513029954427715  0.7106123613237402  1.0000
  C   C43       1.0  0.2663304464812839  0.45574385949067436  0.24875901799077837  1.0000
  C   C44       1.0  0.7336723764682916  0.5442577505539531  0.7512383090483399  1.0000
  C   C45       1.0  0.5072730138073923  0.5144911891388659  0.4399538801705488  1.0000
  C   C46       1.0  0.4927263148393096  0.4855087124847303  0.5600472462056487  1.0000
  C   C47       1.0  0.08537530166821482  0.19635923499203764  0.17873389416430294  1.0000
  C   C48       1.0  0.9146264313144741  0.8036398291048032  0.821264968382991  1.0000
  C   C49       1.0  0.10351861931417973  0.11741537014350463  0.12200027493774708  1.0000
  C   C50       1.0  0.8964807794331621  0.8825828413381064  0.8780005443358122  1.0000
  C   C51       1.0  0.036317537257787115  0.1387685314392755  0.028811374238124212  1.0000
  C   C52       1.0  0.9636806256011353  0.8612313789450426  0.9711891134348323  1.0000
  C   C53       1.0  0.049888115583556214  0.052131208510381596  0.9688105663624924  1.0000
  C   C54       1.0  0.9501111764825937  0.9478704055358094  0.031187855841629687  1.0000
  C   C55       1.0  0.9535751050626474  0.2418874261510666  0.9964627497700321  1.0000
  C   C56       1.0  0.0464242011037683  0.7581133288987586  0.0035374009294671612  1.0000
  C   C57       1.0  0.9390119887078612  0.3171727732972727  0.05725770523456933  1.0000
  C   C58       1.0  0.060986182531081595  0.6828271426572031  0.9427420296197087  1.0000
  N   N1        1.0  0.13092300090146128  0.41620242393336326  0.3101604284684853  1.0000
  N   N2        1.0  0.869079838808169  0.5837991972515653  0.6898353929332688  1.0000
  N   N3        1.0  0.0031055327593492014  0.29468646866452275  0.14735291966183442  1.0000
  N   N4        1.0  0.9968950176755129  0.7053125930527318  0.852646809819582  1.0000
  O   O1        1.0  0.8105237085417586  0.3050992667278649  0.3783122182709421  1.0000
  O   O2        1.0  0.18947559762465  0.6949014883219603  0.6216879324285571  1.0000
  O   O3        1.0  0.6476714232226399  0.2969459126735572  0.26598574096536254  1.0000
  O   O4        1.0  0.35232783532340767  0.7030556790920316  0.7340156925134806  1.0000
  O   O5        1.0  0.1512406594298028  0.07286749970342041  0.4246394922390594  1.0000
  O   O6        1.0  0.8487586692168918  0.927132401920176  0.5753616341371455  1.0000
  O   O7        1.0  0.10720212558852177  0.9979492304961115  0.6030522777001224  1.0000
  O   O8        1.0  0.8927983631257136  0.002051526933286101  0.39694700606525407  1.0000
  O   O9        1.0  0.1445770562077726  0.3963784971252124  0.7149800336476488  1.0000
  O   O10       1.0  0.8554258593227431  0.6036205693512073  0.28501796196552226  1.0000
  O   O11       1.0  0.1585601228304085  0.474828990839164  0.8461706047795517  1.0000
  O   O12       1.0  0.8414392618166744  0.5251700796388191  0.15382848599862348  1.0000
  O   O13       1.0  0.48856140187310604  0.289445231763139  0.12275991917417886  1.0000
  O   O14       1.0  0.5114343734098695  0.7105555272882499  0.8772413266903174  1.0000
  O   O15       1.0  0.6340351490100673  0.13069050430940624  0.114496147031403  1.0000
  O   O16       1.0  0.36596179206068774  0.8693102459812537  0.8855057375363345  1.0000
