data_image0
_chemical_formula_structural       Zn4H72C98N4O16
_chemical_formula_sum              "Zn4 H72 C98 N4 O16"
_cell_length_a       16.48313564351826
_cell_length_b       17.918322576038953
_cell_length_c       33.313708201425186
_cell_angle_alpha    90.25257936307433
_cell_angle_beta     89.95813868874951
_cell_angle_gamma    89.8744033700222

_space_group_name_H-M_alt    "P 1"
_space_group_IT_number       1

loop_
  _space_group_symop_operation_xyz
  'x, y, z'

loop_
  _atom_site_type_symbol
  _atom_site_label
  _atom_site_symmetry_multiplicity
  _atom_site_fract_x
  _atom_site_fract_y
  _atom_site_fract_z
  _atom_site_occupancy
  Zn  Zn1       1.0  0.5862131062015196  0.5013108334682953  0.4985824036257824  1.0000
  Zn  Zn2       1.0  0.41864244651855403  0.501458653836046  0.5018251987338687  1.0000
  Zn  Zn3       1.0  0.4142198529663972  0.5048566371402642  0.9646747328214147  1.0000
  Zn  Zn4       1.0  0.5817400121677848  0.5045096454193329  0.9615215785143718  1.0000
  H   H1        1.0  0.28808270503959227  0.5720636003267431  0.5519169099428538  1.0000
  H   H2        1.0  0.13507587261010204  0.5733324276292818  0.5531786450639798  1.0000
  H   H3        1.0  0.29225162861048665  0.4254102322832694  0.4559433030916439  1.0000
  H   H4        1.0  0.7127359128258703  0.5932114234128394  0.5358582918619632  1.0000
  H   H5        1.0  0.7171317624174521  0.4113248138244431  0.45931324682487673  1.0000
  H   H6        1.0  0.8700708764166549  0.4067936663456279  0.4602342687850153  1.0000
  H   H7        1.0  0.633251436735918  0.742599845979953  0.503820427090872  1.0000
  H   H8        1.0  0.6287756859788445  0.8822815468965431  0.5040484917938173  1.0000
  H   H9        1.0  0.3736020854207638  0.7363058748403049  0.5000507800885714  1.0000
  H   H10       1.0  0.6354887170666856  0.2607143368298209  0.49523726298891546  1.0000
  H   H11       1.0  0.37615519291870914  0.26556410844586514  0.5034315337994641  1.0000
  H   H12       1.0  0.3736379258812761  0.125807306504548  0.5043592238175449  1.0000
  H   H13       1.0  0.6316017625799262  0.4845972042854568  0.7050618454373847  1.0000
  H   H14       1.0  0.36913583408767175  0.4850868686672313  0.7580383272028683  1.0000
  H   H15       1.0  0.6209046037434903  0.5100586546651655  0.8365279700727726  1.0000
  H   H16       1.0  0.6290139023079461  0.5104627898430111  0.762713102869384  1.0000
  H   H17       1.0  0.3794205329286271  0.5105234156042043  0.626963898050569  1.0000
  H   H18       1.0  0.37173149782696413  0.511381396631009  0.7007773986616286  1.0000
  H   H19       1.0  0.3779155418377727  0.510149990958972  0.0901672735916179  1.0000
  H   H20       1.0  0.3759178687846401  0.5061608270465073  0.1652970345402096  1.0000
  H   H21       1.0  0.6376166762801888  0.5007935823410462  0.0916483260209517  1.0000
  H   H22       1.0  0.3622871013066273  0.4970373999365307  0.3718871134134503  1.0000
  H   H23       1.0  0.6220285274945  0.5044487290304716  0.3729534253722804  1.0000
  H   H24       1.0  0.6234056915700066  0.5025163732282962  0.2977720115569724  1.0000
  H   H25       1.0  0.7116384741030047  0.5745189695419411  0.9112350778543998  1.0000
  H   H26       1.0  0.8646283566183541  0.5755945874428363  0.9096556725215095  1.0000
  H   H27       1.0  0.7087857726890122  0.42870504948625404  0.006877212383358299  1.0000
  H   H28       1.0  0.2872882726427477  0.5960902261150312  0.9273580482009578  1.0000
  H   H29       1.0  0.28356937505495955  0.4157060740591376  0.004071483364612  1.0000
  H   H30       1.0  0.1306985117245532  0.41088230949668514  0.0028743824400053  1.0000
  H   H31       1.0  0.36664186077062066  0.7456695463968473  0.9572463190566722  1.0000
  H   H32       1.0  0.37034513284920934  0.8853032490939867  0.9561661544259294  1.0000
  H   H33       1.0  0.6262135615061126  0.73972348929901  0.9625939636632026  1.0000
  H   H34       1.0  0.3649410390885066  0.26519470812608864  0.9679875398239445  1.0000
  H   H35       1.0  0.6241312290730222  0.26771088080156596  0.9586261554018378  1.0000
  H   H36       1.0  0.6257246252882569  0.127958472636692  0.9564817043527043  1.0000
  H   H37       1.0  0.1376719057486042  0.3431804706020287  0.4527691231326187  1.0000
  H   H38       1.0  0.0645794084023308  0.413706149243886  0.442680188264724  1.0000
  H   H39       1.0  0.15726490370937538  0.40999583722032906  0.4150110678884147  1.0000
  H   H40       1.0  0.8741590866656068  0.5918398382439847  0.5819439854741048  1.0000
  H   H41       1.0  0.9387495951252234  0.6194322919428075  0.542060856848174  1.0000
  H   H42       1.0  0.8430590783116971  0.6644701517236129  0.5494282114124971  1.0000
  H   H43       1.0  0.3086628310146581  0.8732744294576236  0.5283968747840646  1.0000
  H   H44       1.0  0.34960178871223485  0.9462795317587619  0.4986821496422422  1.0000
  H   H45       1.0  0.30662639609952436  0.8658827451286158  0.4753911823665149  1.0000
  H   H46       1.0  0.6916730505831127  0.11763782909540056  0.5256079303968377  1.0000
  H   H47       1.0  0.6492535973333844  0.0505949497227576  0.49235748244805677  1.0000
  H   H48       1.0  0.6977792238978822  0.1317803154409347  0.47310613061942763  1.0000
  H   H49       1.0  0.6987995350226869  0.5462914436398522  0.1650983750030761  1.0000
  H   H50       1.0  0.6516816105949489  0.4970970916068395  0.2050786377972145  1.0000
  H   H51       1.0  0.695906592635957  0.4474949260440935  0.1641604199082067  1.0000
  H   H52       1.0  0.301044050270626  0.5451642884839742  0.2986049221211502  1.0000
  H   H53       1.0  0.3473471392401565  0.495049748890281  0.2584379996496011  1.0000
  H   H54       1.0  0.3028058661003712  0.4463417121457667  0.2992966111365476  1.0000
  H   H55       1.0  0.863017124821667  0.3464413840030147  0.009836588803757698  1.0000
  H   H56       1.0  0.9365031468298853  0.4166224322338579  0.0196884124216368  1.0000
  H   H57       1.0  0.8441452582145176  0.4140507146299868  0.04762102547273629  1.0000
  H   H58       1.0  0.1257256106820606  0.5933034583135354  0.8810151019429924  1.0000
  H   H59       1.0  0.0613526401227134  0.6222111241524144  0.9209040913496551  1.0000
  H   H60       1.0  0.1570184933571568  0.6666668259021264  0.9132824724197306  1.0000
  H   H61       1.0  0.688782117726774  0.8792700162873713  0.9324297859312267  1.0000
  H   H62       1.0  0.6493241421531409  0.9492501650139716  0.964993341618822  1.0000
  H   H63       1.0  0.6939803875772199  0.8667170217410529  0.9850640213560239  1.0000
  H   H64       1.0  0.3088791973592322  0.12059227112671783  0.9358678153472724  1.0000
  H   H65       1.0  0.3499232686938213  0.05546104649936011  0.9703540170021512  1.0000
  H   H66       1.0  0.3009185044677949  0.1381322644548248  0.9881095562143899  1.0000
  H   H67       1.0  0.7105729133000197  0.48549007274024786  0.6517533147143552  1.0000
  H   H68       1.0  0.6706268183893088  0.4371141135331698  0.6090129174294887  1.0000
  H   H69       1.0  0.6763655272932425  0.5347221191359494  0.6083397599554203  1.0000
  H   H70       1.0  0.289878629020933  0.48654762309381266  0.8111972131000798  1.0000
  H   H71       1.0  0.32954145873071644  0.4384054064403813  0.8539081507128897  1.0000
  H   H72       1.0  0.3237544491196829  0.5360660417552553  0.8547703242392188  1.0000
  C   C1        1.0  0.5050092178077036  0.647766110886728  0.5016529995054881  1.0000
  C   C2        1.0  0.5051749102917213  0.50027535691094  0.5789753468341843  1.0000
  C   C3        1.0  0.5078584039548133  0.3547812669860946  0.4986834359572683  1.0000
  C   C4        1.0  0.491745112717595  0.5012914378112185  0.4216757420348145  1.0000
  C   C5        1.0  0.4952613913755783  0.650986698509243  0.9607804088526352  1.0000
  C   C6        1.0  0.49488424926113334  0.5013567610603785  0.8843210377795571  1.0000
  C   C7        1.0  0.4930468617432097  0.358124547842813  0.9647163604307422  1.0000
  C   C8        1.0  0.5085099378074317  0.506317010821654  0.0416201079687113  1.0000
  C   C9        1.0  0.2520502628022215  0.5394099412508524  0.530796628023694  1.0000
  C   C10       1.0  0.16805477199611119  0.5395078865129648  0.5313683721934696  1.0000
  C   C11       1.0  0.12527712983657582  0.49543718898119943  0.5033272381166114  1.0000
  C   C12       1.0  0.16969119311739433  0.45178000972416743  0.4753341396890605  1.0000
  C   C13       1.0  0.2541812226823765  0.45638675563601777  0.477101739434616  1.0000
  C   C14       1.0  0.0394296986185836  0.4961762886173418  0.5031943328689225  1.0000
  C   C15       1.0  0.965423425816553  0.49818144952507026  0.5028126395668835  1.0000
  C   C16       1.0  0.8796555934490655  0.5003772653687121  0.5015666133630177  1.0000
  C   C17       1.0  0.8351599992437642  0.5543124411739981  0.5237563077968233  1.0000
  C   C18       1.0  0.7508118058734112  0.5525071114794499  0.5201650631569521  1.0000
  C   C19       1.0  0.7530817289706703  0.45087240445663906  0.4767201007176354  1.0000
  C   C20       1.0  0.837057789300019  0.448493538717429  0.4776446926339162  1.0000
  C   C21       1.0  0.5032556193700018  0.7314005996537603  0.5021324332166229  1.0000
  C   C22       1.0  0.5756210763599015  0.7724422733845556  0.5032992730232522  1.0000
  C   C23       1.0  0.5729868022827916  0.8497406351731911  0.5033916170778312  1.0000
  C   C24       1.0  0.49796993455081673  0.8882761205300015  0.5025603331561186  1.0000
  C   C25       1.0  0.4244466719188864  0.8471962461274885  0.5015692952372532  1.0000
  C   C26       1.0  0.429040265342735  0.7693991689852452  0.5012098683414266  1.0000
  C   C27       1.0  0.4981481570973045  0.9672372178100942  0.5023502115416676  1.0000
  C   C28       1.0  0.5008246933017162  0.035402101445988904  0.5017936927157721  1.0000
  C   C29       1.0  0.5039279277611541  0.11427943680948258  0.500888036689723  1.0000
  C   C30       1.0  0.5792938881633986  0.1522911214734961  0.49833643816503326  1.0000
  C   C31       1.0  0.5784556792175053  0.230169921299357  0.4973153669839618  1.0000
  C   C32       1.0  0.5062010052257618  0.2711561941496683  0.499176803168723  1.0000
  C   C33       1.0  0.43205583602564707  0.23316267965059714  0.5018355730595871  1.0000
  C   C34       1.0  0.43094384596545154  0.1558621567893255  0.5024749178926058  1.0000
  C   C35       1.0  0.5084322767554923  0.49911716178719706  0.623989555545478  1.0000
  C   C36       1.0  0.491876052110527  0.49953177091881423  0.8392980844758141  1.0000
  C   C37       1.0  0.5810153060892275  0.49236136603083475  0.6464335285211433  1.0000
  C   C38       1.0  0.5751916505551408  0.4911882211259028  0.688356521688462  1.0000
  C   C39       1.0  0.419407863438785  0.4929451069375617  0.8167472753705027  1.0000
  C   C40       1.0  0.4254497156076766  0.49155980371138963  0.7748333326698216  1.0000
  C   C41       1.0  0.5659050724061744  0.504977412527076  0.8186514716315756  1.0000
  C   C42       1.0  0.5700356001682464  0.504516645922628  0.7770835849806303  1.0000
  C   C43       1.0  0.4345236507662875  0.5051799201765945  0.6447380725556116  1.0000
  C   C44       1.0  0.43061016828339393  0.5049646862333146  0.6863081652934397  1.0000
  C   C45       1.0  0.5015814294801401  0.49762648387836345  0.7094136419958446  1.0000
  C   C46       1.0  0.49914967288852086  0.49760271737787315  0.7538734379694034  1.0000
  C   C47       1.0  0.5080470138214322  0.5051976525521836  0.086599126699312  1.0000
  C   C48       1.0  0.4339593045052509  0.5070932526956966  0.10735275596042018  1.0000
  C   C49       1.0  0.43311843423963137  0.5050548197892581  0.1488842532716959  1.0000
  C   C50       1.0  0.5063184394677905  0.5017647731857622  0.17094176788534549  1.0000
  C   C51       1.0  0.5816520520064972  0.500450422014822  0.1502407325354937  1.0000
  C   C52       1.0  0.5805821267580101  0.5019174278697704  0.1083161710431426  1.0000
  C   C53       1.0  0.502459982459527  0.5002288034187643  0.2133505246576561  1.0000
  C   C54       1.0  0.496512865561435  0.4994271310160556  0.2499153960756431  1.0000
  C   C55       1.0  0.4929482197557888  0.4993386584766667  0.2923404126673006  1.0000
  C   C56       1.0  0.4177722198557491  0.4977770911956299  0.31316689511747603  1.0000
  C   C57       1.0  0.4191723002978236  0.4981711017063263  0.3550996194154621  1.0000
  C   C58       1.0  0.4918869949382981  0.5005564758525552  0.37670297717649953  1.0000
  C   C59       1.0  0.5658322893084246  0.5023036092688355  0.3558379322788099  1.0000
  C   C60       1.0  0.5663301977313537  0.5013609393446927  0.3142936451845841  1.0000
  C   C61       1.0  0.7479533391799295  0.5420026872500615  0.9322091199956262  1.0000
  C   C62       1.0  0.8319599263793974  0.5420062465871139  0.9314728000338661  1.0000
  C   C63       1.0  0.8751454845546505  0.49821260654129407  0.9593783618460846  1.0000
  C   C64       1.0  0.8310714481260675  0.4548549541876595  0.9873462267757276  1.0000
  C   C65       1.0  0.7465598268165935  0.45950146673561676  0.9857238632828497  1.0000
  C   C66       1.0  0.9609940197306628  0.4990277758504503  0.9594553496234397  1.0000
  C   C67       1.0  0.0349897303637547  0.5011693028243512  0.9599617057333348  1.0000
  C   C68       1.0  0.12073247480368819  0.5035661305616514  0.9614108609818429  1.0000
  C   C69       1.0  0.1650335631388558  0.5571695817145326  0.939268734197988  1.0000
  C   C70       1.0  0.24937273796220447  0.555622510674695  0.9430240980785385  1.0000
  C   C71       1.0  0.2474946553479995  0.45484819350507183  0.9865574912812461  1.0000
  C   C72       1.0  0.16353945418384802  0.45228283579882594  0.9854734038565951  1.0000
  C   C73       1.0  0.4966133036791975  0.7346184731807384  0.9597271604138626  1.0000
  C   C74       1.0  0.4240855728697995  0.7755929557558545  0.9578617830978899  1.0000
  C   C75       1.0  0.42632187182651654  0.8528837965692802  0.9572908975415119  1.0000
  C   C76       1.0  0.5010879368768855  0.8915016384526026  0.9583348469325443  1.0000
  C   C77       1.0  0.5747941748097601  0.8504732409892384  0.9599815729002401  1.0000
  C   C78       1.0  0.5706049997958687  0.7726916189202696  0.960840109894562  1.0000
  C   C79       1.0  0.5006111988183548  0.9704827864627603  0.9582990738826069  1.0000
  C   C80       1.0  0.49809173543529545  0.03866456604031748  0.9590028062628022  1.0000
  C   C81       1.0  0.4954443645728973  0.1175818987777006  0.9604250064442611  1.0000
  C   C82       1.0  0.4203793135679632  0.1562802026373475  0.9636477159247078  1.0000
  C   C83       1.0  0.4217370025956129  0.2341283586000813  0.9653697133608289  1.0000
  C   C84       1.0  0.4942169272131949  0.2744812794125906  0.9635490475345989  1.0000
  C   C85       1.0  0.5680531926637471  0.23581726610208878  0.9602039825368323  1.0000
  C   C86       1.0  0.5686524613368747  0.15850646173269922  0.9588755372031414  1.0000
  C   C87       1.0  0.12980752046505728  0.40230180067904087  0.4447672725087912  1.0000
  C   C88       1.0  0.8751563018167942  0.6107564110614305  0.5505290128020519  1.0000
  C   C89       1.0  0.3431760960459727  0.8855553017187034  0.5009170964845994  1.0000
  C   C90       1.0  0.658542881690643  0.11054851009889433  0.497158348673878  1.0000
  C   C91       1.0  0.6610397069757922  0.4976763070598266  0.1724858965795448  1.0000
  C   C92       1.0  0.33821057841880997  0.49596942533013766  0.2910471722908596  1.0000
  C   C93       1.0  0.8712231820550899  0.40564008157064524  0.017787530740704896  1.0000
  C   C94       1.0  0.12490106286512061  0.6130603914577363  0.9123746033509406  1.0000
  C   C95       1.0  0.6558709502865625  0.8888187380681031  0.9607706336180185  1.0000
  C   C96       1.0  0.3409491981988849  0.11516052417192671  0.964707709992858  1.0000
  C   C97       1.0  0.664333899122056  0.4869944857352949  0.6280276752178366  1.0000
  C   C98       1.0  0.3359516177242838  0.48809166416931754  0.8350112282266124  1.0000
  N   N1        1.0  0.294130603139422  0.4986646629805734  0.5038523185403037  1.0000
  N   N2        1.0  0.7109214209928965  0.5022734470870844  0.497697363256222  1.0000
  N   N3        1.0  0.7062129947256324  0.5015808518420002  0.9591672486489528  1.0000
  N   N4        1.0  0.2894696249814642  0.5058987392835306  0.9656003645188136  1.0000
  O   O1        1.0  0.5737784447332218  0.6160187551131955  0.5059993855592566  1.0000
  O   O2        1.0  0.4373824968334077  0.6145409441481107  0.4968641885831814  1.0000
  O   O3        1.0  0.43592287991380363  0.5115930635471884  0.5629239150114812  1.0000
  O   O4        1.0  0.5709743046301413  0.489678064624897  0.5595939731994976  1.0000
  O   O5        1.0  0.44054856076422066  0.38828384394312115  0.5046803989662934  1.0000
  O   O6        1.0  0.5760140967784437  0.38623231569371796  0.4925317838860154  1.0000
  O   O7        1.0  0.5601777252778817  0.5110058816286127  0.4387807029386721  1.0000
  O   O8        1.0  0.4241187801211908  0.49230258362236873  0.439535504451257  1.0000
  O   O9        1.0  0.42666873869725913  0.6190978955859592  0.9564735433054707  1.0000
  O   O10       1.0  0.5629482164656636  0.617898201623028  0.9660071064849304  1.0000
  O   O11       1.0  0.5639671071933491  0.5131956095731667  0.9004358246433598  1.0000
  O   O12       1.0  0.42912836251041847  0.49079500750779903  0.9036547807476012  1.0000
  O   O13       1.0  0.5604274877975044  0.39114612037791835  0.9587561665103053  1.0000
  O   O14       1.0  0.4250979671353576  0.3900656804804328  0.9713019259765617  1.0000
  O   O15       1.0  0.4402531475012523  0.5166770463950385  0.024456894073587403  1.0000
  O   O16       1.0  0.5761861627564357  0.49673249259433316  0.023796008797404497  1.0000
