data_image0
_chemical_formula_structural       Co2H28C34N4O8
_chemical_formula_sum              "Co2 H28 C34 N4 O8"
_cell_length_a       6.83464761609932
_cell_length_b       9.420441564788447
_cell_length_c       11.107477780159261
_cell_angle_alpha    86.60994083688603
_cell_angle_beta     88.72695777692438
_cell_angle_gamma    90.05341189777633

_space_group_name_H-M_alt    "P 1"
_space_group_IT_number       1

loop_
  _space_group_symop_operation_xyz
  'x, y, z'

loop_
  _atom_site_type_symbol
  _atom_site_label
  _atom_site_symmetry_multiplicity
  _atom_site_fract_x
  _atom_site_fract_y
  _atom_site_fract_z
  _atom_site_occupancy
  Co  Co1       1.0  0.22014472641181732  0.27734145034794727  0.7378278106365104  1.0000
  Co  Co2       1.0  0.7798577771496937  0.7226536363960252  0.262173317366269  1.0000
  H   H1        1.0  0.2659973689322541  0.846701345375074  0.4581163782991667  1.0000
  H   H2        1.0  0.7339963411935175  0.1532968987411252  0.5418846783197752  1.0000
  H   H3        1.0  0.2952658781896035  0.6665653117776247  0.6301552371774548  1.0000
  H   H4        1.0  0.7047511954591954  0.33343833111050003  0.3698480380467259  1.0000
  H   H5        1.0  0.3155772314276675  0.6167648129594101  0.8565583930697899  1.0000
  H   H6        1.0  0.6844282672495723  0.3832388095532906  0.14343328762358  1.0000
  H   H7        1.0  0.3029584681431601  0.7081901417103609  0.06266656157808372  1.0000
  H   H8        1.0  0.6970337718029427  0.2918123522175052  0.9373334013824819  1.0000
  H   H9        1.0  0.2521514290174522  0.9158021287746511  0.19454701189316378  1.0000
  H   H10       1.0  0.7478351159263638  0.08418866595832242  0.8054436712253975  1.0000
  H   H11       1.0  0.21343777403251352  0.18009831985630606  0.20509936529040124  1.0000
  H   H12       1.0  0.7865515235701183  0.8198977757826783  0.7949045383987966  1.0000
  H   H13       1.0  0.10042413731500943  0.20315416667030917  0.4881993687644837  1.0000
  H   H14       1.0  0.899578297536934  0.7968504850273987  0.5118039946415038  1.0000
  H   H15       1.0  0.1983564147572281  0.0808701871089497  0.38578770278084556  1.0000
  H   H16       1.0  0.801640197636786  0.9191291277082031  0.6142150750563857  1.0000
  H   H17       1.0  0.3549039179877696  0.20132127406019862  0.45739244884354957  1.0000
  H   H18       1.0  0.6450985208538498  0.7986695448848381  0.5426160903185462  1.0000
  H   H19       1.0  0.34119281050340794  0.4259899711653786  0.03733594743485471  1.0000
  H   H20       1.0  0.6588052678379341  0.5740061572094747  0.9626678722720287  1.0000
  H   H21       1.0  0.09993427673849453  0.40154447161410906  0.09682232804060222  1.0000
  H   H22       1.0  0.9000579477770432  0.5984516349368294  0.9031815476544978  1.0000
  H   H23       1.0  0.1420144441886606  0.42830810860395013  0.9372458652104143  1.0000
  H   H24       1.0  0.8579851655692963  0.5716837807003402  0.06275364515150979  1.0000
  H   H25       1.0  0.7297976602949063  0.5111207611248287  0.5546489426407321  1.0000
  H   H26       1.0  0.27021819211169174  0.48887334178672875  0.4453368026678461  1.0000
  H   H27       1.0  0.7240058134813909  0.592357621051683  0.6950593159040894  1.0000
  H   H28       1.0  0.2760010169643082  0.4076534326007036  0.3049409932767659  1.0000
  C   C1        1.0  0.25007494407208253  0.0255609683140534  0.5714424067878171  1.0000
  C   C2        1.0  0.7499171870892171  0.9744457629796135  0.4285654535228787  1.0000
  C   C3        1.0  0.2681557128949735  0.8796743266103846  0.5504740786601517  1.0000
  C   C4        1.0  0.731846839955864  0.12031864055560254  0.4495235509178386  1.0000
  C   C5        1.0  0.28464552483441713  0.77950380118439  0.6456205440180228  1.0000
  C   C6        1.0  0.7153643004843533  0.22050301885342102  0.3543754418208138  1.0000
  C   C7        1.0  0.281608535591694  0.8242665182242845  0.7646635582801623  1.0000
  C   C8        1.0  0.7183953559934722  0.1757423941970515  0.23533868347334425  1.0000
  C   C9        1.0  0.29601135192731226  0.7296503512034961  0.869614533435609  1.0000
  C   C10       1.0  0.7039940031143104  0.2703585666738136  0.1303876943208451  1.0000
  C   C11       1.0  0.2875222430950971  0.7799101218347104  0.9827003531034393  1.0000
  C   C12       1.0  0.7124759527383873  0.2200924118189178  0.0172905488633575  1.0000
  C   C13       1.0  0.2632509248895474  0.9284057036011576  0.9990185631395935  1.0000
  C   C14       1.0  0.7367397970863722  0.0715925188619835  0.0009879244767887002  1.0000
  C   C15       1.0  0.24880288255756264  0.986714832591929  0.1132293852176929  1.0000
  C   C16       1.0  0.7511820562862539  0.013288701005777203  0.8867687949383056  1.0000
  C   C17       1.0  0.22657068491169954  0.13167310048967815  0.11869921759337394  1.0000
  C   C18       1.0  0.7734259767716339  0.8683240947494826  0.8813000618190687  1.0000
  C   C19       1.0  0.21846454380903427  0.2218012674066047  0.012574536838670295  1.0000
  C   C20       1.0  0.7815335848136868  0.778200190346361  0.9874227204207389  1.0000
  C   C21       1.0  0.2528701470155141  0.024591059331371005  0.8965204009239616  1.0000
  C   C22       1.0  0.7471073777088721  0.9754188146713503  0.10348384198887571  1.0000
  C   C23       1.0  0.2634885172581535  0.9723815061493751  0.7784694304869433  1.0000
  C   C24       1.0  0.7365037261708878  0.027625244836322303  0.22152852431764106  1.0000
  C   C25       1.0  0.2245651311928398  0.13360149109584546  0.4691590791600646  1.0000
  C   C26       1.0  0.7754299990738788  0.8663999432138784  0.5308445095973369  1.0000
  C   C27       1.0  0.1978566547009137  0.37832067587424234  0.020977552651345398  1.0000
  C   C28       1.0  0.8021370121093484  0.6216807529795005  0.9790260501031016  1.0000
  C   C29       1.0  0.5390772343608745  0.40853965481806404  0.6897946651313236  1.0000
  C   C30       1.0  0.4609106311531833  0.5914511203082995  0.31020861099796804  1.0000
  C   C31       1.0  0.7244542815700897  0.48979880185466845  0.6531571657847621  1.0000
  C   C32       1.0  0.2755511770319218  0.5101994930700968  0.3468401768555368  1.0000
  C   C33       1.0  0.9077528584242743  0.4093229945851036  0.6906143461648712  1.0000
  C   C34       1.0  0.09226868376019583  0.590676421934603  0.3093836912196864  1.0000
  N   N1        1.0  0.2514948720641002  0.0704317264045571  0.6838948294731253  1.0000
  N   N2        1.0  0.7485017684575156  0.9295707856814277  0.3161041909957305  1.0000
  N   N3        1.0  0.23074000596350436  0.1678536601327068  0.9035473156315775  1.0000
  N   N4        1.0  0.7692493222576005  0.8321424408768296  0.09645388655595612  1.0000
  O   O1        1.0  0.48075923398096887  0.401604856992229  0.7994030911005156  1.0000
  O   O2        1.0  0.5192694731427921  0.5983892395274067  0.20061044375182047  1.0000
  O   O3        1.0  0.44145692081536236  0.3468053762506075  0.6107948743148556  1.0000
  O   O4        1.0  0.5585458192292522  0.6531918801965304  0.3891845380971476  1.0000
  O   O5        1.0  0.9124214748133854  0.27345842947006105  0.6892481541980261  1.0000
  O   O6        1.0  0.08757520529813691  0.7265238714372516  0.3107554522586895  1.0000
  O   O7        1.0  0.058209462480590425  0.47799186976374847  0.7208290489101689  1.0000
  O   O8        1.0  0.9418002261684393  0.5220287597543276  0.279173467679783  1.0000
