data_image0
_chemical_formula_structural       Hg2H32C40Br4N8
_chemical_formula_sum              "Hg2 H32 C40 Br4 N8"
_cell_length_a       7.99357776521952
_cell_length_b       12.284016187483513
_cell_length_c       12.478305119083766
_cell_angle_alpha    86.07628898208381
_cell_angle_beta     71.16340207228662
_cell_angle_gamma    77.9928533116546

_space_group_name_H-M_alt    "P 1"
_space_group_IT_number       1

loop_
  _space_group_symop_operation_xyz
  'x, y, z'

loop_
  _atom_site_type_symbol
  _atom_site_label
  _atom_site_symmetry_multiplicity
  _atom_site_fract_x
  _atom_site_fract_y
  _atom_site_fract_z
  _atom_site_occupancy
  Hg  Hg1       1.0  0.8291301295838237  0.7498928664508425  0.34191777696857883  1.0000
  Hg  Hg2       1.0  0.17086707549304242  0.25010607054623074  0.6580911267564389  1.0000
  H   H1        1.0  0.7707966827727473  0.6289337555428672  0.593535552329982  1.0000
  H   H2        1.0  0.6332724241261831  0.8710740220702179  0.5933177627551416  1.0000
  H   H3        1.0  0.22919793516151538  0.37106349649953074  0.40646053488530504  1.0000
  H   H4        1.0  0.366734777921792  0.1289274476921207  0.406694841518764  1.0000
  H   H5        1.0  0.5633687243456436  0.5341200741815229  0.7471499530837634  1.0000
  H   H6        1.0  0.685737416953401  0.9665792180038224  0.7462642557765378  1.0000
  H   H7        1.0  0.4366367582160748  0.46587304398345714  0.2528444985506368  1.0000
  H   H8        1.0  0.31428513289007753  0.0334197944637111  0.25374295156230897  1.0000
  H   H9        1.0  0.2576675011005563  0.5264090532531469  0.7312076914647819  1.0000
  H   H10       1.0  0.007468846361923876  0.9737075158328211  0.7308592201149368  1.0000
  H   H11       1.0  0.7423374587292955  0.4735832309205464  0.26878756546465615  1.0000
  H   H12       1.0  0.9925553248827085  0.026289828766096004  0.2691402335000036  1.0000
  H   H13       1.0  0.1772732215771739  0.6140196043813759  0.565088972140167  1.0000
  H   H14       1.0  0.25546569232086097  0.8856389963946895  0.5652841421280074  1.0000
  H   H15       1.0  0.8227245924073472  0.3859743254467602  0.4349076441778835  1.0000
  H   H16       1.0  0.7445439391255421  0.1143624650183668  0.4347100114191918  1.0000
  H   H17       1.0  0.7645002859327334  0.6601419776684239  0.0916823973563012  1.0000
  H   H18       1.0  0.14479574323073754  0.8400726165281894  0.09168895624396363  1.0000
  H   H19       1.0  0.23549556591375864  0.33986444301331176  0.9083147372408292  1.0000
  H   H20       1.0  0.8551983828480939  0.1599204690296645  0.9083076751329957  1.0000
  H   H21       1.0  0.7217512766840881  0.727218490206461  0.8033819341599442  1.0000
  H   H22       1.0  0.4769751628567253  0.7715543445888001  0.8035436276802131  1.0000
  H   H23       1.0  0.27824014519990925  0.2727820840501849  0.19661362395257956  1.0000
  H   H24       1.0  0.5230159769025775  0.22844789590307363  0.19645299743039868  1.0000
  H   H25       1.0  0.8009542791467509  0.6060718210736553  0.8720227549883504  1.0000
  H   H26       1.0  0.3293962977745083  0.8932441607113333  0.870845530544287  1.0000
  H   H27       1.0  0.19904450686061634  0.3939304451043029  0.12797678214401031  1.0000
  H   H28       1.0  0.6706045568311935  0.10676227878104072  0.12915586211329366  1.0000
  H   H29       1.0  0.8674910475479507  0.7322912146963106  0.8827092315622664  1.0000
  H   H30       1.0  0.2512578363281294  0.767076324350654  0.8837695172594808  1.0000
  H   H31       1.0  0.1325005734256662  0.2677160262485998  0.11728791695443871  1.0000
  H   H32       1.0  0.7487279557474764  0.23293339796455825  0.11622738062540354  1.0000
  C   C1        1.0  0.39132927815748536  0.7183006293586728  0.3889591718111945  1.0000
  C   C2        1.0  0.2188640299346788  0.7818802991241327  0.38900202866049244  1.0000
  C   C3        1.0  0.6086681919494552  0.28170163169118473  0.6110390337716965  1.0000
  C   C4        1.0  0.7811310788081159  0.2181202888150438  0.6109964559630185  1.0000
  C   C5        1.0  0.42920022354857706  0.6717391696606326  0.49361680275865194  1.0000
  C   C6        1.0  0.07556792483916297  0.8281860914666267  0.49371837962044657  1.0000
  C   C7        1.0  0.5707970261865325  0.3282580926379595  0.5063819475555749  1.0000
  C   C8        1.0  0.9244369402675827  0.17181452901130714  0.5062835438489018  1.0000
  C   C9        1.0  0.6360532330494596  0.62646136512366  0.5916903965130019  1.0000
  C   C10       1.0  0.7698535467672085  0.8736629645557272  0.5914563867784325  1.0000
  C   C11       1.0  0.36394269014411396  0.37353672601533117  0.4083080898195065  1.0000
  C   C12       1.0  0.2301581789194671  0.1263351847397161  0.40855406901005864  1.0000
  C   C13       1.0  0.5195539036247961  0.573781044923372  0.6773545846818083  1.0000
  C   C14       1.0  0.7999556831947172  0.9266516636572676  0.6767795482549843  1.0000
  C   C15       1.0  0.4804460311167205  0.4262120577889308  0.32264149089257904  1.0000
  C   C16       1.0  0.20006182132510017  0.0733506658736331  0.3232276712944326  1.0000
  C   C17       1.0  0.3510978237391667  0.5701301179267447  0.6688156045195373  1.0000
  C   C18       1.0  0.9770192423412922  0.9299845225465616  0.6685531521408877  1.0000
  C   C19       1.0  0.648904973816144  0.42986715982453216  0.33118152185470257  1.0000
  C   C20       1.0  0.023000926949606443  0.0700161459227999  0.33145058623431123  1.0000
  C   C21       1.0  0.30529385027624995  0.6194607359314902  0.5757480204039498  1.0000
  C   C22       1.0  0.11666707550319437  0.8804048003858539  0.5757987315032906  1.0000
  C   C23       1.0  0.6947070980056579  0.38053653666888454  0.4242496472836167  1.0000
  C   C24       1.0  0.8833488746028383  0.11959668496593422  0.4242010116538354  1.0000
  C   C25       1.0  0.49180217333914555  0.7233336575719491  0.19380070447778053  1.0000
  C   C26       1.0  0.3148063520888583  0.7772790012438265  0.1937958719818766  1.0000
  C   C27       1.0  0.5081919112221416  0.2766635944476477  0.80619725560031  1.0000
  C   C28       1.0  0.6851861653237421  0.22271657938965458  0.8062015624114454  1.0000
  C   C29       1.0  0.6298113260438926  0.6997073990822356  0.08968359634494769  1.0000
  C   C30       1.0  0.2815536391749448  0.8007724909430465  0.08968984245322532  1.0000
  C   C31       1.0  0.3701832397317089  0.3002948533903975  0.9103148871392224  1.0000
  C   C32       1.0  0.7184431101574235  0.19922310001501126  0.91030463645064  1.0000
  C   C33       1.0  0.5968903056661786  0.7251701774016015  0.9873369532300559  1.0000
  C   C34       1.0  0.4173859314331945  0.7753015135192316  0.9873305354387514  1.0000
  C   C35       1.0  0.40310217022886974  0.27482956969362243  0.012661809864404506  1.0000
  C   C36       1.0  0.5826047260648864  0.2246948959318473  0.012668507835663013  1.0000
  C   C37       1.0  0.7531203210767216  0.6968199370052801  0.8804808469940754  1.0000
  C   C38       1.0  0.3683141449455717  0.8025877335163687  0.8805118489412962  1.0000
  C   C39       1.0  0.24687344088921753  0.30318397829904586  0.11951656721333852  1.0000
  C   C40       1.0  0.6316804208300368  0.1974145189562648  0.11948663454287362  1.0000
  Br  Br1       1.0  0.6767480270624873  0.9388854972352121  0.2844252249102794  1.0000
  Br  Br2       1.0  0.04071572025239325  0.5612654535322649  0.2855349182244496  1.0000
  Br  Br3       1.0  0.32322736048988776  0.0611258875013974  0.7156043152282195  1.0000
  Br  Br4       1.0  0.9592930765078977  0.43874100320573456  0.7144584271793735  1.0000
  N   N1        1.0  0.524315626616584  0.6929173189361463  0.29288031160094624  1.0000
  N   N2        1.0  0.18265337235659013  0.807544364336259  0.2929356366763472  1.0000
  N   N3        1.0  0.47568136227604907  0.3070799416606745  0.7071173705758583  1.0000
  N   N4        1.0  0.8173430735688499  0.1924545607940189  0.7070620443611162  1.0000
  N   N5        1.0  0.5918342354280525  0.6749785622319919  0.5023745408530261  1.0000
  N   N6        1.0  0.9041408326785642  0.8248780891184992  0.5024344804553921  1.0000
  N   N7        1.0  0.4081587717461729  0.32501952371051596  0.497628232518416  1.0000
  N   N8        1.0  0.09586241207393431  0.17512502981580272  0.497572255167974  1.0000
