data_image0
_chemical_formula_structural       Cu4H48C80N8O16
_chemical_formula_sum              "Cu4 H48 C80 N8 O16"
_cell_length_a       12.889641352862379
_cell_length_b       13.224367129545815
_cell_length_c       17.085181440591196
_cell_angle_alpha    89.99986783031326
_cell_angle_beta     89.99743410550346
_cell_angle_gamma    116.52603359391782

_space_group_name_H-M_alt    "P 1"
_space_group_IT_number       1

loop_
  _space_group_symop_operation_xyz
  'x, y, z'

loop_
  _atom_site_type_symbol
  _atom_site_label
  _atom_site_symmetry_multiplicity
  _atom_site_fract_x
  _atom_site_fract_y
  _atom_site_fract_z
  _atom_site_occupancy
  Cu  Cu1       1.0  0.02419273764446932  0.1019502281322247  0.0281730375846436  1.0000
  Cu  Cu2       1.0  0.9757851465998257  0.3979909394136527  0.5281841357910295  1.0000
  Cu  Cu3       1.0  0.9757964607064906  0.8980006866852648  0.9718301366788396  1.0000
  Cu  Cu4       1.0  0.02418328868115795  0.6019362034558853  0.47183542731594497  1.0000
  H   H1        1.0  0.11515942378017034  0.5663377461647414  0.23257863133905943  1.0000
  H   H2        1.0  0.8848698011566184  0.9336896641243297  0.7326032802121959  1.0000
  H   H3        1.0  0.8848511226240845  0.4336848858210162  0.7674122511462471  1.0000
  H   H4        1.0  0.11516233703069638  0.0663205833096754  0.2674203788605781  1.0000
  H   H5        1.0  0.17560636927873938  0.6062026182302205  0.0899358333394602  1.0000
  H   H6        1.0  0.8244154900057483  0.8938171113517157  0.5899573315691315  1.0000
  H   H7        1.0  0.8243977448249212  0.39380396492616404  0.9100649994120361  1.0000
  H   H8        1.0  0.17560195902353123  0.10618288632260688  0.4100552070132012  1.0000
  H   H9        1.0  0.18861592038646088  0.528255207388888  0.9600973517242936  1.0000
  H   H10       1.0  0.8114223058674881  0.9717550509613629  0.46012274758249566  1.0000
  H   H11       1.0  0.8113944511844766  0.4717497608444178  0.03990113971259031  1.0000
  H   H12       1.0  0.18858993172749194  0.028224705891943796  0.5398944735262746  1.0000
  H   H13       1.0  0.12389573736232513  0.3197558218359688  0.9462351562914862  1.0000
  H   H14       1.0  0.8761330063366517  0.1802452077917422  0.446244831391617  1.0000
  H   H15       1.0  0.8761200707319362  0.6802508866576319  0.0537697733797202  1.0000
  H   H16       1.0  0.12386530120908658  0.8197259895135787  0.5537612692123731  1.0000
  H   H17       1.0  0.9858726287882932  0.15484660234866246  0.1843084061652576  1.0000
  H   H18       1.0  0.014126752003903741  0.345170047472621  0.6842994748154752  1.0000
  H   H19       1.0  0.014133721329677917  0.8451684149974595  0.8157006207763973  1.0000
  H   H20       1.0  0.9858521786516831  0.6548236501304813  0.315698431861037  1.0000
  H   H21       1.0  0.970861471600003  0.22442193826800141  0.3173197701360665  1.0000
  H   H22       1.0  0.029153779626994922  0.2756045040131454  0.8173174774366532  1.0000
  H   H23       1.0  0.029146397090137693  0.775596459669913  0.6826798919363384  1.0000
  H   H24       1.0  0.9708497498466144  0.7244180525156096  0.18268511121817715  1.0000
  H   H25       1.0  0.6836082700727105  0.0519808418853387  0.09965545484243422  1.0000
  H   H26       1.0  0.31637779455314075  0.44802602505784966  0.5996472298776752  1.0000
  H   H27       1.0  0.3163790518479814  0.9480280843761261  0.9003406957709288  1.0000
  H   H28       1.0  0.6836087275228451  0.5519845748201531  0.40034189711732193  1.0000
  H   H29       1.0  0.5153255848512542  0.08861405507891357  0.14318195243323834  1.0000
  H   H30       1.0  0.4846741705410977  0.4114048850159761  0.6431920930164949  1.0000
  H   H31       1.0  0.48467355457522415  0.9113849056559361  0.8568048331483881  1.0000
  H   H32       1.0  0.515333021043908  0.5886050953063204  0.3568075690748387  1.0000
  H   H33       1.0  0.29928806644646494  0.019169035459889  0.1487378504758112  1.0000
  H   H34       1.0  0.7007025699181997  0.48085970416288154  0.6487376282955496  1.0000
  H   H35       1.0  0.7007087339292684  0.9808299000875493  0.8512547881707777  1.0000
  H   H36       1.0  0.29929594396504206  0.5191585936883882  0.3512485719769814  1.0000
  H   H37       1.0  0.1704140919465686  0.8280338498066512  0.09535913771314601  1.0000
  H   H38       1.0  0.8295754559395975  0.6719802972425057  0.5953340301178899  1.0000
  H   H39       1.0  0.829584349319859  0.17195837490046267  0.9046422804496431  1.0000
  H   H40       1.0  0.17042122196248505  0.3280287296633801  0.40464456126098725  1.0000
  H   H41       1.0  0.3991307804266597  0.6685510184129271  0.0088962734818168  1.0000
  H   H42       1.0  0.6008684945430575  0.8314612257992307  0.5088727721194247  1.0000
  H   H43       1.0  0.6008824731141046  0.3314413650006216  0.9911133386656064  1.0000
  H   H44       1.0  0.399129403693486  0.1685436088624286  0.49111459878053415  1.0000
  H   H45       1.0  0.6130574725421667  0.7321250603020174  0.995808659367249  1.0000
  H   H46       1.0  0.38693968626313346  0.7678969597176958  0.49579201124557676  1.0000
  H   H47       1.0  0.38695667396104483  0.26789004078816697  0.004192758509425701  1.0000
  H   H48       1.0  0.6130573916056221  0.2321112304009674  0.5041889213374091  1.0000
  C   C1        1.0  0.04235566164255296  0.40000921155038327  0.2826947847798779  1.0000
  C   C2        1.0  0.9576537377519188  0.10000997441053981  0.7827064407641517  1.0000
  C   C3        1.0  0.9576458161255418  0.5999897740351159  0.7173048774179167  1.0000
  C   C4        1.0  0.04235600761096959  0.9000143306234635  0.21730902443968605  1.0000
  C   C5        1.0  0.08726397106223523  0.4766030691387683  0.22194130952870245  1.0000
  C   C6        1.0  0.9127496492439918  0.0234174565025072  0.7219516950380438  1.0000
  C   C7        1.0  0.9127377220313307  0.5234102162551723  0.7780642056781063  1.0000
  C   C8        1.0  0.08727003597688578  0.9765909754457381  0.27806435531416446  1.0000
  C   C9        1.0  0.1446530980041204  0.5151617668257914  0.08236906154078133  1.0000
  C   C10       1.0  0.8553604405219775  0.9848522522502351  0.5823899358735503  1.0000
  C   C11       1.0  0.8553498980480541  0.48484059921468514  0.9176288447207173  1.0000
  C   C12       1.0  0.14465626987725946  0.015144373350878499  0.41762318802681625  1.0000
  C   C13       1.0  0.15348138928323615  0.4726567405752106  0.010445803752574501  1.0000
  C   C14       1.0  0.8465414751876139  0.027351133047268696  0.5104660326026931  1.0000
  C   C15       1.0  0.8465274230682667  0.5273482109366441  0.9895526877107202  1.0000
  C   C16       1.0  0.15347068058098765  0.9726353512941444  0.4895465060812257  1.0000
  C   C17       1.0  0.11672085658746313  0.35545292652442845  0.0023670137383860006  1.0000
  C   C18       1.0  0.8832909873092305  0.14455006680902474  0.50237876679887  1.0000
  C   C19       1.0  0.8832891148838372  0.644552878432961  0.9976326483095977  1.0000
  C   C20       1.0  0.11670483787878547  0.8554328783604461  0.497627919139248  1.0000
  C   C21       1.0  0.013750820235415514  0.24429745772576436  0.19529686198705326  1.0000
  C   C22       1.0  0.9862528058169033  0.25571801017809287  0.6952979086395032  1.0000
  C   C23       1.0  0.9862602489637312  0.7557142462827074  0.8047010441295088  1.0000
  C   C24       1.0  0.013739316590289347  0.7442808750576546  0.3047029243217949  1.0000
  C   C25       1.0  0.005780197399929065  0.2831531526970751  0.268645905470656  1.0000
  C   C26       1.0  0.9942247678203131  0.21686984378548146  0.768650263033024  1.0000
  C   C27       1.0  0.9942157002941061  0.7168558655639357  0.7313484890898749  1.0000
  C   C28       1.0  0.0057764636930245465  0.783149323895998  0.23135583747892247  1.0000
  C   C29       1.0  0.09814528780871265  0.43951200853994277  0.14600986043085845  1.0000
  C   C30       1.0  0.9018508371483592  0.06049922376086409  0.6460281577156124  1.0000
  C   C31       1.0  0.9018541486588135  0.5604945244626194  0.8539903870973191  1.0000
  C   C32       1.0  0.0981526608875499  0.9394938960059631  0.35398496641148824  1.0000
  C   C33       1.0  0.06113604585716813  0.3212686285371262  0.13235841011545804  1.0000
  C   C34       1.0  0.9388580151638094  0.17874137952286157  0.6323693917971553  1.0000
  C   C35       1.0  0.938875402763415  0.6787439205140514  0.8676430078091429  1.0000
  C   C36       1.0  0.061132988859498055  0.8212532884391095  0.3676372942121661  1.0000
  C   C37       1.0  0.030965717892975465  0.43931423243756745  0.3630382510291952  1.0000
  C   C38       1.0  0.9690332690329414  0.060673422888086685  0.8630367147342639  1.0000
  C   C39       1.0  0.9690250912614644  0.560664453843934  0.6369637525773229  1.0000
  C   C40       1.0  0.03097074232237444  0.9393415694074322  0.13697055633939934  1.0000
  C   C41       1.0  0.65997734249126  0.8959672610400418  0.04723424046191841  1.0000
  C   C42       1.0  0.34001940865049823  0.6040444494460218  0.5472193873734954  1.0000
  C   C43       1.0  0.34002620735030575  0.10405361357458531  0.9527718600092714  1.0000
  C   C44       1.0  0.6599703752821142  0.39595441087593736  0.45277208078685055  1.0000
  C   C45       1.0  0.6210178491753454  0.9677937975752541  0.08107527280870393  1.0000
  C   C46       1.0  0.3789770776413733  0.5322200678228128  0.5810709344058012  1.0000
  C   C47       1.0  0.37896945239954505  0.03221681061085489  0.9189167806857697  1.0000
  C   C48       1.0  0.6210242775422685  0.467789009068511  0.4189176070369598  1.0000
  C   C49       1.0  0.45566797809883747  0.004782786788140899  0.1219108012297809  1.0000
  C   C50       1.0  0.5443229148498149  0.49523260089880955  0.6219123354017385  1.0000
  C   C51       1.0  0.5443237857423995  0.9952135717223101  0.8780771550840643  1.0000
  C   C52       1.0  0.45567264451326395  0.5047722086596309  0.37807620614290033  1.0000
  C   C53       1.0  0.3374516926821016  0.9669731696123942  0.12487943237604782  1.0000
  C   C54       1.0  0.6625509857097  0.5330585830387446  0.6248760286928461  1.0000
  C   C55       1.0  0.6625465850645185  0.0330325101340776  0.8751091091218087  1.0000
  C   C56       1.0  0.3374542059976165  0.46695558119861863  0.37511309798299663  1.0000
  C   C57       1.0  0.2643309652841027  0.8582089929861212  0.09499580436630592  1.0000
  C   C58       1.0  0.7356631642683171  0.6418153081620943  0.5949838795883551  1.0000
  C   C59       1.0  0.7356681736991675  0.1417899675382515  0.905002687266027  1.0000
  C   C60       1.0  0.26433429282243276  0.3581937269045595  0.4050058325254895  1.0000
  C   C61       1.0  0.4620021925074767  0.7518886070086096  0.028749767988188107  1.0000
  C   C62       1.0  0.5379901422263204  0.7481211828220397  0.5287291282005597  1.0000
  C   C63       1.0  0.5380055220718631  0.24811044543111646  0.9712516500115883  1.0000
  C   C64       1.0  0.4619957646683233  0.2518759540873674  0.47124887806864285  1.0000
  C   C65       1.0  0.5793534768912636  0.786611190618984  0.021832986784147607  1.0000
  C   C66       1.0  0.42064319766943475  0.7134056171660959  0.5218116986143571  1.0000
  C   C67       1.0  0.42065879216357877  0.2133980030067733  0.9781731135498218  1.0000
  C   C68       1.0  0.5793445451620515  0.2866007906676487  0.4781750871535664  1.0000
  C   C69       1.0  0.5008215973498196  0.934042355090881  0.08923996630834101  1.0000
  C   C70       1.0  0.4991708132439073  0.5659669910722087  0.5892408640916358  1.0000
  C   C71       1.0  0.4991663298791095  0.06594891603143078  0.9107497459825569  1.0000
  C   C72       1.0  0.5008231454103793  0.43404116523520736  0.4107605541328995  1.0000
  C   C73       1.0  0.4194467550726273  0.8246707011626596  0.0615929195295095  1.0000
  C   C74       1.0  0.580549288436849  0.6753413381184287  0.5615756506707896  1.0000
  C   C75       1.0  0.5805493475640944  0.17532149855698978  0.9384032309500795  1.0000
  C   C76       1.0  0.4194428140234407  0.32465922923139345  0.4384105497259868  1.0000
  C   C77       1.0  0.7868142004410998  0.934710922075851  0.03310402670259551  1.0000
  C   C78       1.0  0.21318977572010314  0.5653080909177461  0.5330847563000491  1.0000
  C   C79       1.0  0.21319816068995578  0.0653226623484571  0.9669143649614115  1.0000
  C   C80       1.0  0.7867982128786225  0.43467813458848764  0.4669084678094962  1.0000
  N   N1        1.0  0.0715801105042573  0.2814974782553107  0.06022909606156901  1.0000
  N   N2        1.0  0.9284304295291579  0.21850683151983932  0.5602362633328823  1.0000
  N   N3        1.0  0.9284340769564637  0.7185142591118705  0.9397734924224679  1.0000
  N   N4        1.0  0.07156535476782731  0.7814794774042114  0.4397674960902621  1.0000
  N   N5        1.0  0.3023637333568133  0.7887088498561213  0.0648281443490504  1.0000
  N   N6        1.0  0.6976304653254746  0.7113064202408026  0.5648009952578122  1.0000
  N   N7        1.0  0.6976311895040723  0.21128417819531362  0.9351709326624374  1.0000
  N   N8        1.0  0.302363237799284  0.2886908003389976  0.435173499064149  1.0000
  O   O1        1.0  0.04847199240332865  0.5415270206227872  0.3698022054392425  1.0000
  O   O2        1.0  0.9515679847036438  0.9584561538124204  0.8697824109002144  1.0000
  O   O3        1.0  0.95151604669487  0.4584230406860357  0.6302033100547605  1.0000
  O   O4        1.0  0.048503628693715904  0.04157806694258429  0.130185058439821  1.0000
  O   O5        1.0  0.004600966615825563  0.3663162909587001  0.41762290581382194  1.0000
  O   O6        1.0  0.9953526999063983  0.1336260665820816  0.9176414192133677  1.0000
  O   O7        1.0  0.9953851130303449  0.6336345902896027  0.5823872921328999  1.0000
  O   O8        1.0  0.004568968243724349  0.8663316925517464  0.0824068244822129  1.0000
  O   O9        1.0  0.8549236855212499  0.03646751551740831  0.0514599288646878  1.0000
  O   O10       1.0  0.14508022671609677  0.46352778081455176  0.5514217719019784  1.0000
  O   O11       1.0  0.14511786826658132  0.963537786113548  0.9485959216925224  1.0000
  O   O12       1.0  0.8548853991897192  0.5364380200083759  0.4485720379067218  1.0000
  O   O13       1.0  0.8139992472923154  0.8620776658753824  0.0021065940761247006  1.0000
  O   O14       1.0  0.18598616911770458  0.6379304626470628  0.5021138686897191  1.0000
  O   O15       1.0  0.1859729760503299  0.13795464793010837  0.9978626328554512  1.0000
  O   O16       1.0  0.8140186935790087  0.36204669230808423  0.4978863787726908  1.0000
