data_image0
_chemical_formula_structural       Nd2Cu2H26C30N4O26
_chemical_formula_sum              "Nd2 Cu2 H26 C30 N4 O26"
_cell_length_a       8.095039345985874
_cell_length_b       11.044487899354682
_cell_length_c       11.854501271834893
_cell_angle_alpha    100.88059113203342
_cell_angle_beta     106.5961388491407
_cell_angle_gamma    102.81370629270455

_space_group_name_H-M_alt    "P 1"
_space_group_IT_number       1

loop_
  _space_group_symop_operation_xyz
  'x, y, z'

loop_
  _atom_site_type_symbol
  _atom_site_label
  _atom_site_symmetry_multiplicity
  _atom_site_fract_x
  _atom_site_fract_y
  _atom_site_fract_z
  _atom_site_occupancy
  Nd  Nd1       1.0  0.015254978882509842  0.3376425449533826  0.07982926432167402  1.0000
  Nd  Nd2       1.0  0.9847431468334947  0.6623557879855185  0.9201714512248959  1.0000
  Cu  Cu1       1.0  0.966946274631198  0.7706202223670291  0.4444197946698838  1.0000
  Cu  Cu2       1.0  0.03305611721257415  0.22937909259683664  0.555579398135457  1.0000
  H   H1        1.0  0.4011169735602565  0.6770761195879659  0.14731852111665236  1.0000
  H   H2        1.0  0.5988884986251789  0.3229145405141054  0.8526747576308299  1.0000
  H   H3        1.0  0.7539142410599381  0.08528950203763229  0.9584548919710656  1.0000
  H   H4        1.0  0.2460911746514327  0.9147175265501416  0.041546199696540526  1.0000
  H   H5        1.0  0.8242017072871163  0.11076402560908606  0.8514700797838018  1.0000
  H   H6        1.0  0.17580349644291007  0.8892391386309699  0.14852778707409445  1.0000
  H   H7        1.0  0.15430751058037376  0.12517238606469766  0.16923046860033256  1.0000
  H   H8        1.0  0.8456893171353529  0.8748259476717521  0.8307716779853678  1.0000
  H   H9        1.0  0.22029897653681021  0.13208374124270963  0.05649552650732663  1.0000
  H   H10       1.0  0.7797019493524148  0.8679184814016454  0.9435089291285197  1.0000
  H   H11       1.0  0.30259717017322163  0.3314561787908091  0.977304049171963  1.0000
  H   H12       1.0  0.6974001037130436  0.6685267102336709  0.022685455814681184  1.0000
  H   H13       1.0  0.16332874056715957  0.33770224960529305  0.8565570734674922  1.0000
  H   H14       1.0  0.8366678790715625  0.6622922063070292  0.1434401596295914  1.0000
  H   H15       1.0  0.5113101759376805  0.4590137656680967  0.30540539089722785  1.0000
  H   H16       1.0  0.4886841875133712  0.5409748645970254  0.6945853520164464  1.0000
  H   H17       1.0  0.44814592026489214  0.35300660614279167  0.4631357061508369  1.0000
  H   H18       1.0  0.5518502150327225  0.6469965030362202  0.5368645789258653  1.0000
  H   H19       1.0  0.6837085518912434  0.2572756911406629  0.5763858395602599  1.0000
  H   H20       1.0  0.31628444927677907  0.7427293353605579  0.42361752467047614  1.0000
  H   H21       1.0  0.63077828805401  0.829306509677373  0.4782194594991793  1.0000
  H   H22       1.0  0.369235050426397  0.17069772179174694  0.5217835679129978  1.0000
  H   H23       1.0  0.42032701739020695  0.9444870359368877  0.37300896815786905  1.0000
  H   H24       1.0  0.579687439423175  0.05552014204688051  0.6270015260432731  1.0000
  H   H25       1.0  0.4999262692491868  0.0527492560741933  0.22033336435342224  1.0000
  H   H26       1.0  0.5000732444734198  0.9472626117902367  0.7796791890167473  1.0000
  C   C1        1.0  0.29865539905435423  0.5857143558378013  0.13435123366141266  1.0000
  C   C2        1.0  0.7013421406011986  0.4142791350739826  0.865644331038766  1.0000
  C   C3        1.0  0.7988169575686969  0.4865693631679732  0.234216389536556  1.0000
  C   C4        1.0  0.2011774479572637  0.5134260450660051  0.7657822543176565  1.0000
  C   C5        1.0  0.785099130421564  0.056918285437930594  0.14467329528971365  1.0000
  C   C6        1.0  0.21490606354760197  0.9430849124931839  0.855328793265443  1.0000
  C   C7        1.0  0.06465677455074115  0.3586223623883811  0.38002872626542944  1.0000
  C   C8        1.0  0.9353395208924624  0.6413778668605375  0.6199711043776973  1.0000
  C   C9        1.0  0.8867184299962998  0.3631215190451798  0.39414465968981477  1.0000
  C   C10       1.0  0.11327635351310762  0.6368748533917882  0.6058542215221794  1.0000
  C   C11       1.0  0.7671367189467163  0.42082166818337197  0.3301312046103605  1.0000
  C   C12       1.0  0.23285730273927652  0.5791727960622597  0.6698697349044239  1.0000
  C   C13       1.0  0.6076869541057024  0.41664060986927604  0.3559142373643099  1.0000
  C   C14       1.0  0.39230595315165556  0.5833508943852762  0.6440775466826026  1.0000
  C   C15       1.0  0.5727325721702884  0.3572152877468895  0.44358939110211554  1.0000
  C   C16       1.0  0.4272585009099216  0.6427781262941038  0.5564031967202541  1.0000
  C   C17       1.0  0.6989879272619179  0.30335131952428906  0.5049956529660022  1.0000
  C   C18       1.0  0.3010077645512937  0.6966441283414114  0.49500662588580024  1.0000
  C   C19       1.0  0.7463603325638175  0.9997281650227381  0.24384502214908116  1.0000
  C   C20       1.0  0.2536443115632849  0.00027698906475140004  0.7561623495185757  1.0000
  C   C21       1.0  0.8574403551127222  0.9379990104756931  0.3094597622931092  1.0000
  C   C22       1.0  0.14255853437887106  0.06200122391634011  0.6905380506112239  1.0000
  C   C23       1.0  0.0369477609508096  0.9327564804659475  0.30045048989413203  1.0000
  C   C24       1.0  0.9630511285407836  0.06724375392608549  0.6995473230101936  1.0000
  C   C25       1.0  0.6581288278002334  0.8797112667069341  0.4119855062296693  1.0000
  C   C26       1.0  0.3418771318966876  0.12029382593910042  0.5880128353437898  1.0000
  C   C27       1.0  0.5445244950317729  0.9444494460585062  0.3542365500531588  1.0000
  C   C28       1.0  0.45548753959183597  0.05555480642279781  0.6457704414164953  1.0000
  C   C29       1.0  0.5882626914649051  0.0038602067053048017  0.2687734110007015  1.0000
  C   C30       1.0  0.4117384581186983  0.9961458398574976  0.7312292034081339  1.0000
  N   N1        1.0  0.8499991875991951  0.30608079291349105  0.4790756411314094  1.0000
  N   N2        1.0  0.14999321384316747  0.6939194387280807  0.5209284826290954  1.0000
  N   N3        1.0  0.8102270548804428  0.8769787009955083  0.3893450550776835  1.0000
  N   N4        1.0  0.18978520929405815  0.12302935518960818  0.6106575621466064  1.0000
  O   O1        1.0  0.7902222696097001  0.15489818072015987  0.9186112771365349  1.0000
  O   O2        1.0  0.20978536216661353  0.8451078888077322  0.08138755943449646  1.0000
  O   O3        1.0  0.3464202885620297  0.4882033400801974  0.15342262847678265  1.0000
  O   O4        1.0  0.653574813286383  0.5117872792348025  0.8465761882075216  1.0000
  O   O5        1.0  0.19232797929648632  0.18414047223956231  0.12245507379693521  1.0000
  O   O6        1.0  0.8076737006074594  0.8158636855489759  0.8775507008939274  1.0000
  O   O7        1.0  0.13222039723044082  0.583130274737485  0.09941844411358151  1.0000
  O   O8        1.0  0.8677817865363268  0.41686516240225313  0.9005758352031423  1.0000
  O   O9        1.0  0.17479040851296196  0.2986769843369785  0.9281261518235272  1.0000
  O   O10       1.0  0.8252032429982634  0.7013164887528235  0.07187117297566208  1.0000
  O   O11       1.0  0.7828942349431928  0.4167396178834651  0.13138722410081277  1.0000
  O   O12       1.0  0.2171064848211941  0.5832587201985433  0.8686114737069631  1.0000
  O   O13       1.0  0.12126886741973655  0.4118365030037693  0.3078681444282054  1.0000
  O   O14       1.0  0.8787228416045211  0.5881685040803646  0.6921341178232937  1.0000
  O   O15       1.0  0.865695887751862  0.17609047395462343  0.17458285608616111  1.0000
  O   O16       1.0  0.13430504594604295  0.8239117217368914  0.8254182221918713  1.0000
  O   O17       1.0  0.15394047897641636  0.30062033966247986  0.44865288947521265  1.0000
  O   O18       1.0  0.8460508021808053  0.6993769522026482  0.5513446118357735  1.0000
  O   O19       1.0  0.8294329936240389  0.6080526689292044  0.260761534336048  1.0000
  O   O20       1.0  0.17055349108505885  0.3919455296852235  0.7392343294341475  1.0000
  O   O21       1.0  0.721685437506622  0.9815648191702949  0.0373846950813146  1.0000
  O   O22       1.0  0.278313662014142  0.018439286307661  0.9626171869721818  1.0000
  O   O23       1.0  0.10619894698431419  0.9942408753890887  0.23822962039502474  1.0000
  O   O24       1.0  0.8937933734786229  0.005768886125423504  0.761766816289992  1.0000
  O   O25       1.0  0.11405688483231556  0.8635964245794198  0.36146406340816384  1.0000
  O   O26       1.0  0.8859514510751296  0.1364048290766462  0.638531568635152  1.0000
