data_image0
_chemical_formula_structural       Zn2H36C54N8O16
_chemical_formula_sum              "Zn2 H36 C54 N8 O16"
_cell_length_a       8.443518103776922
_cell_length_b       10.384329484508138
_cell_length_c       14.655484452594832
_cell_angle_alpha    92.3396771732323
_cell_angle_beta     100.08129243793785
_cell_angle_gamma    102.32442866115792

_space_group_name_H-M_alt    "P 1"
_space_group_IT_number       1

loop_
  _space_group_symop_operation_xyz
  'x, y, z'

loop_
  _atom_site_type_symbol
  _atom_site_label
  _atom_site_symmetry_multiplicity
  _atom_site_fract_x
  _atom_site_fract_y
  _atom_site_fract_z
  _atom_site_occupancy
  Zn  Zn1       1.0  0.6395644032437814  0.9612779618921717  0.554744741313165  1.0000
  Zn  Zn2       1.0  0.3604384254068195  0.03872218856475479  0.4452554872317478  1.0000
  H   H1        1.0  0.9985728977006828  0.05138554989346028  0.5890760304051454  1.0000
  H   H2        1.0  0.0014314034885955173  0.9486155785644423  0.4109257445263879  1.0000
  H   H3        1.0  0.2435978114739825  0.0160395202931412  0.7009843987518778  1.0000
  H   H4        1.0  0.7564049032096705  0.9839645785915248  0.2990213926488181  1.0000
  H   H5        1.0  0.9120160779352346  0.7251282827015328  0.8204443136326276  1.0000
  H   H6        1.0  0.08798507807293279  0.2748787939375531  0.17956276794605944  1.0000
  H   H7        1.0  0.6782177287508375  0.7702196911161747  0.701592460882658  1.0000
  H   H8        1.0  0.32178571555020613  0.2297784704930095  0.2984091379402116  1.0000
  H   H9        1.0  0.6584951642866274  0.028276227001938995  0.8182339128922536  1.0000
  H   H10       1.0  0.34149935168797896  0.9717200205248556  0.1817619257483472  1.0000
  H   H11       1.0  0.9179673046090215  0.019893443952788893  0.9321394269061543  1.0000
  H   H12       1.0  0.08203228373085371  0.9801077374590502  0.06785298942650539  1.0000
  H   H13       1.0  0.6496368460222898  0.7672273011671891  0.09023661991428611  1.0000
  H   H14       1.0  0.3503777089422044  0.23278861595090203  0.9097700661151932  1.0000
  H   H15       1.0  0.38089577858887214  0.7685314131859398  0.9851166156304174  1.0000
  H   H16       1.0  0.6191137179254226  0.23147957371092784  0.014892129561410193  1.0000
  H   H17       1.0  0.37692505742755594  0.6496078492124864  0.6920745414071304  1.0000
  H   H18       1.0  0.6230677789470819  0.3503953226645606  0.3079288318400303  1.0000
  H   H19       1.0  0.8849402959981348  0.423654309627274  0.6930795251374989  1.0000
  H   H20       1.0  0.11505459174269107  0.5763389710936905  0.3069135356413851  1.0000
  H   H21       1.0  0.966710434465213  0.7160844085394727  0.4965482368807058  1.0000
  H   H22       1.0  0.03329094251930087  0.28391476941221316  0.5034484005592148  1.0000
  H   H23       1.0  0.2329861343157518  0.5442917909558601  0.8493291691112645  1.0000
  H   H24       1.0  0.7670080960294425  0.4557034676213687  0.15066661082644114  1.0000
  H   H25       1.0  0.10658181293187137  0.38900022184254357  0.8053704272566762  1.0000
  H   H26       1.0  0.8934184215349887  0.610995000310858  0.19462597537170007  1.0000
  H   H27       1.0  0.5132910441038377  0.5432778249796042  0.9018824754521475  1.0000
  H   H28       1.0  0.4867121841431227  0.45671936599914875  0.09811224893987709  1.0000
  H   H29       1.0  0.7335906180395214  0.255635468373093  0.781680474964631  1.0000
  H   H30       1.0  0.2664039353691621  0.7443568105749135  0.2183172981209367  1.0000
  H   H31       1.0  0.23827931073007846  0.27830618606441243  0.6660027738573575  1.0000
  H   H32       1.0  0.7617139835475939  0.721690063251408  0.3339949849634891  1.0000
  H   H33       1.0  0.5573563040817789  0.5819437960799404  0.4597994673355075  1.0000
  H   H34       1.0  0.4426482244302364  0.41806228441058824  0.5402024765723326  1.0000
  H   H35       1.0  0.9217975908859515  0.5770956352705524  0.01565970033426107  1.0000
  H   H36       1.0  0.07819700956075341  0.4228886991921997  0.9843446679324189  1.0000
  C   C1        1.0  0.9854277185615743  0.9801781432146798  0.6414230434406747  1.0000
  C   C2        1.0  0.014576861299587995  0.019823972360882205  0.3585794717665394  1.0000
  C   C3        1.0  0.1200401367584902  0.9614552762821443  0.7036117872428207  1.0000
  C   C4        1.0  0.8799601762764979  0.038548837172058384  0.2963937550816098  1.0000
  C   C5        1.0  0.0952680749698658  0.8685022978832747  0.7693389046301178  1.0000
  C   C6        1.0  0.9047369900133119  0.13150575134683606  0.2306665645474695  1.0000
  C   C7        1.0  0.9349362710203764  0.7976217206757283  0.7699062338029988  1.0000
  C   C8        1.0  0.06506191903782371  0.202383394465663  0.2300997997208469  1.0000
  C   C9        1.0  0.8058702542846206  0.8223082340590153  0.7047920221350523  1.0000
  C   C10       1.0  0.19413341038161755  0.17769487775088066  0.2952104272369098  1.0000
  C   C11       1.0  0.5024811930696911  0.8979970696369289  0.8933924521096301  1.0000
  C   C12       1.0  0.4975205759424952  0.10201199589278788  0.1066106574380612  1.0000
  C   C13       1.0  0.6547788231990878  0.969649302305427  0.8782264774603945  1.0000
  C   C14       1.0  0.3452212876968871  0.030353844182165798  0.12177082728760519  1.0000
  C   C15       1.0  0.7971120912264738  0.9637533384112799  0.9411143858964408  1.0000
  C   C16       1.0  0.20289312251131267  0.036250771550648195  0.05888211256139189  1.0000
  C   C17       1.0  0.6475329142937554  0.8234603012570075  0.02890550922095511  1.0000
  C   C18       1.0  0.3524784030064225  0.1765526690776369  0.9710987069052095  1.0000
  C   C19       1.0  0.4981936567508001  0.8222793797435413  0.9704719743339468  1.0000
  C   C20       1.0  0.5018116494701773  0.17773362518301636  0.02953230067435441  1.0000
  C   C21       1.0  0.18386961642438135  0.6920747306226358  0.5899022137346748  1.0000
  C   C22       1.0  0.8161316744233248  0.30792840308445335  0.4100972602698505  1.0000
  C   C23       1.0  0.24474676382823907  0.6248337039817143  0.6641077236203117  1.0000
  C   C24       1.0  0.7552494894418658  0.37516450499989407  0.33589176482816907  1.0000
  C   C25       1.0  0.13889706543901784  0.5296620907467683  0.7036663186326635  1.0000
  C   C26       1.0  0.8611007534641146  0.47033314231232726  0.2963311980650332  1.0000
  C   C27       1.0  0.9706070512267359  0.4987341290005745  0.6650292995677773  1.0000
  C   C28       1.0  0.029390554268722686  0.5012561556897309  0.33496668500802684  1.0000
  C   C29       1.0  0.9080898348225049  0.565211433497744  0.5902516009386503  1.0000
  C   C30       1.0  0.09191186257908872  0.4347887425630859  0.4097416873401869  1.0000
  C   C31       1.0  0.014654801039149725  0.6626676042581179  0.553388858264384  1.0000
  C   C32       1.0  0.9853507940688074  0.3373295629915346  0.44660952306788454  1.0000
  C   C33       1.0  0.2978431202281298  0.79980931830854  0.55232127192496  1.0000
  C   C34       1.0  0.702155162924413  0.200191842909362  0.4476812434614956  1.0000
  C   C35       1.0  0.7279434990579857  0.5336694417827343  0.5521373328954482  1.0000
  C   C36       1.0  0.27203791584006604  0.4663110005698241  0.4478689630423318  1.0000
  C   C37       1.0  0.20490220333628875  0.4687992906323257  0.790272248949769  1.0000
  C   C38       1.0  0.7950935134626534  0.5311969496097078  0.20972371422895722  1.0000
  C   C39       1.0  0.35655546958219725  0.41522061570353924  0.7860393226973629  1.0000
  C   C40       1.0  0.6434459004447818  0.5847785604162324  0.2139579963153579  1.0000
  C   C41       1.0  0.5039349237724194  0.46255448177963376  0.8497973314172641  1.0000
  C   C42       1.0  0.49606709669266985  0.5374427146519735  0.15019795000942787  1.0000
  C   C43       1.0  0.6396426096672484  0.4044792795653223  0.8486314498676036  1.0000
  C   C44       1.0  0.36035371582459413  0.5955149699970547  0.15136656516186522  1.0000
  C   C45       1.0  0.6285426591922346  0.3003514009019597  0.7828158482557087  1.0000
  C   C46       1.0  0.3714495134403819  0.6996408981113118  0.2171796310352008  1.0000
  C   C47       1.0  0.48454188226363476  0.25597992854043367  0.7166299351936019  1.0000
  C   C48       1.0  0.5154567935277328  0.7440182713673805  0.2833677576127585  1.0000
  C   C49       1.0  0.3495701232965446  0.31317757007523983  0.7186789778273734  1.0000
  C   C50       1.0  0.6504219840718549  0.6868186901891775  0.28131729330974764  1.0000
  C   C51       1.0  0.7967252352019614  0.4484972777506612  0.9160548192635715  1.0000
  C   C52       1.0  0.2032721012255649  0.5514880439155262  0.0839450857726973  1.0000
  C   C53       1.0  0.4814728654423206  0.15210614541965836  0.6416781197765644  1.0000
  C   C54       1.0  0.5185180341442148  0.847890120297606  0.35831870839521673  1.0000
  N   N1        1.0  0.8304755056994182  0.9117333968638945  0.6418358175662675  1.0000
  N   N2        1.0  0.1695258225823721  0.08826576826439948  0.3581655908832245  1.0000
  N   N3        1.0  0.22692278128469917  0.8406958857387963  0.8351319981348836  1.0000
  N   N4        1.0  0.7730771808566673  0.15931120001697244  0.1648742773328706  1.0000
  N   N5        1.0  0.3639649283300983  0.9153642636956291  0.8299775096104086  1.0000
  N   N6        1.0  0.6360377793960198  0.0846398333571301  0.1700289633630803  1.0000
  N   N7        1.0  0.7948252498032602  0.8926414766318159  0.015653276281497586  1.0000
  N   N8        1.0  0.20518620233647059  0.10736755077082447  0.9843433322705053  1.0000
  O   O1        1.0  0.23124430184739003  0.8692485989444734  0.4942167736769463  1.0000
  O   O2        1.0  0.7687548173207973  0.13075552362640508  0.5057879625365588  1.0000
  O   O3        1.0  0.45207308859183837  0.8146074465351204  0.582939183667321  1.0000
  O   O4        1.0  0.547924585867797  0.18539570536243125  0.41706127986839203  1.0000
  O   O5        1.0  0.683558854784792  0.6046966254122876  0.48381086357873937  1.0000
  O   O6        1.0  0.3164448907254354  0.3953104861189373  0.5161780646107417  1.0000
  O   O7        1.0  0.6290727285201356  0.44794540269601407  0.5839812661716195  1.0000
  O   O8        1.0  0.37094448059947643  0.5520794369511891  0.416017769310308  1.0000
  O   O9        1.0  0.9099343288205686  0.3875512434549719  0.9184563014839142  1.0000
  O   O10       1.0  0.09005995552018216  0.6124360724689167  0.081545392062111  1.0000
  O   O11       1.0  0.807345492900467  0.554451114024225  0.9720654124271135  1.0000
  O   O12       1.0  0.19264908667364714  0.4455332149427915  0.027941000557944986  1.0000
  O   O13       1.0  0.5968755991198762  0.0900082435775076  0.6544700314674542  1.0000
  O   O14       1.0  0.40312037547834484  0.9099889782864423  0.3455287167053456  1.0000
  O   O15       1.0  0.36487074766775146  0.1354441042839056  0.5712804048289684  1.0000
  O   O16       1.0  0.6351258190618978  0.8645551009749326  0.4287164160312216  1.0000
