data_image0
_chemical_formula_structural       Ag4H24C12N16Cl4
_chemical_formula_sum              "Ag4 H24 C12 N16 Cl4"
_cell_length_a       6.349680801455349
_cell_length_b       6.948299900368645
_cell_length_c       15.056239974163638
_cell_angle_alpha    89.99990956152557
_cell_angle_beta     90.00051832286428
_cell_angle_gamma    89.9987745957105

_space_group_name_H-M_alt    "P 1"
_space_group_IT_number       1

loop_
  _space_group_symop_operation_xyz
  'x, y, z'

loop_
  _atom_site_type_symbol
  _atom_site_label
  _atom_site_symmetry_multiplicity
  _atom_site_fract_x
  _atom_site_fract_y
  _atom_site_fract_z
  _atom_site_occupancy
  Ag  Ag1       1.0  0.7500067140786938  0.006381906476541101  0.34138676752024116  1.0000
  Ag  Ag2       1.0  0.24997842079850585  0.4936162017253594  0.8413909496817171  1.0000
  Ag  Ag3       1.0  0.7500054005682057  0.5063721187472794  0.1586091924264679  1.0000
  Ag  Ag4       1.0  0.24999758052059204  0.9936236842057938  0.65860938956061  1.0000
  H   H1        1.0  0.7499961369925573  0.6395625175448388  0.45661448456363735  1.0000
  H   H2        1.0  0.24999918304941096  0.8604467661963541  0.9566114681347531  1.0000
  H   H3        1.0  0.7500145608549856  0.1395617027857838  0.0433886740213154  1.0000
  H   H4        1.0  0.24999870846129818  0.3604401948153466  0.5433922993238696  1.0000
  H   H5        1.0  0.8921023892062293  0.6078207787311312  0.5586156614562585  1.0000
  H   H6        1.0  0.10791415508607118  0.8921926002781148  0.05861540672098901  1.0000
  H   H7        1.0  0.6078979010841009  0.1078216360336128  0.9413875244080077  1.0000
  H   H8        1.0  0.3920957188780108  0.3921704094866598  0.44138368422844826  1.0000
  H   H9        1.0  0.1079019055586627  0.39217329833830666  0.4413838165114754  1.0000
  H   H10       1.0  0.8921090379852146  0.10783169981160509  0.9413893846815284  1.0000
  H   H11       1.0  0.39208277034181543  0.8921810764828351  0.0586112893355875  1.0000
  H   H12       1.0  0.6079038511713148  0.6078265460378419  0.5586124728470452  1.0000
  H   H13       1.0  0.7500281417307872  0.1763278934122567  0.7474914112055303  1.0000
  H   H14       1.0  0.2500116365703207  0.3236863325811045  0.24749373604267083  1.0000
  H   H15       1.0  0.7499532859750389  0.6763221368983211  0.7525057418455745  1.0000
  H   H16       1.0  0.2500202496152326  0.8236791360146825  0.25251005936886634  1.0000
  H   H17       1.0  0.8931917460021167  0.35011437096260783  0.6838402591607462  1.0000
  H   H18       1.0  0.1068261679846856  0.1498827794738062  0.18385148655944056  1.0000
  H   H19       1.0  0.6067873527174327  0.8501084519726163  0.8161501121111885  1.0000
  H   H20       1.0  0.3932048975762328  0.6498897477258367  0.3161524488690049  1.0000
  H   H21       1.0  0.10682514762434887  0.6498869019998921  0.31614859200448825  1.0000
  H   H22       1.0  0.8931513537372948  0.8501112978738802  0.8161440062994958  1.0000
  H   H23       1.0  0.39318859411002893  0.14988994298892777  0.1838487016253012  1.0000
  H   H24       1.0  0.6068308946766194  0.3501158426353044  0.683844372447247  1.0000
  C   C1        1.0  0.7500001767139961  0.0212587165779254  0.4790300246127615  1.0000
  C   C2        1.0  0.24999269140916167  0.4787130650086695  0.9790368755150214  1.0000
  C   C3        1.0  0.7500242028975421  0.5212392751023528  0.020963930846008307  1.0000
  C   C4        1.0  0.24998521892176476  0.9787770975220982  0.5209628115382969  1.0000
  C   C5        1.0  0.7500028942629128  0.6683665765039634  0.528107090111412  1.0000
  C   C6        1.0  0.24999565968240484  0.8316296255793175  0.028102102618227303  1.0000
  C   C7        1.0  0.7500007605788709  0.16836876917918886  0.971893390274339  1.0000
  C   C8        1.0  0.24999982569884335  0.3316217437755497  0.4718937162085909  1.0000
  C   C9        1.0  0.750015496164501  0.2615819346619475  0.6867424779392126  1.0000
  C   C10       1.0  0.25000405611936566  0.23841376768617556  0.18675084906592335  1.0000
  C   C11       1.0  0.7499703160995992  0.7615673568684896  0.8132552706155141  1.0000
  C   C12       1.0  0.2500108467248552  0.738433730195986  0.3132583284139868  1.0000
  N   N1        1.0  0.7500007065862915  0.8758331341310709  0.5411474469330814  1.0000
  N   N2        1.0  0.2499981324830571  0.6241558320615043  0.041145947478391114  1.0000
  N   N3        1.0  0.7499951383174163  0.37581809630836466  0.9588522021239287  1.0000
  N   N4        1.0  0.25000201302874797  0.12418540936996439  0.4588526951982956  1.0000
  N   N5        1.0  0.7500040018715166  0.9434250813687085  0.6239350215400351  1.0000
  N   N6        1.0  0.2500108203732622  0.5565780235024533  0.12393556908175903  1.0000
  N   N7        1.0  0.7499871747921033  0.44342037123700345  0.8760619163431047  1.0000
  N   N8        1.0  0.2500050173278723  0.056583387669583395  0.3760598071956025  1.0000
  N   N9        1.0  0.7500082881417284  0.1295353594282886  0.6120060762025405  1.0000
  N   N10       1.0  0.25000018135413166  0.37046920678146483  0.11201566930201783  1.0000
  N   N11       1.0  0.7499804904399525  0.6295162352988937  0.8879990846833082  1.0000
  N   N12       1.0  0.25000860549960174  0.8704846231154234  0.3880033644250744  1.0000
  N   N13       1.0  0.7500067272173041  0.1857060644799446  0.5268984834083171  1.0000
  N   N14       1.0  0.24999200814444575  0.31427285646221037  0.026914099347493406  1.0000
  N   N15       1.0  0.7499886638954008  0.6856881192056149  0.9730979979418921  1.0000
  N   N16       1.0  0.25000544152833004  0.814328310133753  0.4731029870872661  1.0000
  Cl  Cl1       1.0  0.7500086965310687  0.9419448111067935  0.1873180439784434  1.0000
  Cl  Cl2       1.0  0.24999963661144878  0.5580537824032419  0.6873172636736555  1.0000
  Cl  Cl3       1.0  0.7500078078260299  0.441944612243212  0.3126782292395447  1.0000
  Cl  Cl4       1.0  0.24996882516420266  0.0580535838407741  0.8126794414080933  1.0000
