data_image0
_chemical_formula_structural       Zn6H20C94Br10O24
_chemical_formula_sum              "Zn6 H20 C94 Br10 O24"
_cell_length_a       17.036903158478495
_cell_length_b       17.036917031014298
_cell_length_c       17.366579011784935
_cell_angle_alpha    65.25452353888386
_cell_angle_beta     65.25548091087609
_cell_angle_gamma    65.9209771616875

_space_group_name_H-M_alt    "P 1"
_space_group_IT_number       1

loop_
  _space_group_symop_operation_xyz
  'x, y, z'

loop_
  _atom_site_type_symbol
  _atom_site_label
  _atom_site_symmetry_multiplicity
  _atom_site_fract_x
  _atom_site_fract_y
  _atom_site_fract_z
  _atom_site_occupancy
  Zn  Zn1       1.0  0.577797059634662  0.9949374888429078  0.49855565371806415  1.0000
  Zn  Zn2       1.0  0.4221995929996254  0.0050844375473175895  0.501416339335698  1.0000
  Zn  Zn3       1.0  0.0050822515290321  0.42219909641215736  0.5014329110719018  1.0000
  Zn  Zn4       1.0  0.9949211681382837  0.5778000955420594  0.49857780722312844  1.0000
  Zn  Zn5       1.0  0.9992290844662719  0.999228450282594  0.07388399705290259  1.0000
  Zn  Zn6       1.0  0.0007784887100399006  0.0007677848071808004  0.9261066574572752  1.0000
  H   H1        1.0  0.7845290681366848  0.42014139811935536  0.5427865261387551  1.0000
  H   H2        1.0  0.21546350700923264  0.5798593736800582  0.45724407439673326  1.0000
  H   H3        1.0  0.5798596262861154  0.215472174537787  0.4572360437021743  1.0000
  H   H4        1.0  0.4201537684441234  0.7845443837725126  0.5427532162494161  1.0000
  H   H5        1.0  0.2695425740453672  0.9925942337691325  0.76703922459874  1.0000
  H   H6        1.0  0.7304554125820388  0.007426002643008204  0.23293809539294583  1.0000
  H   H7        1.0  0.0073963622498212  0.7304606947407916  0.2329580014015564  1.0000
  H   H8        1.0  0.9925848888144202  0.26954138235547725  0.7670536307488048  1.0000
  H   H9        1.0  0.2481004950978019  0.8951769338138433  0.07490691908161287  1.0000
  H   H10       1.0  0.7519010185996963  0.10482619580584894  0.9250730315854199  1.0000
  H   H11       1.0  0.10481012761939472  0.7519029466705829  0.925094615139997  1.0000
  H   H12       1.0  0.8951799544030551  0.2480863448082147  0.07492265246528247  1.0000
  H   H13       1.0  0.3384728350794362  0.886971432262662  0.15576450656882912  1.0000
  H   H14       1.0  0.661540942606507  0.1130154388071318  0.8442124582884033  1.0000
  H   H15       1.0  0.1130185250038807  0.6615282775186982  0.844242236106261  1.0000
  H   H16       1.0  0.886973622640248  0.3384526603000281  0.1557827653014599  1.0000
  H   H17       1.0  0.5561136273891378  0.0373865643401814  0.6935175446803684  1.0000
  H   H18       1.0  0.44390097009537755  0.962587847951418  0.3064566567388029  1.0000
  H   H19       1.0  0.9625812459433905  0.44389045828628315  0.30648755479209927  1.0000
  H   H20       1.0  0.0373965738993292  0.5561105175108094  0.693542615479103  1.0000
  C   C1        1.0  0.4337329662182654  0.9991570774539226  0.6651006654669728  1.0000
  C   C2        1.0  0.5662684967857743  0.000855153435494954  0.3348692788840992  1.0000
  C   C3        1.0  0.0008410103324080995  0.5662705240213483  0.3348941851011134  1.0000
  C   C4        1.0  0.9991610191830561  0.43373226277416427  0.6651185178174971  1.0000
  C   C5        1.0  0.4092345355786335  0.4092355776707208  0.4740307593754095  1.0000
  C   C6        1.0  0.5907674571623575  0.5907691334206219  0.5259852085297466  1.0000
  C   C7        1.0  0.7180309450199331  0.4546413038062624  0.5346899369001719  1.0000
  C   C8        1.0  0.2819683573960887  0.5453602276398826  0.46533474680568787  1.0000
  C   C9        1.0  0.5453596089985454  0.2819747336582807  0.46532887459493816  1.0000
  C   C10       1.0  0.45465107550570144  0.718039932497511  0.5346703143448295  1.0000
  C   C11       1.0  0.4555910622814707  0.9934002819840729  0.9492998801477837  1.0000
  C   C12       1.0  0.5444315813284392  0.006576453404022719  0.05066953832168511  1.0000
  C   C13       1.0  0.006575381785943101  0.5444153659289623  0.050700806110604964  1.0000
  C   C14       1.0  0.9934072232455408  0.45557654284419136  0.9493311015033826  1.0000
  C   C15       1.0  0.5363190557713153  0.022337008322644198  0.9042037740493997  1.0000
  C   C16       1.0  0.4636975080150663  0.9776420251550634  0.09576948209014097  1.0000
  C   C17       1.0  0.9776420570883532  0.4636878226799935  0.09579213072609598  1.0000
  C   C18       1.0  0.022343243806453503  0.5363072712905391  0.9042299049229287  1.0000
  C   C19       1.0  0.5768787565460798  0.03325992568051825  0.955299307599141  1.0000
  C   C20       1.0  0.4231424938844199  0.9667210552344587  0.04467125688231011  1.0000
  C   C21       1.0  0.9667210488667307  0.4231283388403356  0.04469656043866619  1.0000
  C   C22       1.0  0.033264931744327  0.5768652691718972  0.9553269540034462  1.0000
  C   C23       1.0  0.32409245922122665  0.9655451713323514  0.9462966128234316  1.0000
  C   C24       1.0  0.6759132113443159  0.034446506421339486  0.05368169107727285  1.0000
  C   C25       1.0  0.0344340454261314  0.6759137702958072  0.05370529306801328  1.0000
  C   C26       1.0  0.9655458734537066  0.3240854225469435  0.9463109290005534  1.0000
  C   C27       1.0  0.27074593965872407  0.976199151596816  0.8957154271291117  1.0000
  C   C28       1.0  0.7292616009164377  0.02380947150358993  0.10425409102148815  1.0000
  C   C29       1.0  0.0237836310907369  0.7292671141897031  0.10428172310744087  1.0000
  C   C30       1.0  0.9761942471631073  0.27073326644357815  0.8957377241326727  1.0000
  C   C31       1.0  0.30866934740328844  0.9900770848299274  0.8043969304861135  1.0000
  C   C32       1.0  0.6913293980276906  0.009937822584419075  0.19557418216127326  1.0000
  C   C33       1.0  0.009907586941736204  0.6913338703617384  0.19560479869729608  1.0000
  C   C34       1.0  0.990068895363514  0.3086707530223266  0.8044163726369289  1.0000
  C   C35       1.0  0.39541937643675595  0.9996312420770221  0.7595547257499291  1.0000
  C   C36       1.0  0.6045753940776423  0.0003763417087724728  0.24042269860754562  1.0000
  C   C37       1.0  0.00035453485796209784  0.6045789475023043  0.2404509194342239  1.0000
  C   C38       1.0  0.9996334314392076  0.39541930112864787  0.7595676031533143  1.0000
  C   C39       1.0  0.44290335468840425  0.006679714101984785  0.8064865864867697  1.0000
  C   C40       1.0  0.5571069843558547  0.9933178152023887  0.19348399408626457  1.0000
  C   C41       1.0  0.9933027049530736  0.5571020571769765  0.19351365495146675  1.0000
  C   C42       1.0  0.0066819018628195  0.44289581579474185  0.8065069589276775  1.0000
  C   C43       1.0  0.5597071436954553  0.8271755168963606  0.5295936131513559  1.0000
  C   C44       1.0  0.44030764343904144  0.17283875627204281  0.47039025070705526  1.0000
  C   C45       1.0  0.1728316653386202  0.44030685442699274  0.47039982872402675  1.0000
  C   C46       1.0  0.8271723791050718  0.5596966799781665  0.5296106016810567  1.0000
  C   C47       1.0  0.4073675848795304  0.9888976485549394  0.9007570491964143  1.0000
  C   C48       1.0  0.592643520315363  0.011089983072210399  0.09921608472418333  1.0000
  C   C49       1.0  0.011080548823954905  0.5926372478479391  0.09924519091234166  1.0000
  C   C50       1.0  0.9889007184116707  0.4073589619738414  0.900776301070941  1.0000
  C   C51       1.0  0.3030049926213536  0.9261205970328917  0.03994827893423994  1.0000
  C   C52       1.0  0.697004717916883  0.07386801003674744  0.9600336625491366  1.0000
  C   C53       1.0  0.0738621056190212  0.6969980366273844  0.9600559691343092  1.0000
  C   C54       1.0  0.9261246196913151  0.3029908819682701  0.03996281168044643  1.0000
  C   C55       1.0  0.35291944936700764  0.9237464629898539  0.08564418890477285  1.0000
  C   C56       1.0  0.6470977452508819  0.07623561156766104  0.9143304565680167  1.0000
  C   C57       1.0  0.07623749955918413  0.6470853846790304  0.9143540743736123  1.0000
  C   C58       1.0  0.9237485263922737  0.3529056539039743  0.08566585752927128  1.0000
  C   C59       1.0  0.5260766931580392  0.028275925510030178  0.7641729521319789  1.0000
  C   C60       1.0  0.4739377369960637  0.9717153157715898  0.23579794401395998  1.0000
  C   C61       1.0  0.971700800265886  0.4739282473497893  0.2358268550088025  1.0000
  C   C62       1.0  0.028275057779765703  0.5260707266600094  0.7641974376028385  1.0000
  C   C63       1.0  0.570899874304878  0.034526610129042  0.8100094524638167  1.0000
  C   C64       1.0  0.429112607454357  0.9654567593147123  0.18996600393760582  1.0000
  C   C65       1.0  0.9654546969730973  0.4291053570137395  0.18998755167185516  1.0000
  C   C66       1.0  0.0345278943977902  0.5708930752716483  0.8100325013333531  1.0000
  C   C67       1.0  0.9779560582929749  0.17370059746272654  0.9346898573325716  1.0000
  C   C68       1.0  0.02203325108002471  0.8262940091334269  0.06533650802767728  1.0000
  C   C69       1.0  0.8262995161926624  0.02204750886539847  0.06530302756261365  1.0000
  C   C70       1.0  0.17371015395367104  0.9779521709632988  0.9346623451950647  1.0000
  C   C71       1.0  0.40994439552090267  0.6757762311645692  0.520308853700229  1.0000
  C   C72       1.0  0.5900609032387295  0.3242379540796492  0.4796955946794838  1.0000
  C   C73       1.0  0.32423465347341107  0.590063535710641  0.4796953505237409  1.0000
  C   C74       1.0  0.6757673072562866  0.4099450656136909  0.5203184761225045  1.0000
  C   C75       1.0  0.3197390163140029  0.7194409436866422  0.511759904704789  1.0000
  C   C76       1.0  0.680269644437715  0.2805742734545547  0.48824045760744633  1.0000
  C   C77       1.0  0.2805701030019634  0.6802757225634437  0.48823573554960115  1.0000
  C   C78       1.0  0.7194345306624755  0.3197380021345425  0.5117685937075507  1.0000
  C   C79       1.0  0.41224285057115395  0.5446859708877267  0.49126743119131083  1.0000
  C   C80       1.0  0.5877558232657523  0.45531382917801  0.5087524517117002  1.0000
  C   C81       1.0  0.45531260180723626  0.5877572541795573  0.5087518275534464  1.0000
  C   C82       1.0  0.5446853467146369  0.41224725473537666  0.49126874240197793  1.0000
  C   C83       1.0  0.45563826221037124  0.45564279582874423  0.4838763701886322  1.0000
  C   C84       1.0  0.5443603577202154  0.5443602187996105  0.5161474128062764  1.0000
  C   C85       1.0  0.4529566983512865  0.3188333778093763  0.46939410912513324  1.0000
  C   C86       1.0  0.5470473254162158  0.6811734044714655  0.5306132843862199  1.0000
  C   C87       1.0  0.6811688440076793  0.5470427239228003  0.5306221641292341  1.0000
  C   C88       1.0  0.31883049189686125  0.4529581873747333  0.4693969992847399  1.0000
  C   C89       1.0  0.40004430839513117  0.2667153965559946  0.47799634842070293  1.0000
  C   C90       1.0  0.5999597110528684  0.7332953037187123  0.5220031230103925  1.0000
  C   C91       1.0  0.7332905753639097  0.5999584460756182  0.5220084071228113  1.0000
  C   C92       1.0  0.26670808256000816  0.40004656780295267  0.4780030326410126  1.0000
  C   C93       1.0  0.30589818090724924  0.3059002760989244  0.4966532714346669  1.0000
  C   C94       1.0  0.6941058672660815  0.6941078380900264  0.5033460859500138  1.0000
  Br  Br1       1.0  0.8334629454431098  0.25783143927131374  0.5321006731897525  1.0000
  Br  Br2       1.0  0.1665416590523137  0.7421789875814113  0.4679170984395497  1.0000
  Br  Br3       1.0  0.7421836255269485  0.16654685831836955  0.46790990207234956  1.0000
  Br  Br4       1.0  0.2578277339303554  0.8334643559419701  0.5320961719059766  1.0000
  Br  Br5       1.0  0.2290632672086161  0.22905385376411394  0.5695504396012225  1.0000
  Br  Br6       1.0  0.7709489901010258  0.7709436725251777  0.43043951802673064  1.0000
  Br  Br7       1.0  0.6884303206415937  0.048705906614401294  0.7344438924579676  1.0000
  Br  Br8       1.0  0.31159445061855007  0.9512527314865906  0.26554237049510465  1.0000
  Br  Br9       1.0  0.9512739451504119  0.3115742677732171  0.2655548349607315  1.0000
  Br  Br10      1.0  0.0486903918704584  0.6884336587471863  0.734473954690422  1.0000
  O   O1        1.0  0.5175496955507484  0.992793344796908  0.6266454278813924  1.0000
  O   O2        1.0  0.4824382183564637  0.007232307582377466  0.37332226480139497  1.0000
  O   O3        1.0  0.007224674036393702  0.4824387449267745  0.3733447481798748  1.0000
  O   O4        1.0  0.9927909244769211  0.5175493328881656  0.6266689932195318  1.0000
  O   O5        1.0  0.4786867392759362  0.8697588874585732  0.5268249974608493  1.0000
  O   O6        1.0  0.5213206889086878  0.13026073622259557  0.4731429820995529  1.0000
  O   O7        1.0  0.13024907637171884  0.5213137771940594  0.4731667961639304  1.0000
  O   O8        1.0  0.8697537875633686  0.47867460431872627  0.5268445029871385  1.0000
  O   O9        1.0  0.6085718618558431  0.859504437734472  0.5404542544592984  1.0000
  O   O10       1.0  0.3914328488288064  0.14051067161729236  0.45953105511061654  1.0000
  O   O11       1.0  0.14051073771245373  0.3914278227119609  0.45953613307342783  1.0000
  O   O12       1.0  0.8594947719823693  0.6085643474902938  0.5404742828973567  1.0000
  O   O13       1.0  0.3800402440150138  0.0026193846217878935  0.6285256808404397  1.0000
  O   O14       1.0  0.619951296540485  0.9973755326572162  0.37145473829350084  1.0000
  O   O15       1.0  0.9973685040098916  0.6199562593830734  0.37147373232415515  1.0000
  O   O16       1.0  0.0026349068331157025  0.38004423116619535  0.6285358868298161  1.0000
  O   O17       1.0  0.9813671018263009  0.1335567307997109  0.014674869310553708  1.0000
  O   O18       1.0  0.0186631907368167  0.8664389262596046  0.9853344417531744  1.0000
  O   O19       1.0  0.8664385327883579  0.018649424728039415  0.985313941084861  1.0000
  O   O20       1.0  0.13356542697572854  0.9813150077533237  0.014663443066126465  1.0000
  O   O21       1.0  0.8644880592881848  0.019841331968706372  0.11635169725814619  1.0000
  O   O22       1.0  0.13551662451897067  0.9801927083385349  0.8835965747684681  1.0000
  O   O23       1.0  0.9801679740542684  0.1355080611427155  0.8836385168890643  1.0000
  O   O24       1.0  0.019805877887463904  0.8644888666623769  0.11638914737716279  1.0000
