data_image0
_chemical_formula_structural       Zn8H24C36N12O26
_chemical_formula_sum              "Zn8 H24 C36 N12 O26"
_cell_length_a       17.094643440327285
_cell_length_b       15.912420734945744
_cell_length_c       19.7272012945372
_cell_angle_alpha    91.0207202944934
_cell_angle_beta     116.40933100730847
_cell_angle_gamma    118.68249307058365

_space_group_name_H-M_alt    "P 1"
_space_group_IT_number       1

loop_
  _space_group_symop_operation_xyz
  'x, y, z'

loop_
  _atom_site_type_symbol
  _atom_site_label
  _atom_site_symmetry_multiplicity
  _atom_site_fract_x
  _atom_site_fract_y
  _atom_site_fract_z
  _atom_site_occupancy
  Zn  Zn1       1.0  0.8943614526423292  0.8500598511157876  0.9237362066900938  1.0000
  Zn  Zn2       1.0  0.8564224853675313  0.025252155660638195  0.8819479600969796  1.0000
  Zn  Zn3       1.0  0.05929140302887962  0.0426495167192442  0.9004229614726637  1.0000
  Zn  Zn4       1.0  0.04313449171699802  0.062953487908004  0.05387062920192418  1.0000
  Zn  Zn5       1.0  0.041968706499744796  0.6413497096553301  0.48048163396337157  1.0000
  Zn  Zn6       1.0  0.06332181599601949  0.4591750892184053  0.4685256055029611  1.0000
  Zn  Zn7       1.0  0.8750256138370747  0.4604237056496316  0.3237225116140363  1.0000
  Zn  Zn8       1.0  0.8733678111087929  0.43594974586507357  0.48667086929903985  1.0000
  H   H1        1.0  0.5575362887850873  0.6826072333612457  0.7994650311826345  1.0000
  H   H2        1.0  0.5677481477561702  0.6840578953360037  0.7145020220805163  1.0000
  H   H3        1.0  0.5631128292994134  0.8974328957094144  0.8027995929550469  1.0000
  H   H4        1.0  0.3673992822055825  0.8598767357945577  0.6984057040839458  1.0000
  H   H5        1.0  0.0042720655549715  0.6962526624797645  0.8390579546534692  1.0000
  H   H6        1.0  0.13433087551905504  0.8032556266990625  0.8816244711031085  1.0000
  H   H7        1.0  0.09613362343248623  0.9275145518568381  0.7644085310905734  1.0000
  H   H8        1.0  0.04052477548275143  0.8503842216770535  0.611366200966138  1.0000
  H   H9        1.0  0.7992479343832815  0.7630192857409243  0.09933382202753893  1.0000
  H   H10       1.0  0.8536245156968932  0.8888920394118216  0.15155201753078965  1.0000
  H   H11       1.0  0.07988712278434229  0.9726520708147604  0.25734210789254053  1.0000
  H   H12       1.0  0.1443611511655335  0.8823235197416608  0.370966721789088  1.0000
  H   H13       1.0  0.809288129244145  0.06692364567196311  0.6509143415667749  1.0000
  H   H14       1.0  0.8613520891705523  0.9954028855692626  0.6433773569153372  1.0000
  H   H15       1.0  0.09002475573201714  0.146836636205073  0.7147910368739755  1.0000
  H   H16       1.0  0.15269032041062763  0.2983135987810001  0.645912164558268  1.0000
  H   H17       1.0  0.8763976152771352  0.26222793900491576  0.02746469091595574  1.0000
  H   H18       1.0  0.9949476243324116  0.33610790163796617  0.029187228688350317  1.0000
  H   H19       1.0  0.15602074680844422  0.3356125060419827  0.1792694298477925  1.0000
  H   H20       1.0  0.18396819282504148  0.39828852681148424  0.32493883636407606  1.0000
  H   H21       1.0  0.3564237569871339  0.3284077569563593  0.10398036251310575  1.0000
  H   H22       1.0  0.39117765084166933  0.2544971076540108  0.07167207982591607  1.0000
  H   H23       1.0  0.3280969831713423  0.22334643815219116  0.2393011931258328  1.0000
  H   H24       1.0  0.5168072806678766  0.28165020864493334  0.3731608646445108  1.0000
  C   C1        1.0  0.6899462391479292  0.8141311564741827  0.8137279410795057  1.0000
  C   C2        1.0  0.5761700048598755  0.7304593813853231  0.7621744687894175  1.0000
  C   C3        1.0  0.49647786783813097  0.8349758233909911  0.7510978000779357  1.0000
  C   C4        1.0  0.39870162931016756  0.8147360634798774  0.6982469274415377  1.0000
  C   C5        1.0  0.3475572612743393  0.7215380715740594  0.6429031879492226  1.0000
  C   C6        1.0  0.23847781338183452  0.6621005264021491  0.5761950538688081  1.0000
  C   C7        1.0  0.02508393979847772  0.839006315678901  0.8725282301905606  1.0000
  C   C8        1.0  0.05124250800977857  0.7739939385207463  0.8409268265515731  1.0000
  C   C9        1.0  0.059110934771680855  0.8516709551087585  0.7301284890155553  1.0000
  C   C10       1.0  0.030639609052350723  0.8115940738537548  0.6543144217449208  1.0000
  C   C11       1.0  0.9860339157356537  0.7074749532986998  0.6444343138980739  1.0000
  C   C12       1.0  0.9521515816848948  0.633276236664976  0.5749383288250767  1.0000
  C   C13       1.0  0.9165526265912335  0.879568271793417  0.08109047635073093  1.0000
  C   C14       1.0  0.8707278079095817  0.8373007750144909  0.13277693402422125  1.0000
  C   C15       1.0  0.04053487865747491  0.8968097933359901  0.2605379559424249  1.0000
  C   C16       1.0  0.07073548679636599  0.8503517520498818  0.3159403518798739  1.0000
  C   C17       1.0  0.9836266404341889  0.7502090990025679  0.2852956441176815  1.0000
  C   C18       1.0  0.9746694320568708  0.671186520655155  0.32532806751145665  1.0000
  C   C19       1.0  0.9192766795618185  0.06768923240707639  0.7618073179634588  1.0000
  C   C20       1.0  0.8802390134011658  0.0663127550955878  0.6752891382366922  1.0000
  C   C21       1.0  0.050478911670538223  0.18044883688338592  0.6792615427786968  1.0000
  C   C22       1.0  0.0798615971209529  0.2556460490912613  0.6446934148434803  1.0000
  C   C23       1.0  0.9933777312077299  0.2654327779359775  0.6068313129088664  1.0000
  C   C24       1.0  0.9818308501347419  0.33270528951272366  0.5575988396004091  1.0000
  C   C25       1.0  0.948692238726757  0.184780691710877  0.021450257667311148  1.0000
  C   C26       1.0  0.955059234241844  0.2777852609669936  0.052286808408737666  1.0000
  C   C27       1.0  0.10483498542016893  0.3414188531944545  0.194396947623538  1.0000
  C   C28       1.0  0.11672959740526077  0.37148730472718944  0.2662113090743502  1.0000
  C   C29       1.0  0.021339160224243973  0.36087019511735013  0.24650679211917031  1.0000
  C   C30       1.0  0.9950871672235665  0.38823470986089603  0.30198873912461005  1.0000
  C   C31       1.0  0.24053692161934492  0.1739706258609672  0.05951270069869705  1.0000
  C   C32       1.0  0.35500596699307624  0.2582324133838156  0.10458120541661484  1.0000
  C   C33       1.0  0.40429072000758753  0.2520308082671363  0.24734187310384922  1.0000
  C   C34       1.0  0.4991210963597369  0.2812972599689232  0.313119555986681  1.0000
  C   C35       1.0  0.5687779952483469  0.3104997332917634  0.28497450273544433  1.0000
  C   C36       1.0  0.6826366642246315  0.3544514603234389  0.33042000016629897  1.0000
  N   N1        1.0  0.4998419128774643  0.756876885856769  0.7252190099955979  1.0000
  N   N2        1.0  0.40980919998841625  0.6867004260194918  0.6599321735385073  1.0000
  N   N3        1.0  0.030678804930722878  0.7727705454026504  0.7608021450025286  1.0000
  N   N4        1.0  0.9862417886541337  0.6843395686815866  0.7098051220559254  1.0000
  N   N5        1.0  0.9408911912588709  0.8252308114603935  0.2017902338566344  1.0000
  N   N6        1.0  0.9046004785817844  0.7353875440486066  0.2153280494974864  1.0000
  N   N7        1.0  0.9521031717481423  0.15019651292280398  0.6614750226581518  1.0000
  N   N8        1.0  0.9157937999039022  0.20081510542566858  0.6175318795007739  1.0000
  N   N9        1.0  0.0065581772146714205  0.313944245480819  0.13741808213781326  1.0000
  N   N10       1.0  0.9545361420778351  0.32577594399056403  0.1677281451431154  1.0000
  N   N11       1.0  0.4205259775549451  0.26324292163697294  0.18503803061658886  1.0000
  N   N12       1.0  0.5200363265155731  0.2992990722676153  0.2068292031422415  1.0000
  O   O1        1.0  0.9636675296850685  0.995851830104968  0.9402496197414788  1.0000
  O   O2        1.0  0.7152932353350324  0.9033680426679566  0.8365102605968172  1.0000
  O   O3        1.0  0.7514564744903826  0.7839615199477309  0.8317028743614399  1.0000
  O   O4        1.0  0.20659891396390856  0.5794968252958553  0.5327761622405871  1.0000
  O   O5        1.0  0.18474541628157945  0.6999523063543265  0.5690827613021835  1.0000
  O   O6        1.0  0.06910359250573364  0.9297338089665886  0.8718553888656682  1.0000
  O   O7        1.0  0.9634655963023492  0.7971076450990039  0.8981243642869994  1.0000
  O   O8        1.0  0.9119542525061206  0.5412856079071203  0.5726321989954142  1.0000
  O   O9        1.0  0.9694518370335106  0.6706550448390587  0.5222583443533534  1.0000
  O   O10       1.0  0.993649316743735  0.9705590109590787  0.11066258894803829  1.0000
  O   O11       1.0  0.8732076414316058  0.821379444240435  0.013236283404502634  1.0000
  O   O12       1.0  0.8970026471139934  0.5815340126964443  0.2877977944447208  1.0000
  O   O13       1.0  0.049351602256052805  0.703244917625959  0.3973895813192526  1.0000
  O   O14       1.0  0.007654577700812105  0.07796255469052228  0.8016668779613025  1.0000
  O   O15       1.0  0.8569771553441684  0.053671809077620515  0.7852222017545071  1.0000
  O   O16       1.0  0.9054360181139033  0.34209939643599796  0.5380121326282319  1.0000
  O   O17       1.0  0.05173635006762111  0.3745165752374361  0.5390121056175442  1.0000
  O   O18       1.0  0.013689438706109114  0.165671181111307  0.06862908359335046  1.0000
  O   O19       1.0  0.8792607695109286  0.1369250149319683  0.948709126293195  1.0000
  O   O20       1.0  0.9159619942036983  0.3948009788791467  0.272956121035058  1.0000
  O   O21       1.0  0.05726415110474652  0.40440123180087545  0.37517748471913126  1.0000
  O   O22       1.0  0.1992392517972874  0.15140495222814107  0.9845606227065314  1.0000
  O   O23       1.0  0.19487296972582877  0.1376924903639818  0.09784952059207086  1.0000
  O   O24       1.0  0.7242711817851916  0.36901419566721233  0.40533968387199315  1.0000
  O   O25       1.0  0.7282176590354797  0.37480507137905067  0.2910769241791087  1.0000
  O   O26       1.0  0.9602567101711517  0.4949597304832665  0.4393824485181596  1.0000
