data_image0
_chemical_formula_structural       Al2C48Cl24O12
_chemical_formula_sum              "Al2 C48 Cl24 O12"
_cell_length_a       4.02925788757983
_cell_length_b       29.054188600677566
_cell_length_c       29.0543446105257
_cell_angle_alpha    119.99123026122106
_cell_angle_beta     90.00320847795095
_cell_angle_gamma    90.00132314518515

_space_group_name_H-M_alt    "P 1"
_space_group_IT_number       1

loop_
  _space_group_symop_operation_xyz
  'x, y, z'

loop_
  _atom_site_type_symbol
  _atom_site_label
  _atom_site_symmetry_multiplicity
  _atom_site_fract_x
  _atom_site_fract_y
  _atom_site_fract_z
  _atom_site_occupancy
  Al  Al1       1.0  0.9999939060353568  0.5000229173693713  0.49997063338783226  1.0000
  Al  Al2       1.0  0.9994935984175157  0.1666570402896995  0.8333418728379415  1.0000
  C   C1        1.0  0.5000167677066328  0.45941073749023087  0.41872017704628217  1.0000
  C   C2        1.0  0.4999883757670601  0.459381168849852  0.540593183744953  1.0000
  C   C3        1.0  0.4999807532953398  0.5812756967805941  0.5406129187403153  1.0000
  C   C4        1.0  0.4994936522205578  0.2073455638653314  0.7927637313265735  1.0000
  C   C5        1.0  0.4994516183937918  0.0854002483490034  0.7926653876464158  1.0000
  C   C6        1.0  0.49954466409067777  0.20722260368307827  0.9145966046737967  1.0000
  C   C7        1.0  0.4997284733249074  0.23729460161186472  0.7628163943684855  1.0000
  C   C8        1.0  0.6064107155465592  0.21200645566456452  0.7098062675692917  1.0000
  C   C9        1.0  0.6089389806499667  0.23979866118717313  0.681862969337793  1.0000
  C   C10       1.0  0.49981138703607536  0.2932788093575239  0.7067866744569785  1.0000
  C   C11       1.0  0.3906200619512602  0.31822823072536727  0.7602648888331488  1.0000
  C   C12       1.0  0.39310260984591844  0.2903069444924426  0.7880799095805672  1.0000
  C   C13       1.0  0.49989503482221653  0.32125683542061273  0.6787752244214645  1.0000
  C   C14       1.0  0.4998798457036315  0.3454512231445578  0.6545618246897363  1.0000
  C   C15       1.0  0.49990393221866464  0.3734400626244749  0.6265615853845148  1.0000
  C   C16       1.0  0.3901343490929179  0.3485266724546606  0.5731123014806841  1.0000
  C   C17       1.0  0.39280659695729253  0.3764484201836423  0.5452989426638624  1.0000
  C   C18       1.0  0.5000042220860194  0.4294334943694693  0.5705446664784404  1.0000
  C   C19       1.0  0.6071653217554173  0.454688666778516  0.6235316945340017  1.0000
  C   C20       1.0  0.6097347666340764  0.42688601665953746  0.6514641587699828  1.0000
  C   C21       1.0  0.4996792589946111  0.025513513261699674  0.7627319692787752  1.0000
  C   C22       1.0  0.6063398692995249  0.9978026215002277  0.7880416454840715  1.0000
  C   C23       1.0  0.6088788621799422  0.9420740764899239  0.7602684461224741  1.0000
  C   C24       1.0  0.4998187887761886  0.9135177009154208  0.7067826137645882  1.0000
  C   C25       1.0  0.39067203793165106  0.9420330689718313  0.6818074711008961  1.0000
  C   C26       1.0  0.39310172824501427  0.9977626622487821  0.7097152683061765  1.0000
  C   C27       1.0  0.49991062276366444  0.8575354998134873  0.6788149747921681  1.0000
  C   C28       1.0  0.4999715341923263  0.809134117429615  0.6546237765718887  1.0000
  C   C29       1.0  0.5000112423196582  0.7531528996774101  0.6266193635168947  1.0000
  C   C30       1.0  0.39020698374001467  0.724591129296556  0.6515104001177862  1.0000
  C   C31       1.0  0.39282039835188703  0.6688628496753496  0.6235641799113126  1.0000
  C   C32       1.0  0.4999740036908448  0.6411652251066686  0.5705793365612878  1.0000
  C   C33       1.0  0.6071697100306962  0.6689198705534454  0.5453445955691976  1.0000
  C   C34       1.0  0.6098301964786613  0.7246476078533636  0.5731730352441391  1.0000
  C   C35       1.0  0.49981931135616964  0.2371568730117701  0.9744814846271909  1.0000
  C   C36       1.0  0.6065000759786371  0.2901685704917655  0.0022015464264412647  1.0000
  C   C37       1.0  0.6089652245747671  0.3181028094696359  0.057929865953212804  1.0000
  C   C38       1.0  0.4997948377774365  0.2931617481864849  0.08647458768599138  1.0000
  C   C39       1.0  0.39065573057674635  0.23967973731738826  0.05795060051082153  1.0000
  C   C40       1.0  0.3931542861386176  0.21188142707201515  0.0022226880256610766  1.0000
  C   C41       1.0  0.4998476859374533  0.32116552689532096  0.14245407561558213  1.0000
  C   C42       1.0  0.4998664939512167  0.3454037606350155  0.19085771953064076  1.0000
  C   C43       1.0  0.49992430740840615  0.3734204226618587  0.24684015459600767  1.0000
  C   C44       1.0  0.39011738469371693  0.4268676889015239  0.27535647702784166  1.0000
  C   C45       1.0  0.3928133365007227  0.4546928526297479  0.33108581453262087  1.0000
  C   C46       1.0  0.50005234947389  0.42945472613618574  0.3588350177036332  1.0000
  C   C47       1.0  0.6072659372837704  0.3764726965022406  0.33112811416314264  1.0000
  C   C48       1.0  0.6098290092427374  0.34853151704502494  0.27539922121403043  1.0000
  Cl  Cl1       1.0  0.736532839370689  0.147126607500546  0.6798464402556591  1.0000
  Cl  Cl2       1.0  0.262942303869977  0.3202935876252442  0.8529607859867384  1.0000
  Cl  Cl3       1.0  0.25334519082721135  0.382480664872311  0.7901465631732235  1.0000
  Cl  Cl4       1.0  0.7463042165445231  0.20988889818751502  0.6176142158317361  1.0000
  Cl  Cl5       1.0  0.25197141179272353  0.28432036052888077  0.5432612135058009  1.0000
  Cl  Cl6       1.0  0.747874346933159  0.45674684158589685  0.7156727535962163  1.0000
  Cl  Cl7       1.0  0.7376767978481522  0.5195519596568944  0.6534821326917212  1.0000
  Cl  Cl8       1.0  0.2623556415167343  0.3464899700837165  0.48043233657642054  1.0000
  Cl  Cl9       1.0  0.7364357808276623  0.03272804102855531  0.852925170847101  1.0000
  Cl  Cl10      1.0  0.26292031635083657  0.032645173900163985  0.6797074318420613  1.0000
  Cl  Cl11      1.0  0.253485115263345  0.907654700085935  0.6175462556126305  1.0000
  Cl  Cl12      1.0  0.7462025184918203  0.9077450963479311  0.7902040013526915  1.0000
  Cl  Cl13      1.0  0.2520578278797813  0.7589019100276175  0.71571631336505  1.0000
  Cl  Cl14      1.0  0.7480089109555125  0.7590293359687692  0.5433427260462338  1.0000
  Cl  Cl15      1.0  0.7376274500912814  0.6340451051887399  0.48048089042404735  1.0000
  Cl  Cl16      1.0  0.2623825366961796  0.6339166279764683  0.6534889747728699  1.0000
  Cl  Cl17      1.0  0.7366597228168744  0.3201439195989693  0.9672905487616035  1.0000
  Cl  Cl18      1.0  0.2631021076427729  0.14699279221229503  0.9673298626144559  1.0000
  Cl  Cl19      1.0  0.2534561046007013  0.20977688535342762  0.09231501632750393  1.0000
  Cl  Cl20      1.0  0.7462901763978635  0.38235721072086204  0.09227407510817903  1.0000
  Cl  Cl21      1.0  0.2519288222525802  0.45670489165080863  0.24098162196323608  1.0000
  Cl  Cl22      1.0  0.7480287492700982  0.28432647028451913  0.24108174740788976  1.0000
  Cl  Cl23      1.0  0.7377732856317892  0.34653748435736287  0.3660627208420877  1.0000
  Cl  Cl24      1.0  0.2623794572282633  0.5195610720928414  0.36596671198400793  1.0000
  O   O1        1.0  0.7370665967952091  0.5584492184507327  0.5499923217226838  1.0000
  O   O2        1.0  0.7370724014113749  0.4916213240790128  0.4415413647897779  1.0000
  O   O3        1.0  0.7370523057735453  0.4499977431263817  0.5083848542592052  1.0000
  O   O4        1.0  0.262909151792087  0.5584652155511024  0.5084013621983986  1.0000
  O   O5        1.0  0.2629243096909022  0.49158944256956977  0.5499824164892431  1.0000
  O   O6        1.0  0.2629023523563916  0.45001985731709493  0.44153438505932036  1.0000
  O   O7        1.0  0.7365912184546275  0.1750033077668434  0.8917523495775228  1.0000
  O   O8        1.0  0.736521989804814  0.21671613153483793  0.8249861790909847  1.0000
  O   O9        1.0  0.7364605253986909  0.10825128237001996  0.783290220512761  1.0000
  O   O10       1.0  0.2624377636250729  0.2166307863011739  0.8918065054437535  1.0000
  O   O11       1.0  0.2623267110450058  0.10818812659164924  0.8248583656010311  1.0000
  O   O12       1.0  0.2623537680550711  0.1751509280336662  0.783362352296713  1.0000
