data_image0
_chemical_formula_structural       Sm4H44C16S6N4O40
_chemical_formula_sum              "Sm4 H44 C16 S6 N4 O40"
_cell_length_a       6.587401023314634
_cell_length_b       12.556976199581399
_cell_length_c       13.447391250958926
_cell_angle_alpha    79.53132792645094
_cell_angle_beta     75.82045118883624
_cell_angle_gamma    74.79314112112512

_space_group_name_H-M_alt    "P 1"
_space_group_IT_number       1

loop_
  _space_group_symop_operation_xyz
  'x, y, z'

loop_
  _atom_site_type_symbol
  _atom_site_label
  _atom_site_symmetry_multiplicity
  _atom_site_fract_x
  _atom_site_fract_y
  _atom_site_fract_z
  _atom_site_occupancy
  Sm  Sm1       1.0  0.779887322600587  0.9501918512511693  0.36789608628448894  1.0000
  Sm  Sm2       1.0  0.09797912001204183  0.5497724663940531  0.1320765679650506  1.0000
  Sm  Sm3       1.0  0.22011389688169913  0.0498076522195419  0.6321037699857968  1.0000
  Sm  Sm4       1.0  0.9020209884214838  0.45022786892334205  0.8679239349048656  1.0000
  H   H1        1.0  0.9539645703952855  0.135020363123175  0.23901789131195977  1.0000
  H   H2        1.0  0.32782863531497247  0.3650392815736296  0.2610336004855824  1.0000
  H   H3        1.0  0.04603628168747778  0.8649799721942272  0.7609818679087256  1.0000
  H   H4        1.0  0.672171582531114  0.6349610537437655  0.7389652272406267  1.0000
  H   H5        1.0  0.7212763190353401  0.1701084882195829  0.22097415248883584  1.0000
  H   H6        1.0  0.1122675173023211  0.3298854405889671  0.2790522964170776  1.0000
  H   H7        1.0  0.2787245330474163  0.8298918470978123  0.7790256067318424  1.0000
  H   H8        1.0  0.8877337021799648  0.6701140628817512  0.720947559853208  1.0000
  H   H9        1.0  0.861379082115249  0.8175489059589012  0.1819200725202563  1.0000
  H   H10       1.0  0.8607216456414335  0.6825060829751806  0.31807723557976425  1.0000
  H   H11       1.0  0.1386193815952125  0.18245059751180995  0.8180794080595462  1.0000
  H   H12       1.0  0.13928132797647658  0.3174942523422146  0.6819219678369209  1.0000
  H   H13       1.0  0.4645044481863327  0.6426498126699656  0.4180105413344464  1.0000
  H   H14       1.0  0.5250637114502722  0.8574592462987596  0.0820416782125193  1.0000
  H   H15       1.0  0.5354964038964312  0.35735052264742956  0.581989217886239  1.0000
  H   H16       1.0  0.4749371406324911  0.1425410890186427  0.9179580810081661  1.0000
  H   H17       1.0  0.29404040177511365  0.7092008750016631  0.6273048638113323  1.0000
  H   H18       1.0  0.6305590987499696  0.7907384872429546  0.872810606243462  1.0000
  H   H19       1.0  0.7059608177071723  0.290798628469048  0.37269499245895327  1.0000
  H   H20       1.0  0.36944349861823167  0.20926101622775659  0.12718943787206174  1.0000
  H   H21       1.0  0.14658531502306713  0.7537362829201939  0.5256314685590695  1.0000
  H   H22       1.0  0.4258477963333222  0.7462687952126856  0.9744118707808623  1.0000
  H   H23       1.0  0.8534147934104582  0.24626405239720833  0.4743690343108469  1.0000
  H   H24       1.0  0.5741530557494414  0.2537315401047167  0.025587888439822782  1.0000
  H   H25       1.0  0.5470340520240313  0.5368588784279851  0.6266579691083792  1.0000
  H   H26       1.0  0.7106191582141437  0.9630422188690346  0.8733747540425654  1.0000
  H   H27       1.0  0.4529650459231079  0.4631406250427261  0.3733424429659067  1.0000
  H   H28       1.0  0.2893824375178512  0.0369581164483606  0.1266242615288817  1.0000
  H   H29       1.0  0.7124484424327444  0.6165872241254675  0.5349254965026234  1.0000
  H   H30       1.0  0.8639292999554019  0.8832814311507703  0.9651570532648818  1.0000
  H   H31       1.0  0.28755028811487193  0.3834131111919348  0.465074818522055  1.0000
  H   H32       1.0  0.13607266317612243  0.11671807231994077  0.0348420593561656  1.0000
  H   H33       1.0  0.1419413840548459  0.5902650994146796  0.4660417982334124  1.0000
  H   H34       1.0  0.19818493891922645  0.9097865621326591  0.033920381783247  1.0000
  H   H35       1.0  0.8580587243786794  0.4097352359027155  0.5339587046365111  1.0000
  H   H36       1.0  0.8018159131635373  0.0902137731847432  0.9660793774374383  1.0000
  H   H37       1.0  0.19913743868040973  0.5238313274658282  0.5893010860456229  1.0000
  H   H38       1.0  0.3122159073298856  0.9762203340815104  0.9106745624830098  1.0000
  H   H39       1.0  0.8008630371526452  0.476168176004883  0.41069951387390097  1.0000
  H   H40       1.0  0.6877843105162  0.0237800012358917  0.08932426524319939  1.0000
  H   H41       1.0  0.6110636739856758  0.8617108147150532  0.22217072058933246  1.0000
  H   H42       1.0  0.6948370642416678  0.638320050665115  0.2778232994863714  1.0000
  H   H43       1.0  0.3889340460755478  0.138288688755658  0.7778295036397154  1.0000
  H   H44       1.0  0.3051630441918575  0.3616802846522873  0.722177203383545  1.0000
  C   C1        1.0  0.4334391400086943  0.813508626601056  0.4956724182307894  1.0000
  C   C2        1.0  0.7425981011635089  0.6864773190580209  0.004418895253969905  1.0000
  C   C3        1.0  0.5665592231393859  0.1864925405630302  0.5043277997442885  1.0000
  C   C4        1.0  0.25740099678363054  0.3135221844126903  0.9955815168203088  1.0000
  C   C5        1.0  0.30811957649732585  0.7245184998926177  0.543110339609342  1.0000
  C   C6        1.0  0.5756730455556536  0.7754765960800185  0.9569982914926882  1.0000
  C   C7        1.0  0.6918791540502912  0.2754818354247845  0.45688997541533644  1.0000
  C   C8        1.0  0.4243288081633168  0.2245229073906927  0.0430024962720736  1.0000
  C   C9        1.0  0.6084698771787631  0.5588462500537971  0.543946001871376  1.0000
  C   C10       1.0  0.7112817867973008  0.9411005988110048  0.9560878035144498  1.0000
  C   C11       1.0  0.3915305986542921  0.4411532534169139  0.4560545980481479  1.0000
  C   C12       1.0  0.2887190652854628  0.058899736506397495  0.0439119557062355  1.0000
  C   C13       1.0  0.2692095741943559  0.5440219102481265  0.5072857083033497  1.0000
  C   C14       1.0  0.32046296293673004  0.9560372379193963  0.9927032300918199  1.0000
  C   C15       1.0  0.7307910110512527  0.4559775932225847  0.49271321647246685  1.0000
  C   C16       1.0  0.6795378891460331  0.0439630973980059  0.0072965291288653875  1.0000
  S   S1        1.0  0.7866781240915937  0.9117755075608257  0.6420509271221277  1.0000
  S   S2        1.0  0.3405602397844729  0.5882495348925332  0.8578989029922255  1.0000
  S   S3        1.0  0.21332272799116941  0.0882248277565765  0.3579488320985504  1.0000
  S   S4        1.0  0.6594389675752269  0.41174996857817797  0.14209983393834588  1.0000
  S   S5        1.0  0.26209971218499106  0.7499680174289337  0.2499486492973162  1.0000
  S   S6        1.0  0.7379008730606179  0.2500314860417774  0.7500502754784931  1.0000
  N   N1        1.0  0.4176651443292057  0.6190195438377017  0.4978076759810293  1.0000
  N   N2        1.0  0.5344140212942321  0.8810104896957753  0.002234558668199275  1.0000
  N   N3        1.0  0.5823345967047899  0.3809816233263845  0.5021927298392868  1.0000
  N   N4        1.0  0.4655875744377624  0.118989845621627  0.9977644569032478  1.0000
  O   O1        1.0  0.5918835086171231  0.7935468016576336  0.4205614701995088  1.0000
  O   O2        1.0  0.8062066979753126  0.70646243570868  0.07944384172551368  1.0000
  O   O3        1.0  0.4081169672159247  0.2064527018130775  0.5794391297200151  1.0000
  O   O4        1.0  0.19379266680897445  0.2935378996087223  0.9205574047936408  1.0000
  O   O5        1.0  0.36984369641055564  0.9040002365791934  0.5336493130641173  1.0000
  O   O6        1.0  0.8072619655722165  0.5959848772331995  0.9664633997863632  1.0000
  O   O7        1.0  0.630156779422492  0.0959992668915177  0.4663512868554066  1.0000
  O   O8        1.0  0.19273665556283961  0.40401545808420275  0.03353859038202961  1.0000
  O   O9        1.0  0.8227046072290277  0.8672284537886767  0.5422370973011681  1.0000
  O   O10       1.0  0.23216490808736298  0.6328040752848665  0.9577061759927902  1.0000
  O   O11       1.0  0.17729661225325796  0.1327710496820345  0.4577627589691176  1.0000
  O   O12       1.0  0.7678349335090148  0.3671954281858518  0.04229349243225761  1.0000
  O   O13       1.0  0.87021391220803  0.8195320284602587  0.7196707528982386  1.0000
  O   O14       1.0  0.4095405209702533  0.680485527372916  0.7802975853851706  1.0000
  O   O15       1.0  0.1297904304456097  0.1804666431637614  0.2803295761121305  1.0000
  O   O16       1.0  0.590458200727177  0.3195131442511112  0.2197036673879538  1.0000
  O   O17       1.0  0.5544446674835299  0.9566594592411306  0.6821950340942706  1.0000
  O   O18       1.0  0.19338946661469686  0.5433622558254854  0.8177294247164185  1.0000
  O   O19       1.0  0.4455554320998091  0.0433392123828966  0.3178064065240918  1.0000
  O   O20       1.0  0.806611009218358  0.4566372476452329  0.18227117520310543  1.0000
  O   O21       1.0  0.9024092753020131  0.0018666639652025  0.6283565223482626  1.0000
  O   O22       1.0  0.5326991562991736  0.49815388393731996  0.8716314587667142  1.0000
  O   O23       1.0  0.09758982264512624  0.9981328395055087  0.3716438897260232  1.0000
  O   O24       1.0  0.4673003178976743  0.501846451380075  0.128368112608733  1.0000
  O   O25       1.0  0.8398964023394414  0.1034417991984213  0.2255820280639256  1.0000
  O   O26       1.0  0.16872114026116952  0.39658789901766056  0.274458983916773  1.0000
  O   O27       1.0  0.16010444974331514  0.8965585361189738  0.7744177311567526  1.0000
  O   O28       1.0  0.8312775902864475  0.6034124362997417  0.7255413311079053  1.0000
  O   O29       1.0  0.753488616080837  0.8804065690011526  0.2107757911222592  1.0000
  O   O30       1.0  0.844577762313577  0.6196700479467907  0.28917681985761595  1.0000
  O   O31       1.0  0.24650836033115542  0.1195929344695656  0.7892251767560197  1.0000
  O   O32       1.0  0.15542345716870895  0.38032945552392045  0.7108230364126698  1.0000
  O   O33       1.0  0.07012657330547258  0.7801939986409323  0.3351146643568441  1.0000
  O   O34       1.0  0.18579368152967388  0.71980026548502  0.1646708014246272  1.0000
  O   O35       1.0  0.9298718904049891  0.219805504829786  0.6648848162229655  1.0000
  O   O36       1.0  0.8142069037159346  0.2801992379856912  0.8353281233511822  1.0000
  O   O37       1.0  0.36346283252999007  0.8460587874560017  0.20881188010857704  1.0000
  O   O38       1.0  0.4181404074719809  0.6538231773672223  0.2912244632619903  1.0000
  O   O39       1.0  0.6365355306180907  0.1539423797080843  0.791188337866501  1.0000
  O   O40       1.0  0.581861555659536  0.3461763261034889  0.7087746493590643  1.0000
