data_image0
_chemical_formula_structural       H24Pb2C38S2N2O12
_chemical_formula_sum              "H24 Pb2 C38 S2 N2 O12"
_cell_length_a       7.757780502688378
_cell_length_b       10.477300177442919
_cell_length_c       12.133246450956976
_cell_angle_alpha    110.84555853568183
_cell_angle_beta     94.85526256259352
_cell_angle_gamma    106.10412452575038

_space_group_name_H-M_alt    "P 1"
_space_group_IT_number       1

loop_
  _space_group_symop_operation_xyz
  'x, y, z'

loop_
  _atom_site_type_symbol
  _atom_site_label
  _atom_site_symmetry_multiplicity
  _atom_site_fract_x
  _atom_site_fract_y
  _atom_site_fract_z
  _atom_site_occupancy
  H   H1        1.0  0.722880759288735  0.0936348239046438  0.23880056217412723  1.0000
  H   H2        1.0  0.277203193669976  0.9063884927555105  0.7611665116582528  1.0000
  H   H3        1.0  0.6048830941869525  0.9079490790252364  0.31830992517971884  1.0000
  H   H4        1.0  0.395179119396566  0.09206843033086189  0.6816468442897659  1.0000
  H   H5        1.0  0.4789429800777683  0.23375412106142324  0.6072450143821584  1.0000
  H   H6        1.0  0.521279146802982  0.7663008169062948  0.39277343065247555  1.0000
  H   H7        1.0  0.6061193123799383  0.40567116375142825  0.5165775297478774  1.0000
  H   H8        1.0  0.39407992057953567  0.5943683931255703  0.4834375602193148  1.0000
  H   H9        1.0  0.2811709166082323  0.4984982523580966  0.18661883333426488  1.0000
  H   H10       1.0  0.7188502258683444  0.5013959294935262  0.8132879589112749  1.0000
  H   H11       1.0  0.07459298835436802  0.6067503463925019  0.10879020339230995  1.0000
  H   H12       1.0  0.9253633053505297  0.3931463867200974  0.8911428069501639  1.0000
  H   H13       1.0  0.5346053848989242  0.8655079093594434  0.019330830313847896  1.0000
  H   H14       1.0  0.4653925472467649  0.134607099408754  0.9807977973092862  1.0000
  H   H15       1.0  0.7335485438633211  0.740368042866862  0.08210855587233101  1.0000
  H   H16       1.0  0.2664480739378732  0.2596759846399691  0.9179088037570297  1.0000
  H   H17       1.0  0.0013979421159504189  0.803985358391685  0.2186550805959229  1.0000
  H   H18       1.0  0.9984427278859868  0.19597537641836738  0.7813117367833943  1.0000
  H   H19       1.0  0.9848540299127109  0.9893669007941099  0.40806667822684534  1.0000
  H   H20       1.0  0.015015954655673599  0.0105924347950079  0.5919251562491894  1.0000
  H   H21       1.0  0.2661694988245671  0.3271351573477546  0.29814586306697083  1.0000
  H   H22       1.0  0.7336357502946953  0.672833897931646  0.7018446805697992  1.0000
  H   H23       1.0  0.2868666163505296  0.14176618560644977  0.1080128718189854  1.0000
  H   H24       1.0  0.7129205817467577  0.8582163312386084  0.8919618198259087  1.0000
  Pb  Pb1       1.0  0.8818135030778436  0.4540880642962221  0.3150991426206603  1.0000
  Pb  Pb2       1.0  0.11831409038129685  0.545996329753791  0.6849042565685722  1.0000
  C   C1        1.0  0.6689257665048701  0.1204825832144394  0.3211857811141883  1.0000
  C   C2        1.0  0.3311787368665478  0.8795499162703918  0.6788065622759448  1.0000
  C   C3        1.0  0.601527570808159  0.016474220082614004  0.3667989960843629  1.0000
  C   C4        1.0  0.3985723921366784  0.9835633638406165  0.6331765065565094  1.0000
  C   C5        1.0  0.5339200474102269  0.05327869976172649  0.4732879617803932  1.0000
  C   C6        1.0  0.46617966669218447  0.9467385447245743  0.5266888254311581  1.0000
  C   C7        1.0  0.5330503689014064  0.19607713296317536  0.5263368648834685  1.0000
  C   C8        1.0  0.467115353851149  0.8039726059359038  0.473676236545522  1.0000
  C   C9        1.0  0.6033630158923488  0.2940005399463104  0.4755629664442439  1.0000
  C   C10       1.0  0.39679699643880173  0.7060446894499178  0.5244385882158369  1.0000
  C   C11       1.0  0.6466834296345708  0.5540673326051291  0.18976894924141874  1.0000
  C   C12       1.0  0.35333373300071014  0.4459208994122577  0.8102145643249515  1.0000
  C   C13       1.0  0.5208916030031645  0.6180637305300037  0.14375745611501856  1.0000
  C   C14       1.0  0.47910113125417547  0.3819185422861934  0.8562065000825997  1.0000
  C   C15       1.0  0.33560692254466323  0.5798861975825389  0.15113586285966826  1.0000
  C   C16       1.0  0.6643832783673888  0.4200371289919076  0.8488283558489658  1.0000
  C   C17       1.0  0.22061780784842702  0.6404892202715684  0.10849523167217967  1.0000
  C   C18       1.0  0.7793804427666088  0.35946754841989287  0.8914786476562712  1.0000
  C   C19       1.0  0.29628311523936895  0.7443195388628253  0.06318653794176037  1.0000
  C   C20       1.0  0.7036850608714005  0.2556912925566195  0.9368671473656676  1.0000
  C   C21       1.0  0.4804712813019875  0.783866303397026  0.0547186701974809  1.0000
  C   C22       1.0  0.5195356631747926  0.21619673941044937  0.9453527571487543  1.0000
  C   C23       1.0  0.591672342561253  0.717235678293626  0.09254390032005226  1.0000
  C   C24       1.0  0.40834926778659036  0.2827830823997529  0.9074787046333698  1.0000
  C   C25       1.0  0.14431437963463625  0.9631980793164914  0.15207155194998734  1.0000
  C   C26       1.0  0.8555877386689018  0.03678344211123629  0.8479434779127147  1.0000
  C   C27       1.0  0.0597709464821889  0.9183527843005378  0.2358163975264631  1.0000
  C   C28       1.0  0.9401024410778405  0.08161193018180059  0.7641731126970939  1.0000
  C   C29       1.0  0.04946794277694979  0.022783921694390596  0.34211855657228096  1.0000
  C   C30       1.0  0.9503873295956282  0.9771839015032527  0.6578849518228865  1.0000
  C   C31       1.0  0.12042801893905157  0.17018268608870094  0.3640128339947708  1.0000
  C   C32       1.0  0.8794775887404356  0.8297848356190939  0.6359915722253009  1.0000
  C   C33       1.0  0.2065636314554666  0.2126988056274328  0.2798277311252876  1.0000
  C   C34       1.0  0.7932785252407156  0.7872719362926828  0.7201677262332424  1.0000
  C   C35       1.0  0.2202448791279892  0.1091894961607238  0.17358713952833682  1.0000
  C   C36       1.0  0.779598406838403  0.8907842894673333  0.8263928084685118  1.0000
  C   C37       1.0  0.10224379315692998  0.28157751345176507  0.4769606700524847  1.0000
  C   C38       1.0  0.8977317875222397  0.7183999004321677  0.5230660388058724  1.0000
  S   S1        1.0  0.15445201621979981  0.8290667230557957  0.01511478888530597  1.0000
  S   S2        1.0  0.845521137645072  0.1709243986756377  0.9848969606180307  1.0000
  N   N1        1.0  0.6731708804107087  0.2581612637129068  0.3753176681657351  1.0000
  N   N2        1.0  0.3269400207004978  0.741858197613581  0.6246513057635426  1.0000
  O   O1        1.0  0.8030575445954539  0.5717232642855022  0.16278913571740364  1.0000
  O   O2        1.0  0.1969566366377009  0.4282769050911455  0.8372110012788527  1.0000
  O   O3        1.0  0.5912735941665872  0.4862590117871689  0.2574483141615076  1.0000
  O   O4        1.0  0.4087554242470545  0.513749075796099  0.7425681703416133  1.0000
  O   O5        1.0  0.05103470426590919  0.24866176448330884  0.5616278905008301  1.0000
  O   O6        1.0  0.9489198917515933  0.7513216193259564  0.4383871521176276  1.0000
  O   O7        1.0  0.14079487970333557  0.412586393111347  0.4811798019254639  1.0000
  O   O8        1.0  0.8592800267235035  0.5874130812310837  0.5188645182497781  1.0000
  O   O9        1.0  0.9720225014664551  0.7233609609675965  0.9616660984416684  1.0000
  O   O10       1.0  0.028012100989258194  0.27661898572485905  0.038319132499189806  1.0000
  O   O11       1.0  0.24841714149333427  0.9011655189127195  0.943610594764003  1.0000
  O   O12       1.0  0.7516052120570079  0.09887422616401408  0.0564636957019502  1.0000
