data_image0
_chemical_formula_structural       Cd2H36C36Br4N12
_chemical_formula_sum              "Cd2 H36 C36 Br4 N12"
_cell_length_a       7.745860719264505
_cell_length_b       8.509864508100286
_cell_length_c       16.71396542106484
_cell_angle_alpha    90.00030983246216
_cell_angle_beta     89.99995472229223
_cell_angle_gamma    113.12447048316437

_space_group_name_H-M_alt    "P 1"
_space_group_IT_number       1

loop_
  _space_group_symop_operation_xyz
  'x, y, z'

loop_
  _atom_site_type_symbol
  _atom_site_label
  _atom_site_symmetry_multiplicity
  _atom_site_fract_x
  _atom_site_fract_y
  _atom_site_fract_z
  _atom_site_occupancy
  Cd  Cd1       1.0  0.9999993884132576  2.843928484700664e-06  0.9999998172227648  1.0000
  Cd  Cd2       1.0  8.193292445168758e-07  0.4999980185921871  0.4999993327706491  1.0000
  H   H1        1.0  0.5191266900415954  0.3357537692111805  0.5556183671422374  1.0000
  H   H2        1.0  0.48087073677133657  0.16424392420446307  0.0556188973921579  1.0000
  H   H3        1.0  0.4808726555539806  0.6642412786934601  0.4443813122209548  1.0000
  H   H4        1.0  0.5191282766867145  0.8357562528484266  0.9443807819781895  1.0000
  H   H5        1.0  0.5513510820415634  0.8678792730640695  0.6232870606097194  1.0000
  H   H6        1.0  0.4486495559971928  0.632122161647878  0.1232863171748946  1.0000
  H   H7        1.0  0.4486542006218456  0.13212342308709424  0.3767144136691556  1.0000
  H   H8        1.0  0.5513481704076497  0.3678780245058206  0.8767139604977672  1.0000
  H   H9        1.0  0.8962392844738502  0.08908716575562178  0.5631607511638492  1.0000
  H   H10       1.0  0.10375872826958946  0.41091189421412366  0.06315970839217752  1.0000
  H   H11       1.0  0.10376431671137007  0.9109116971802821  0.43684072311003064  1.0000
  H   H12       1.0  0.8962395586279824  0.5890895696780021  0.936840569282147  1.0000
  H   H13       1.0  0.21401296056863828  0.8859066745502915  0.596855956944907  1.0000
  H   H14       1.0  0.7859871938958776  0.6140906065820602  0.0968562369231449  1.0000
  H   H15       1.0  0.7859882325769121  0.1140896420060571  0.40314551732589615  1.0000
  H   H16       1.0  0.21401125906944427  0.3859082927324167  0.9031434424455398  1.0000
  H   H17       1.0  0.2187864948386746  0.09209159176204201  0.5823083400818875  1.0000
  H   H18       1.0  0.7812141565995174  0.40790767551545304  0.0823082379519562  1.0000
  H   H19       1.0  0.781216545852807  0.9079059934319104  0.4176925358882642  1.0000
  H   H20       1.0  0.21878485685853377  0.5920925015374365  0.9176914414183912  1.0000
  H   H21       1.0  0.40144678491937213  0.060360686145990904  0.8962642790989934  1.0000
  H   H22       1.0  0.598548656287768  0.4396397594286938  0.3962637332170544  1.0000
  H   H23       1.0  0.5985502149259998  0.939640786850461  0.10373719517971132  1.0000
  H   H24       1.0  0.40145035717028327  0.560360417624203  0.6037359461533001  1.0000
  H   H25       1.0  0.5092608239074677  0.06631774783058121  0.7555555883470293  1.0000
  H   H26       1.0  0.49073470318364076  0.43368231839202304  0.2555556637010241  1.0000
  H   H27       1.0  0.49073762906088086  0.9336811514944615  0.24444588592784558  1.0000
  H   H28       1.0  0.5092622966587043  0.5663191545938631  0.7444440156714833  1.0000
  H   H29       1.0  0.8670630146763115  0.9982228477263321  0.8240354745340853  1.0000
  H   H30       1.0  0.1329340449009564  0.5017771361388128  0.32403568255943344  1.0000
  H   H31       1.0  0.1329352722192496  0.0017786161587451997  0.1759636065361079  1.0000
  H   H32       1.0  0.8670644080643654  0.498221763175657  0.6759639968092515  1.0000
  H   H33       1.0  0.9466691155024164  0.9840489436467693  0.6799146444270505  1.0000
  H   H34       1.0  0.053330260421688556  0.5159557316397854  0.1799161173713131  1.0000
  H   H35       1.0  0.05333286648703249  0.015955057520578495  0.3200844366459777  1.0000
  H   H36       1.0  0.9466711610760324  0.4840469917926598  0.8200835620021181  1.0000
  C   C1        1.0  0.5792612503510027  0.24242988213323713  0.5676058072184775  1.0000
  C   C2        1.0  0.42073806444192713  0.25756922109501784  0.06760601930246682  1.0000
  C   C3        1.0  0.4207392162290162  0.757567721244719  0.4323932738459817  1.0000
  C   C4        1.0  0.5792633570537832  0.7424335023303855  0.9323924634668401  1.0000
  C   C5        1.0  0.5981457596611436  0.9985394293865327  0.6026027338339476  1.0000
  C   C6        1.0  0.4018559295953421  0.5014643172091553  0.1026022443797885  1.0000
  C   C7        1.0  0.40185655446884977  0.0014594426431316016  0.39739814213811553  1.0000
  C   C8        1.0  0.5981436443574564  0.4985371375892029  0.8973986315963529  1.0000
  C   C9        1.0  0.7681318614736271  0.10912210167386151  0.5732350124342602  1.0000
  C   C10       1.0  0.2318706069044509  0.390878327380598  0.0732332691098989  1.0000
  C   C11       1.0  0.23187358726055854  0.8908780299102189  0.426767658445165  1.0000
  C   C12       1.0  0.7681284065536006  0.6091218496722989  0.9267664102604556  1.0000
  C   C13       1.0  0.235846057268482  0.025575822598924002  0.7053353033693954  1.0000
  C   C14       1.0  0.7641517084705284  0.4744261985739868  0.2053359897774385  1.0000
  C   C15       1.0  0.7641542432458053  0.9744243453637296  0.2946655726048348  1.0000
  C   C16       1.0  0.23584529137282562  0.5255752744154164  0.7946642878971346  1.0000
  C   C17       1.0  0.2808157849445223  0.0187182137046236  0.6180196808256115  1.0000
  C   C18       1.0  0.7191829733315342  0.48128277006799186  0.11801920603661392  1.0000
  C   C19       1.0  0.7191859686937504  0.981279380590145  0.3819817934468547  1.0000
  C   C20       1.0  0.2808153135650285  0.5187186938206095  0.881980473335652  1.0000
  C   C21       1.0  0.3049864558429647  0.04666921740810889  0.8464711868640579  1.0000
  C   C22       1.0  0.6950130729989112  0.4533344567853915  0.3464706435967528  1.0000
  C   C23       1.0  0.6950131181108432  0.9533322373937738  0.1535302874141493  1.0000
  C   C24       1.0  0.3049872275143671  0.5466657111737449  0.6535296340754118  1.0000
  C   C25       1.0  0.36423177611724356  0.04815074915898519  0.7675144513734012  1.0000
  C   C26       1.0  0.6357669259102038  0.4518507174372032  0.2675133273608026  1.0000
  C   C27       1.0  0.6357666768501034  0.9518481501625333  0.2324864245994149  1.0000
  C   C28       1.0  0.36423264803956806  0.5481507373505894  0.7324857537091489  1.0000
  C   C29       1.0  0.006691123824801099  0.009071629873794503  0.8058847706088913  1.0000
  C   C30       1.0  0.9933065866430933  0.49092773313448396  0.305885418896537  1.0000
  C   C31       1.0  0.9933073291405207  0.9909272694406753  0.19411490875979348  1.0000
  C   C32       1.0  0.0066918663222281785  0.5090711661799858  0.6941142604721477  1.0000
  C   C33       1.0  0.0527478042643139  0.004341693997687901  0.7259372407207252  1.0000
  C   C34       1.0  0.947251484086898  0.49565799612455663  0.22593732062697566  1.0000
  C   C35       1.0  0.9472508147697737  0.9956546407426572  0.2740624386443784  1.0000
  C   C36       1.0  0.05274937691709176  0.5043434495659512  0.7740617604427271  1.0000
  Br  Br1       1.0  0.7987612083785791  0.1953175171254387  0.9549183376247897  1.0000
  Br  Br2       1.0  0.20123957888392138  0.3046835828107106  0.4549169653677866  1.0000
  Br  Br3       1.0  0.2012435760714837  0.8046928727234431  0.045078948550376204  1.0000
  Br  Br4       1.0  0.7987580852254011  0.6953076318504828  0.5450779275739067  1.0000
  N   N1        1.0  0.7542474952959209  0.2602402784655879  0.5516197670341256  1.0000
  N   N2        1.0  0.24575232606790817  0.23975991423370147  0.0516193955189479  1.0000
  N   N3        1.0  0.24575224472564358  0.7397586117586455  0.4483811089384417  1.0000
  N   N4        1.0  0.7542472478828727  0.7602415405576081  0.9483802838530695  1.0000
  N   N5        1.0  0.4796448385459797  0.08487241228181831  0.598582098543197  1.0000
  N   N6        1.0  0.5203551412212306  0.4151283334808795  0.0985815134430368  1.0000
  N   N7        1.0  0.5203569150912912  0.9151251820094188  0.40141877742721027  1.0000
  N   N8        1.0  0.4796438722358117  0.5848718435684858  0.901417567625252  1.0000
  N   N9        1.0  0.12986706846552204  0.0289084854891257  0.865629424681913  1.0000
  N   N10       1.0  0.870129556466601  0.47109159021555064  0.3656300631267441  1.0000
  N   N11       1.0  0.8701313845008086  0.9710904138288684  0.1343708529888374  1.0000
  N   N12       1.0  0.12986962306122507  0.5289060222667387  0.6343702145420879  1.0000
