data_image0
_chemical_formula_structural       Zn12H96C144I24N48
_chemical_formula_sum              "Zn12 H96 C144 I24 N48"
_cell_length_a       14.645866931500395
_cell_length_b       18.310474129465177
_cell_length_c       34.30107292789798
_cell_angle_alpha    93.28584286554417
_cell_angle_beta     102.30643598091812
_cell_angle_gamma    113.57289907128393

_space_group_name_H-M_alt    "P 1"
_space_group_IT_number       1

loop_
  _space_group_symop_operation_xyz
  'x, y, z'

loop_
  _atom_site_type_symbol
  _atom_site_label
  _atom_site_symmetry_multiplicity
  _atom_site_fract_x
  _atom_site_fract_y
  _atom_site_fract_z
  _atom_site_occupancy
  Zn  Zn1       1.0  0.14045275851590594  0.17357948279346402  0.9482807257304983  1.0000
  Zn  Zn2       1.0  0.039022919117925985  0.2706493312982659  0.5743525558787608  1.0000
  Zn  Zn3       1.0  0.4412112980337355  0.4337574958839383  0.7610655919282293  1.0000
  Zn  Zn4       1.0  0.4820275311750209  0.6736697636035417  0.44841897103613343  1.0000
  Zn  Zn5       1.0  0.3060238337505795  0.7707444656679672  0.07438501409607311  1.0000
  Zn  Zn6       1.0  0.253494122768565  0.933649957445823  0.2610353707498305  1.0000
  Zn  Zn7       1.0  0.5179748605001251  0.3263338633474362  0.5515823370354553  1.0000
  Zn  Zn8       1.0  0.6939708625136802  0.229250129612268  0.9256144051893498  1.0000
  Zn  Zn9       1.0  0.7465060763876821  0.06634706115888633  0.738963756257469  1.0000
  Zn  Zn10      1.0  0.859550184538925  0.8264187228058617  0.05171956555212631  1.0000
  Zn  Zn11      1.0  0.9609746728878577  0.7293518875669279  0.4256482338244112  1.0000
  Zn  Zn12      1.0  0.5587915084877724  0.5662443180659981  0.2389356894045847  1.0000
  H   H1        1.0  0.16868104472388273  0.2039880785126655  0.8658369898761862  1.0000
  H   H2        1.0  0.09331753094366488  0.2565244507921348  0.8069615619060426  1.0000
  H   H3        1.0  0.906478995631481  0.3016732451924966  0.8788323510782232  1.0000
  H   H4        1.0  0.9905808840605773  0.24945960497881722  0.9346788586564684  1.0000
  H   H5        1.0  0.8710115139926276  0.3046698760454163  0.6001150433327281  1.0000
  H   H6        1.0  0.8287116307474636  0.33066691917677105  0.6644701585943692  1.0000
  H   H7        1.0  0.1209125888747664  0.3364501788357614  0.7284825715265695  1.0000
  H   H8        1.0  0.1553758192529742  0.3161621540966522  0.6612100756326454  1.0000
  H   H9        1.0  0.5810456972244109  0.4393679292219162  0.7108368254045485  1.0000
  H   H10       1.0  0.7372882408760475  0.41143547230667815  0.712664715032538  1.0000
  H   H11       1.0  0.7327627877102358  0.35739842122398363  0.8334374267023037  1.0000
  H   H12       1.0  0.5757029476060964  0.3846150533302365  0.8261249594375073  1.0000
  H   H13       1.0  0.842889965935072  0.15604452537475316  0.514839110970456  1.0000
  H   H14       1.0  0.6980851210663274  0.16376791442635863  0.4623580503639458  1.0000
  H   H15       1.0  0.8447074766025366  0.4221149258047562  0.4985060937547415  1.0000
  H   H16       1.0  0.9885497853877824  0.4046188576343824  0.5467056356923478  1.0000
  H   H17       1.0  0.2247371201451571  0.07482915520062512  0.3027976125299361  1.0000
  H   H18       1.0  0.33539985915076903  0.19816748491216177  0.3553624933513717  1.0000
  H   H19       1.0  0.5913253529565453  0.1372246826312704  0.3565782763341474  1.0000
  H   H20       1.0  0.4710713792895476  0.0170746750747881  0.30347209913084316  1.0000
  H   H21       1.0  0.4281959231635214  0.5400166205620637  0.38360680350474746  1.0000
  H   H22       1.0  0.46342212780378833  0.4183004576809566  0.3713170706241513  1.0000
  H   H23       1.0  0.6456542790054982  0.4783192526989027  0.49503782552163483  1.0000
  H   H24       1.0  0.6052684225079333  0.5996898539602498  0.5019619001302756  1.0000
  H   H25       1.0  0.4013321281305196  0.7037639971330308  0.3659589914184735  1.0000
  H   H26       1.0  0.4699949334853031  0.7561639998903473  0.3069672691063444  1.0000
  H   H27       1.0  0.774013605641201  0.8012743223416762  0.37852148609742636  1.0000
  H   H28       1.0  0.6939920168954006  0.7494246386348282  0.4345329967792964  1.0000
  H   H29       1.0  0.5337126700538519  0.8046772207048607  0.10006696759480598  1.0000
  H   H30       1.0  0.6665405885576163  0.8309563301346261  0.16437764735358934  1.0000
  H   H31       1.0  0.44407519356312264  0.8363207447005935  0.22850487013674578  1.0000
  H   H32       1.0  0.3219812087283672  0.8160639128850776  0.16127216953118756  1.0000
  H   H33       1.0  0.0693150911547208  0.9393167375526233  0.2108391853182923  1.0000
  H   H34       1.0  0.8869383922259004  0.9114342154081285  0.21261156375651066  1.0000
  H   H35       1.0  0.9577626583131362  0.8573294966505787  0.33338963036157304  1.0000
  H   H36       1.0  0.13480969649881297  0.8845741857111733  0.326139316295297  1.0000
  H   H37       1.0  0.3280547599376078  0.6563057803637733  0.014754293407413912  1.0000
  H   H38       1.0  0.42820679642323983  0.6641876426542555  0.9622692513955612  1.0000
  H   H39       1.0  0.575978256787714  0.9225025962116008  0.9985449300655771  1.0000
  H   H40       1.0  0.4629279559778326  0.9048435759548215  0.046812902007779704  1.0000
  H   H41       1.0  0.6527412075287131  0.5747889257991758  0.8027711606675894  1.0000
  H   H42       1.0  0.7181425420199475  0.6982059353449587  0.8553395516784403  1.0000
  H   H43       1.0  0.40265415257456294  0.6375325375530995  0.8566821940185532  1.0000
  H   H44       1.0  0.349437451413415  0.5172770827454655  0.8035786041896741  1.0000
  H   H45       1.0  0.9952622486901959  0.040114575059476514  0.8833112732391226  1.0000
  H   H46       1.0  0.8261200971940995  0.9183719478400292  0.8711768336577633  1.0000
  H   H47       1.0  0.8283463860346172  0.9784059244965774  0.9950228442263549  1.0000
  H   H48       1.0  0.997136730172656  0.09960885311637921  0.0018434113975729055  1.0000
  H   H49       1.0  0.5986720781274428  0.2962378253675269  0.6340418334340538  1.0000
  H   H50       1.0  0.5300080989145357  0.2438317946602099  0.693032653346016  1.0000
  H   H51       1.0  0.225991862142692  0.19873111157841813  0.6214801635281901  1.0000
  H   H52       1.0  0.30601364153373106  0.25058500716530563  0.5654696937848057  1.0000
  H   H53       1.0  0.46628158599119734  0.1953101097452858  0.8999330294559584  1.0000
  H   H54       1.0  0.33345513307622815  0.1690388674686432  0.8356218857831762  1.0000
  H   H55       1.0  0.5559235181888625  0.16367868188395818  0.7714947909779112  1.0000
  H   H56       1.0  0.6780161909549705  0.18393308861838886  0.8387278704366989  1.0000
  H   H57       1.0  0.9306857673902585  0.06068150455602249  0.7891591698560134  1.0000
  H   H58       1.0  0.11306335683254078  0.08856824285586382  0.7873876041161266  1.0000
  H   H59       1.0  0.0422401110832737  0.1426735474913698  0.6666105249719934  1.0000
  H   H60       1.0  0.8651914420364123  0.11542585722873613  0.6738597109872231  1.0000
  H   H61       1.0  0.6719454020935488  0.3436924684329483  0.9852437076006453  1.0000
  H   H62       1.0  0.5717943454663866  0.3358124112490444  0.03772919348056549  1.0000
  H   H63       1.0  0.4240211481236926  0.07749681272148481  0.0014556676217196824  1.0000
  H   H64       1.0  0.5370700963854276  0.09515462712580101  0.9531875309398853  1.0000
  H   H65       1.0  0.34725668123935804  0.42521414871423263  0.1972273891118448  1.0000
  H   H66       1.0  0.28185834525228154  0.3018013955582006  0.14465767006291227  1.0000
  H   H67       1.0  0.5973450837100387  0.3624717263676871  0.1433173941100989  1.0000
  H   H68       1.0  0.6505611626075523  0.48272472747938644  0.1964228817712339  1.0000
  H   H69       1.0  0.004739299659789454  0.9598836384343131  0.11668860091420899  1.0000
  H   H70       1.0  0.17387820306593232  0.0816293027089543  0.1288222717892822  1.0000
  H   H71       1.0  0.1716537676105219  0.0215922968916757  0.004976612797676702  1.0000
  H   H72       1.0  0.0028659312147141657  0.9003875461699878  0.9981564989800373  1.0000
  H   H73       1.0  0.8313160800008177  0.7960071386046155  0.13416150437389968  1.0000
  H   H74       1.0  0.906678145179072  0.7434719495946781  0.193038301247455  1.0000
  H   H75       1.0  0.09352491721860197  0.6983267326232366  0.12117013129164887  1.0000
  H   H76       1.0  0.009424804570031193  0.7505397930968202  0.065322305698281  1.0000
  H   H77       1.0  0.1289945171261735  0.6953391705006028  0.3998873681029308  1.0000
  H   H78       1.0  0.1712975152823831  0.6693427096280546  0.3355334291913649  1.0000
  H   H79       1.0  0.8790903053145485  0.6635492185837181  0.2715186321791733  1.0000
  H   H80       1.0  0.8446270327796412  0.6838384570697542  0.3387908756834435  1.0000
  H   H81       1.0  0.41895269238062843  0.5606309102782916  0.2891619112122328  1.0000
  H   H82       1.0  0.26270724627864445  0.5885567216817904  0.28733381597928087  1.0000
  H   H83       1.0  0.26723350732173395  0.6426004218953806  0.1665611210253317  1.0000
  H   H84       1.0  0.4242963696374958  0.6153867721333129  0.17387571587685358  1.0000
  H   H85       1.0  0.15710603401181814  0.8439524675780918  0.485161385477724  1.0000
  H   H86       1.0  0.3019088298186007  0.8362278793620989  0.5376419271783489  1.0000
  H   H87       1.0  0.1552857322574682  0.5778820774553141  0.5014938596380389  1.0000
  H   H88       1.0  0.011445152064432456  0.5953787631874266  0.4532936209052351  1.0000
  H   H89       1.0  0.7752612323347918  0.925170914491595  0.6971999980875978  1.0000
  H   H90       1.0  0.6645966837779654  0.8018344056755567  0.6446347268756439  1.0000
  H   H91       1.0  0.4086715863693301  0.8627753346567746  0.643422120389239  1.0000
  H   H92       1.0  0.5289283089665063  0.9829265456529513  0.6965285882582818  1.0000
  H   H93       1.0  0.5718088093042583  0.45999004475643107  0.616393657158568  1.0000
  H   H94       1.0  0.536579865797016  0.5817050370880068  0.6286813521542598  1.0000
  H   H95       1.0  0.3543455069815877  0.5216795843885434  0.5049610370212462  1.0000
  H   H96       1.0  0.3947364769094435  0.4003119508888417  0.49803986129488453  1.0000
  C   C1        1.0  0.11042822020984029  0.22646907206339512  0.8670684216301865  1.0000
  C   C2        1.0  0.06825046031114824  0.25488453392492977  0.8346782183331667  1.0000
  C   C3        1.0  0.9929667746377575  0.28199026443010666  0.8381967049108565  1.0000
  C   C4        1.0  0.9640033843970741  0.28050164202208805  0.8745809149149506  1.0000
  C   C5        1.0  0.010793719068111374  0.2516677087672293  0.9058187479495742  1.0000
  C   C6        1.0  0.9251897207495431  0.3130805254425796  0.6290747467275749  1.0000
  C   C7        1.0  0.9015568290727106  0.3275335900182413  0.6649748152120195  1.0000
  C   C8        1.0  0.9711280354770864  0.3346595390188015  0.7015601274407146  1.0000
  C   C9        1.0  0.06426982229966434  0.3306811983988923  0.7006820319927057  1.0000
  C   C10       1.0  0.08322752189647535  0.3183470527753657  0.663400365314473  1.0000
  C   C11       1.0  0.6181476140387758  0.42124252727315087  0.7372459757851998  1.0000
  C   C12       1.0  0.7038615194358543  0.4058401866917977  0.7384114530758764  1.0000
  C   C13       1.0  0.746277498839902  0.38145792709840265  0.7730493237703513  1.0000
  C   C14       1.0  0.7011223438820764  0.3746628295413715  0.8055845060379097  1.0000
  C   C15       1.0  0.6146562481491176  0.3906214506324376  0.8018757679805332  1.0000
  C   C16       1.0  0.9463471786797726  0.31098043737541997  0.803414030356123  1.0000
  C   C17       1.0  0.941396339772865  0.3402636382477411  0.7397998471538756  1.0000
  C   C18       1.0  0.8343013216634604  0.3602971555092154  0.7736325318480296  1.0000
  C   C19       1.0  0.8404111443946081  0.21350956281815314  0.5094313582958918  1.0000
  C   C20       1.0  0.7610030985191472  0.2181247694014843  0.48076122902008217  1.0000
  C   C21       1.0  0.7617170421702895  0.2939015006396347  0.47642622286690534  1.0000
  C   C22       1.0  0.8432980533326742  0.3626485286916648  0.5007661439395363  1.0000
  C   C23       1.0  0.9216136811147139  0.3530814718600936  0.5277580208386397  1.0000
  C   C24       1.0  0.30676803307621014  0.09160488849063601  0.315107765312213  1.0000
  C   C25       1.0  0.367928556348474  0.15978239318781823  0.3441093187408057  1.0000
  C   C26       1.0  0.47195460342417317  0.1767914921756528  0.35975431084204246  1.0000
  C   C27       1.0  0.5108384952287609  0.12561144119868572  0.3448712517218055  1.0000
  C   C28       1.0  0.4449063630533203  0.059482341597494305  0.3155366824250052  1.0000
  C   C29       1.0  0.47579001546156974  0.5238259061705506  0.40738224311636617  1.0000
  C   C30       1.0  0.4943633220600532  0.4562556958281264  0.40080727875270117  1.0000
  C   C31       1.0  0.5560174306110781  0.43876983570039135  0.4326690150212258  1.0000
  C   C32       1.0  0.5969402626492482  0.49022605187840906  0.4698429064617072  1.0000
  C   C33       1.0  0.5745358986104494  0.5568510059202368  0.47387773323233523  1.0000
  C   C34       1.0  0.6759013435757455  0.30035817729260134  0.4473398348359722  1.0000
  C   C35       1.0  0.539314700793618  0.24558009165503591  0.3925057952697414  1.0000
  C   C36       1.0  0.5788961771219833  0.3679948388584722  0.42681200162446226  1.0000
  C   C37       1.0  0.4832670913406504  0.7262387891307968  0.36710173392197015  1.0000
  C   C38       1.0  0.5212397622100796  0.7545629758655822  0.3346466432093179  1.0000
  C   C39       1.0  0.6270837375947095  0.7816123316084926  0.33804533804755715  1.0000
  C   C40       1.0  0.6910927764427723  0.780145540704808  0.3743726650326379  1.0000
  C   C41       1.0  0.6469699706294776  0.7515211710071769  0.40570031905431847  1.0000
  C   C42       1.0  0.5169828749866028  0.813162253143581  0.12904278441053657  1.0000
  C   C43       1.0  0.5910421016295048  0.8277700788604963  0.16491366654453538  1.0000
  C   C44       1.0  0.5651669654140364  0.8348043859401104  0.20151119289080552  1.0000
  C   C45       1.0  0.46714977031577115  0.8307038821928288  0.20068390417092974  1.0000
  C   C46       1.0  0.39854634392342814  0.81837437595501  0.1634250514972777  1.0000
  C   C47       1.0  0.040408377650465066  0.9212201337701064  0.23723760942729644  1.0000
  C   C48       1.0  0.9404564948079114  0.905860713191416  0.23837789279831162  1.0000
  C   C49       1.0  0.9081472092077761  0.8814442830410912  0.2729923091073729  1.0000
  C   C50       1.0  0.9789432135798961  0.8746422416922216  0.30554932237379256  1.0000
  C   C51       1.0  0.07767350118768233  0.8905940123093076  0.3018771739737218  1.0000
  C   C52       1.0  0.6678343343393324  0.8106695503452742  0.3032534370614641  1.0000
  C   C53       1.0  0.6386819890635635  0.8403471132201902  0.23973019401969248  1.0000
  C   C54       1.0  0.7995283008688504  0.8602448980925815  0.273534575733116  1.0000
  C   C55       1.0  0.38263447510465914  0.7138112801683932  0.009385295288403497  1.0000
  C   C56       1.0  0.43802887370905813  0.7184976646755102  0.9807088249319802  1.0000
  C   C57       1.0  0.5087534212114448  0.7943213583685778  0.9763996784474072  1.0000
  C   C58       1.0  0.520210628599159  0.8630095553827177  0.0007888337515709024  1.0000
  C   C59       1.0  0.4593502732003288  0.853354291040617  0.0278092580899312  1.0000
  C   C60       1.0  0.599858520885448  0.5916241376486158  0.8151250921952948  1.0000
  C   C61       1.0  0.6359706541738462  0.6598147677520603  0.8441119234807815  1.0000
  C   C62       1.0  0.5646742431091668  0.6769357095991924  0.8597814015626567  1.0000
  C   C63       1.0  0.4597297409265623  0.6258104827995157  0.8449468115592181  1.0000
  C   C64       1.0  0.4300877501109568  0.5596240568115506  0.8156127458112081  1.0000
  C   C65       1.0  0.9554817929583378  0.0238882040003432  0.90716254731754  1.0000
  C   C66       1.0  0.8627831593364662  0.9563077199177031  0.9006643288683945  1.0000
  C   C67       1.0  0.8157176689737045  0.9388757649939736  0.9325990010192695  1.0000
  C   C68       1.0  0.863610120332993  0.9902985162088385  0.9697732437170073  1.0000
  C   C69       1.0  0.9567256837325148  0.0568214254501171  0.9737503391824375  1.0000
  C   C70       1.0  0.5719419623653154  0.8007864079271486  0.947303225184342  1.0000
  C   C71       1.0  0.5989366004330421  0.7458049709485975  0.8925078805654676  1.0000
  C   C72       1.0  0.7161678915325569  0.8681930424406802  0.9267896784602385  1.0000
  C   C73       1.0  0.5167395754712346  0.2737624085697234  0.632900165504047  1.0000
  C   C74       1.0  0.4787628519889823  0.24543462072262667  0.6653538883882104  1.0000
  C   C75       1.0  0.3729201869957919  0.2183876845791062  0.6619551058999418  1.0000
  C   C76       1.0  0.30891133711577357  0.2198586818811279  0.62562911105654  1.0000
  C   C77       1.0  0.35303549212279967  0.24848424646783948  0.5943022041808843  1.0000
  C   C78       1.0  0.48301125291114033  0.1868287130656441  0.8709567466744375  1.0000
  C   C79       1.0  0.40895683096920266  0.17222331187959136  0.8350855092992686  1.0000
  C   C80       1.0  0.4348314596388931  0.16519321788639732  0.7984889609284238  1.0000
  C   C81       1.0  0.5328496801067361  0.1692943239567199  0.7993163634996421  1.0000
  C   C82       1.0  0.6014518432959478  0.18162021329330005  0.8365746826033984  1.0000
  C   C83       1.0  0.9595892716068519  0.07877992068341652  0.7627608118367704  1.0000
  C   C84       1.0  0.05954538072062831  0.09413810383179572  0.7616220322433093  1.0000
  C   C85       1.0  0.09185281461286368  0.11855756862454571  0.7270069731540614  1.0000
  C   C86       1.0  0.021060584540507007  0.1253614157361582  0.6944503644047231  1.0000
  C   C87       1.0  0.9223268953226196  0.10940724010221463  0.6981218291592768  1.0000
  C   C88       1.0  0.33216581259699746  0.18932864911619873  0.696747184775347  1.0000
  C   C89       1.0  0.3613157344439344  0.15965048084931513  0.7602704792428766  1.0000
  C   C90       1.0  0.2004717583996722  0.139755717899348  0.7264661237307662  1.0000
  C   C91       1.0  0.617364980349457  0.2861869424262408  0.9906140987725747  1.0000
  C   C92       1.0  0.5619719376476057  0.28150177473497007  0.019290151462250504  1.0000
  C   C93       1.0  0.4912467812992035  0.20567567119952204  0.023598866153505985  1.0000
  C   C94       1.0  0.4797887324783403  0.13699106181559983  0.999211802749265  1.0000
  C   C95       1.0  0.5406454096312175  0.1466421312729693  0.9721894402507799  1.0000
  C   C96       1.0  0.4001421134584008  0.4083801293411042  0.1848743306562639  1.0000
  C   C97       1.0  0.36402784847184233  0.34019073304881436  0.15588618448236957  1.0000
  C   C98       1.0  0.43532327967804463  0.32306798609510423  0.14021626253242658  1.0000
  C   C99       1.0  0.5402718799845802  0.37419561122355577  0.15505189034762878  1.0000
  C   C100      1.0  0.5699108722960204  0.44037778082176976  0.18438728413372016  1.0000
  C   C101      1.0  0.04452148062944875  0.9761106160917948  0.09283721244698027  1.0000
  C   C102      1.0  0.13721518140305733  0.0436923114026584  0.0993353201715124  1.0000
  C   C103      1.0  0.18428170048980516  0.06112487961281942  0.06740017946558649  1.0000
  C   C104      1.0  0.13639035713629974  0.009700297745446602  0.030226846601713896  1.0000
  C   C105      1.0  0.04327693382094832  0.9431761821014819  0.026249610008697712  1.0000
  C   C106      1.0  0.42805875964634055  0.1992154425321004  0.05269612004014589  1.0000
  C   C107      1.0  0.4010626020808701  0.25420053412758387  0.10748999915754345  1.0000
  C   C108      1.0  0.2838331576576607  0.131809411547998  0.0732097176525386  1.0000
  C   C109      1.0  0.8895692738501213  0.773525534836388  0.1329303758978497  1.0000
  C   C110      1.0  0.9317451703004807  0.7451130692454202  0.16532197483705593  1.0000
  C   C111      1.0  0.007031930405418176  0.7180091402276646  0.161804121016587  1.0000
  C   C112      1.0  0.03599675918484727  0.7194965464759946  0.1254202893282539  1.0000
  C   C113      1.0  0.9892109358069022  0.7483310595768984  0.0941837585698124  1.0000
  C   C114      1.0  0.07481402850535104  0.68692432380594  0.3709258524740591  1.0000
  C   C115      1.0  0.09844961018364988  0.6724736215999628  0.3350287342976442  1.0000
  C   C116      1.0  0.028876217969177442  0.6653410861799218  0.2984400761918806  1.0000
  C   C117      1.0  0.9357351108883948  0.669319365294804  0.29932143783809545  1.0000
  C   C118      1.0  0.9167767332269959  0.6816535779050455  0.336599547114929  1.0000
  C   C119      1.0  0.3818494112776989  0.5787550680027352  0.2627546345143159  1.0000
  C   C120      1.0  0.29613625964596213  0.5941562374843343  0.26158714295078767  1.0000
  C   C121      1.0  0.2537173998100216  0.6185409184337233  0.2269490980311843  1.0000
  C   C122      1.0  0.2988768586436664  0.6253323291398234  0.19441708913327457  1.0000
  C   C123      1.0  0.3853406118949608  0.6093810105945396  0.1981232503539445  1.0000
  C   C124      1.0  0.053653534945866006  0.6890213856753604  0.1965867708843447  1.0000
  C   C125      1.0  0.05860963052519711  0.6597375661408549  0.2602016981058952  1.0000
  C   C126      1.0  0.165695064390718  0.6396992820430683  0.22636535584614845  1.0000
  C   C127      1.0  0.15958411520455928  0.7864886450879992  0.4905688227995667  1.0000
  C   C128      1.0  0.2389922470706268  0.7818710164925096  0.5192391656515125  1.0000
  C   C129      1.0  0.23827789192751692  0.7060961092187911  0.523573616137071  1.0000
  C   C130      1.0  0.15669552486259164  0.6373478643509004  0.49923411273120166  1.0000
  C   C131      1.0  0.07838092077292913  0.6469155180238176  0.472242640886634  1.0000
  C   C132      1.0  0.6932313363872995  0.90839575611615  0.6848914151726433  1.0000
  C   C133      1.0  0.6320715146604671  0.840218261175977  0.6558893423007106  1.0000
  C   C134      1.0  0.5280416444194885  0.8232085482455531  0.640244858105511  1.0000
  C   C135      1.0  0.4891581135641445  0.8743879615965469  0.6551296765196852  1.0000
  C   C136      1.0  0.5550912811723878  0.9405176964109432  0.6844626124486481  1.0000
  C   C137      1.0  0.5242138669722394  0.4761753237639753  0.5926179484414716  1.0000
  C   C138      1.0  0.5056393647001656  0.543749781289371  0.5991920805983426  1.0000
  C   C139      1.0  0.44398305524423176  0.5612290056623622  0.5673296192815085  1.0000
  C   C140      1.0  0.40306078150936037  0.5097763856651838  0.5301573632606561  1.0000
  C   C141      1.0  0.42546626193995263  0.4431496283793238  0.5261219903079137  1.0000
  C   C142      1.0  0.3240949447474151  0.6996406438999828  0.5526598777044426  1.0000
  C   C143      1.0  0.4606817848835973  0.7544229633443535  0.6074937933963722  1.0000
  C   C144      1.0  0.421099328696755  0.6320064110343394  0.5731871431735768  1.0000
  I   I1        1.0  0.24963919066762946  0.11303920765488581  0.9202248963808086  1.0000
  I   I2        1.0  0.1928752896574437  0.2640297745864899  0.015431581887710894  1.0000
  I   I3        1.0  0.0011756819336738989  0.12199021918485188  0.5748273488816479  1.0000
  I   I4        1.0  0.2029588083663825  0.38180878185397665  0.566239673345599  1.0000
  I   I5        1.0  0.3858964394494181  0.4514931748325993  0.6881134306292366  1.0000
  I   I6        1.0  0.31288366701251397  0.3367124792420029  0.7955803194210702  1.0000
  I   I7        1.0  0.28418874455033455  0.6131428631469548  0.42040331769099026  1.0000
  I   I8        1.0  0.5873704988909766  0.764190823628802  0.5155242623886024  1.0000
  I   I9        1.0  0.19599971336636918  0.6219959746043316  0.07481072082846651  1.0000
  I   I10       1.0  0.24497553327953633  0.8818368132727131  0.06640937462972829  1.0000
  I   I11       1.0  0.25359192577628437  0.9515873666794266  0.1880995558844845  1.0000
  I   I12       1.0  0.3195995720449076  0.8367228589412933  0.29549211359288546  1.0000
  I   I13       1.0  0.7158127111002345  0.3868577504322134  0.5795975076989919  1.0000
  I   I14       1.0  0.412629186010676  0.2358103861355474  0.4844770074069159  1.0000
  I   I15       1.0  0.8039935898702452  0.3779986340520552  0.9251879901244706  1.0000
  I   I16       1.0  0.7550245647912844  0.11816257800890644  0.9335921596302156  1.0000
  I   I17       1.0  0.7464133410843419  0.0484048268647612  0.8118989830004535  1.0000
  I   I18       1.0  0.6804053745607775  0.16327774860595676  0.7045090266123422  1.0000
  I   I19       1.0  0.750361332312771  0.8869584035158625  0.07977486392118038  1.0000
  I   I20       1.0  0.8071258438461727  0.7359702519083415  0.9845683190043955  1.0000
  I   I21       1.0  0.9988264347828281  0.8780116233799405  0.42517241347213286  1.0000
  I   I22       1.0  0.7970392051945795  0.6181906459369557  0.43375992480601155  1.0000
  I   I23       1.0  0.61410547488142  0.5485044174803023  0.3118873292084388  1.0000
  I   I24       1.0  0.6871188089760238  0.6632887202151212  0.20442149342984098  1.0000
  N   N1        1.0  0.08204663198684871  0.224565377497342  0.9019950892038933  1.0000
  N   N2        1.0  0.013910448895856643  0.30790162425000034  0.6282374135612727  1.0000
  N   N3        1.0  0.5735677739125437  0.41325222388461935  0.7682770481258031  1.0000
  N   N4        1.0  0.9835406305642139  0.3125995146733303  0.7706835784224849  1.0000
  N   N5        1.0  0.8697357007778592  0.3681795193188578  0.7403863173447859  1.0000
  N   N6        1.0  0.8694740763131887  0.3320472798754254  0.8060043335746413  1.0000
  N   N7        1.0  0.9195834999935785  0.2799008834038546  0.5323291207736174  1.0000
  N   N8        1.0  0.34421014104682973  0.042023746055974705  0.3011896904601342  1.0000
  N   N9        1.0  0.514659738859102  0.5729892673472534  0.44330688825256453  1.0000
  N   N10       1.0  0.6180237958307514  0.23784534801976062  0.4173411603132705  1.0000
  N   N11       1.0  0.5161681655717346  0.30904676118068153  0.3955670916836523  1.0000
  N   N12       1.0  0.6605402755361779  0.3671085526511178  0.4531461982922805  1.0000
  N   N13       1.0  0.5448351348237921  0.7244532154292003  0.4019992333131128  1.0000
  N   N14       1.0  0.4222174978178757  0.8079022219174306  0.1282477812027878  1.0000
  N   N15       1.0  0.10790411475188944  0.913185651913253  0.2682837755931118  1.0000
  N   N16       1.0  0.599622117010192  0.8124818474663442  0.2705757040641004  1.0000
  N   N17       1.0  0.7388527860587004  0.868384913930136  0.24033935793018193  1.0000
  N   N18       1.0  0.7683302008371983  0.8316794527661175  0.30582161903996047  1.0000
  N   N19       1.0  0.3927441015937987  0.7801238999649699  0.03233607279445751  1.0000
  N   N20       1.0  0.49891808636737534  0.5421055255873954  0.8012227047309608  1.0000
  N   N21       1.0  0.0019360442578815066  0.0729579645593503  0.9431046128128883  1.0000
  N   N22       1.0  0.537265461769323  0.7382431373655083  0.9173108470010332  1.0000
  N   N23       1.0  0.6887241190306314  0.8091409258774079  0.8955878315152643  1.0000
  N   N24       1.0  0.6598958914804102  0.8674788740533829  0.9530974865014484  1.0000
  N   N25       1.0  0.4551675873843167  0.2755510260145898  0.5980015432403789  1.0000
  N   N26       1.0  0.5777762557129976  0.19208933806422127  0.8717523202138081  1.0000
  N   N27       1.0  0.8920966932503661  0.08681377653384463  0.7317157832075052  1.0000
  N   N28       1.0  0.4003804667725889  0.18751700124065002  0.729422536721394  1.0000
  N   N29       1.0  0.2611503577045795  0.1316175364393928  0.7596602270717482  1.0000
  N   N30       1.0  0.23167299011439016  0.16832180030156255  0.6941773447420445  1.0000
  N   N31       1.0  0.6072559627063328  0.21987673247204506  0.9676637530598453  1.0000
  N   N32       1.0  0.5010812325534246  0.45789630535784914  0.19877767938021407  1.0000
  N   N33       1.0  0.9980676424990732  0.927039037050058  0.05689541141605758  1.0000
  N   N34       1.0  0.46273275920891177  0.2617605571224075  0.08268688005710349  1.0000
  N   N35       1.0  0.3112751256399876  0.19086336545185398  0.104410300597408  1.0000
  N   N36       1.0  0.34010524202320624  0.13252115244144147  0.046902414390650904  1.0000
  N   N37       1.0  0.9179566820804369  0.775432223366174  0.09800521415348837  1.0000
  N   N38       1.0  0.9860950593675356  0.6921025904414793  0.3717647796571981  1.0000
  N   N39       1.0  0.42643466998251267  0.5867502222095952  0.2317227651162739  1.0000
  N   N40       1.0  0.01646385232958638  0.6874040976951079  0.22931850094464315  1.0000
  N   N41       1.0  0.1302623515854009  0.6318186837617644  0.2596141156028792  1.0000
  N   N42       1.0  0.1305212304742866  0.6679497307288854  0.19399522630089897  1.0000
  N   N43       1.0  0.08041143410422805  0.7200967264545712  0.46767071823035866  1.0000
  N   N44       1.0  0.6557878286802321  0.9579768900001894  0.6988099465050084  1.0000
  N   N45       1.0  0.4853437236967224  0.42701375914322887  0.5566942036536418  1.0000
  N   N46       1.0  0.3819704350444298  0.7621522465999606  0.5826594893372458  1.0000
  N   N47       1.0  0.48383021900168915  0.6909520618744484  0.6044325185427225  1.0000
  N   N48       1.0  0.33946126945939886  0.6328896498792816  0.5468542582674372  1.0000
