data_image0
_chemical_formula_structural       ZnH12C12S2N10O10
_chemical_formula_sum              "Zn1 H12 C12 S2 N10 O10"
_cell_length_a       6.728425429253718
_cell_length_b       8.835785704427327
_cell_length_c       10.049277511157072
_cell_angle_alpha    64.20073845260703
_cell_angle_beta     76.24775712215312
_cell_angle_gamma    82.75689520698121

_space_group_name_H-M_alt    "P 1"
_space_group_IT_number       1

loop_
  _space_group_symop_operation_xyz
  'x, y, z'

loop_
  _atom_site_type_symbol
  _atom_site_label
  _atom_site_symmetry_multiplicity
  _atom_site_fract_x
  _atom_site_fract_y
  _atom_site_fract_z
  _atom_site_occupancy
  Zn  Zn1       1.0  0.5000006697844128  6.121335403004807e-07  0.4999997212598684  1.0000
  H   H1        1.0  0.20650207041796878  0.3098768654796373  0.5296743212224653  1.0000
  H   H2        1.0  0.7934970969623903  0.6901227989253298  0.4703276034300287  1.0000
  H   H3        1.0  0.16828054579674756  0.0877209220888346  0.006667423270002414  1.0000
  H   H4        1.0  0.8317202020380208  0.9122774981263077  0.9933327341645177  1.0000
  H   H5        1.0  0.4064237546123053  0.8831202036943395  0.8804201250398405  1.0000
  H   H6        1.0  0.5935770400063021  0.11687695906000777  0.11958050322849798  1.0000
  H   H7        1.0  0.14258508493401933  0.7474902321100954  0.5454848574795578  1.0000
  H   H8        1.0  0.857414043221418  0.2525107044754407  0.45451260913806363  1.0000
  H   H9        1.0  0.33406508910338323  0.3828750589395399  0.9441859276212055  1.0000
  H   H10       1.0  0.6659340352725991  0.6171258702861094  0.055813532596943286  1.0000
  H   H11       1.0  0.5978082042564736  0.6551776448767439  0.7998342137102622  1.0000
  H   H12       1.0  0.40219082655181637  0.3448257992704881  0.20016430484024988  1.0000
  C   C1        1.0  0.2328424342505784  0.22025629418622117  0.63958020963841  1.0000
  C   C2        1.0  0.7671612741295136  0.7797446417328402  0.3604215076267322  1.0000
  C   C3        1.0  0.21226022283401855  0.0993744143534272  0.8914542136058753  1.0000
  C   C4        1.0  0.7877405231110187  0.9006240021817716  0.10854694062890502  1.0000
  C   C5        1.0  0.3309667311510581  0.0030393641517605014  0.8259698775867855  1.0000
  C   C6        1.0  0.669033969899857  0.9969603135241767  0.17402980901391643  1.0000
  C   C7        1.0  0.2313540029255776  0.6883381653638807  0.6332697806102272  1.0000
  C   C8        1.0  0.7686421122315038  0.31166150193870107  0.3667286457437483  1.0000
  C   C9        1.0  0.3386334987928379  0.49722386327867696  0.8413040907439534  1.0000
  C   C10       1.0  0.6613671554742381  0.5027770718580484  0.15869512502293043  1.0000
  C   C11       1.0  0.4627373619172984  0.6324878246347866  0.7704188021726492  1.0000
  C   C12       1.0  0.5372617175645615  0.3675143657315941  0.22957919041142108  1.0000
  S   S1        1.0  0.0053641111012865  0.4033994640201896  0.7837614385941049  1.0000
  S   S2        1.0  0.99463370218497  0.5965951425508607  0.2162485946465083  1.0000
  N   N1        1.0  0.3427135123430389  0.07934677081438218  0.6707409041150424  1.0000
  N   N2        1.0  0.6572871887078836  0.9206529068615479  0.3292587824856596  1.0000
  N   N3        1.0  0.14860712608005847  0.23741966408520193  0.7714277071802865  1.0000
  N   N4        1.0  0.8513966328633275  0.7625800217329511  0.2285724873181463  1.0000
  N   N5        1.0  0.19161609311859001  0.5336055484539199  0.7532282568528358  1.0000
  N   N6        1.0  0.8083830312573924  0.46639538077172915  0.2467712033653128  1.0000
  N   N7        1.0  0.39366444559605185  0.7495173965285954  0.6427970164811396  1.0000
  N   N8        1.0  0.6063316208874596  0.25048352455483064  0.3572019358392779  1.0000
  N   N9        1.0  0.19087598712832235  0.06523074786939279  0.29012292605447226  1.0000
  N   N10       1.0  0.8091246652490226  0.9347701835873963  0.7098772865126787  1.0000
  O   O1        1.0  0.9114408131327565  0.479632399169965  0.6559152402150727  1.0000
  O   O2        1.0  0.08855836369625082  0.5203672836347194  0.3440817004361064  1.0000
  O   O3        1.0  0.8969364208480856  0.3489998018488762  0.9360409028131397  1.0000
  O   O4        1.0  0.10306127476339809  0.6509986212638735  0.06395575632286205  1.0000
  O   O5        1.0  0.22024867696844547  0.07992133303660859  0.40636804155251116  1.0000
  O   O6        1.0  0.7797490559782361  0.9200758142156358  0.5936340724186235  1.0000
  O   O7        1.0  0.1673965947607314  0.1979120928519862  0.1747969684078042  1.0000
  O   O8        1.0  0.8326070219413992  0.8020913616686015  0.8252028103894414  1.0000
  O   O9        1.0  0.18522563167421416  0.922383061119319  0.29327648137540047  1.0000
  O   O10       1.0  0.8147734478076529  0.0776191292470685  0.7067215112086696  1.0000
