data_image0
_chemical_formula_structural       Zn4H32C32Br8N4O8
_chemical_formula_sum              "Zn4 H32 C32 Br8 N4 O8"
_cell_length_a       6.684024751953621
_cell_length_b       12.62442574400215
_cell_length_c       13.414174786853339
_cell_angle_alpha    78.50740776631088
_cell_angle_beta     87.15735539425951
_cell_angle_gamma    86.48636712852687

_space_group_name_H-M_alt    "P 1"
_space_group_IT_number       1

loop_
  _space_group_symop_operation_xyz
  'x, y, z'

loop_
  _atom_site_type_symbol
  _atom_site_label
  _atom_site_symmetry_multiplicity
  _atom_site_fract_x
  _atom_site_fract_y
  _atom_site_fract_z
  _atom_site_occupancy
  Zn  Zn1       1.0  0.2332808651517411  0.37943666162349404  0.28206820842164143  1.0000
  Zn  Zn2       1.0  0.7667216192344811  0.6205627682806779  0.7179283230511899  1.0000
  Zn  Zn3       1.0  0.3288263105916229  0.1039852194436435  0.2741831651281075  1.0000
  Zn  Zn4       1.0  0.6711717177255847  0.8960142070787427  0.7258179592427324  1.0000
  H   H1        1.0  0.014593085923031879  0.3940316109653994  0.5194758607570336  1.0000
  H   H2        1.0  0.9854056822532867  0.6059759069628258  0.48052671318833967  1.0000
  H   H3        1.0  0.8045561953435012  0.11807021317626723  0.7089845465425952  1.0000
  H   H4        1.0  0.1954337102388592  0.8819356907480725  0.2910148390439033  1.0000
  H   H5        1.0  0.8471220133112992  0.35288735214130895  0.026725039925494815  1.0000
  H   H6        1.0  0.15289679487493393  0.6470983135203954  0.9732751183295817  1.0000
  H   H7        1.0  0.9317716907786957  0.2187603657086257  0.0154836434192944  1.0000
  H   H8        1.0  0.06822774118305115  0.7812244916040502  0.9845194213493825  1.0000
  H   H9        1.0  0.6050960397352511  0.43859822114560393  0.9320850243392157  1.0000
  H   H10       1.0  0.3949248433067892  0.5613971552418066  0.06791549954329668  1.0000
  H   H11       1.0  0.42135022927588034  0.09473820327443862  0.8496718984002172  1.0000
  H   H12       1.0  0.5786356524134605  0.9052628447438238  0.15032850268956816  1.0000
  H   H13       1.0  0.6838890190772985  0.10288944109536403  0.9720003139528828  1.0000
  H   H14       1.0  0.3161094945423314  0.897104326202232  0.02799440045279058  1.0000
  H   H15       1.0  0.27622355008773525  0.41165143242664487  0.6411895086877024  1.0000
  H   H16       1.0  0.7237693360906119  0.5883552736075262  0.35881710199723216  1.0000
  H   H17       1.0  0.3380172789475751  0.44426157816212725  0.8088441622070093  1.0000
  H   H18       1.0  0.6619956100977048  0.5557394607125233  0.1911607356726961  1.0000
  H   H19       1.0  0.6693140148139489  0.1426419844350946  0.1482392799508361  1.0000
  H   H20       1.0  0.3306846590486287  0.8573509645251889  0.8517652744663734  1.0000
  H   H21       1.0  0.842402663632576  0.21963022933529436  0.1926505019580276  1.0000
  H   H22       1.0  0.15759882428206845  0.7803643407566486  0.8073506921000869  1.0000
  H   H23       1.0  0.7330722088293414  0.32245499294758423  0.48412548973709585  1.0000
  H   H24       1.0  0.26693721703616546  0.6775501018176872  0.515869796870895  1.0000
  H   H25       1.0  0.6150240352130324  0.22189350857486553  0.5772168348143154  1.0000
  H   H26       1.0  0.38496987535942384  0.7781172533091124  0.42277929893089083  1.0000
  H   H27       1.0  0.0616967778971969  0.11994537138220102  0.8357746991030767  1.0000
  H   H28       1.0  0.9382902947301802  0.8800589134640405  0.16422581050451868  1.0000
  H   H29       1.0  0.8667720600971122  0.07828059514627482  0.530614321456639  1.0000
  H   H30       1.0  0.13322111419856944  0.9217228758716945  0.46938990429848093  1.0000
  H   H31       1.0  0.7053048592996162  0.13668845620330225  0.4344882083728904  1.0000
  H   H32       1.0  0.29469727754188574  0.8633150161020853  0.5655127951542127  1.0000
  C   C1        1.0  0.028784263476744298  0.3383539450429397  0.5919912711855417  1.0000
  C   C2        1.0  0.9712146550592139  0.6616519546926655  0.408010855740926  1.0000
  C   C3        1.0  0.5535119115703111  0.2994073177360477  0.1744579052021535  1.0000
  C   C4        1.0  0.44649950743920624  0.700592917417957  0.8255412183971131  1.0000
  C   C5        1.0  0.9130641208686183  0.18074954518495903  0.6984132579095217  1.0000
  C   C6        1.0  0.08692579101471401  0.8192563580548582  0.30158687312296445  1.0000
  C   C7        1.0  0.8014713362059142  0.2698349911003462  0.033411142108533874  1.0000
  C   C8        1.0  0.19853826184163378  0.7301531029586814  0.9665902998419255  1.0000
  C   C9        1.0  0.5572736936536697  0.36536430596224534  0.9116547937563906  1.0000
  C   C10       1.0  0.44274419977276835  0.6346310702242022  0.08834655572013618  1.0000
  C   C11       1.0  0.45246666585218515  0.17235648792297548  0.8676910632104651  1.0000
  C   C12       1.0  0.5475222837830599  0.8276437508576819  0.13230866149885404  1.0000
  C   C13       1.0  0.3526394243236551  0.26908937744448747  0.8203998138486384  1.0000
  C   C14       1.0  0.6473554766202554  0.7309116657005177  0.17960407402711812  1.0000
  C   C15       1.0  0.6004077900109904  0.17557002758480422  0.9349490411964466  1.0000
  C   C16       1.0  0.3995890347662367  0.8244261634786413  0.06505048376458686  1.0000
  C   C17       1.0  0.17339309958807542  0.34611451771602486  0.6603089810276189  1.0000
  C   C18       1.0  0.8265985236229126  0.6538897602442191  0.3396981173719595  1.0000
  C   C19       1.0  0.41047007799841134  0.36663048489680244  0.8420580940401122  1.0000
  C   C20       1.0  0.5895308742060336  0.6333697498960832  0.15794354641517563  1.0000
  C   C21       1.0  0.7185818313040285  0.22547225287461006  0.1403162214564304  1.0000
  C   C22       1.0  0.28142884784638506  0.7745198908735561  0.859681452568303  1.0000
  C   C23       1.0  0.19222337412190876  0.267002567029671  0.7492724956022769  1.0000
  C   C24       1.0  0.8077695588818868  0.733003332988524  0.2507305370662039  1.0000
  C   C25       1.0  0.7562997328683849  0.24387062923864283  0.5351927261192699  1.0000
  C   C26       1.0  0.2436989912011285  0.7561368934812124  0.4648046297041048  1.0000
  C   C27       1.0  0.057004017125421996  0.18366220031848002  0.7678357609463262  1.0000
  C   C28       1.0  0.9429875808816701  0.8163420803798332  0.23216835566925198  1.0000
  C   C29       1.0  0.8295220216332237  0.15501379503088228  0.4783304237408927  1.0000
  C   C30       1.0  0.17047720392299226  0.8449888676349675  0.5216715545937588  1.0000
  C   C31       1.0  0.005353339167797292  0.18385238641658228  0.40398745782082557  1.0000
  C   C32       1.0  0.9946476976679292  0.8161470382532202  0.5960150772940054  1.0000
  Br  Br1       1.0  0.210438860714504  0.07610526280098641  0.114579090276969  1.0000
  Br  Br2       1.0  0.7895413802687583  0.9238925443229961  0.8854265406390098  1.0000
  Br  Br3       1.0  0.579024063866477  0.9717320504056703  0.34268692699608744  1.0000
  Br  Br4       1.0  0.4209528672161368  0.028252813956250112  0.6573130116526472  1.0000
  Br  Br5       1.0  0.37801045907090003  0.47687260489792754  0.3919939235660408  1.0000
  Br  Br6       1.0  0.6219701796640251  0.5231357335844109  0.6080000367018384  1.0000
  Br  Br7       1.0  0.03013882018467481  0.47218137835467633  0.1506806584460065  1.0000
  Br  Br8       1.0  0.9699089496311257  0.5278124001307987  0.849291861029556  1.0000
  N   N1        1.0  0.6493146940122755  0.27074232525270503  0.9566800704251506  1.0000
  N   N2        1.0  0.35069584738044307  0.7292514353190501  0.04331954151048474  1.0000
  N   N3        1.0  0.9026859332879482  0.25629249965323453  0.611309947485303  1.0000
  N   N4        1.0  0.09730689618164935  0.7437142125416045  0.38868995418563657  1.0000
  O   O1        1.0  0.4279338156109062  0.25587695564032503  0.2489431964764321  1.0000
  O   O2        1.0  0.5720703485981102  0.7441208524068585  0.7510565751334823  1.0000
  O   O3        1.0  0.53933078655497  0.3968591493893641  0.13684141469872202  1.0000
  O   O4        1.0  0.46068999925384446  0.6031370384901679  0.8631567236322439  1.0000
  O   O5        1.0  0.09629403422000848  0.10490847372082612  0.370940281453791  1.0000
  O   O6        1.0  0.903720572453892  0.8950909391897216  0.6290723292390011  1.0000
  O   O7        1.0  0.045517651212065906  0.2826684659184124  0.37941436098194714  1.0000
  O   O8        1.0  0.9544744005925806  0.7173301589777027  0.6205796184384624  1.0000
