data_image0
_chemical_formula_structural       Zn2H8C28N2O8
_chemical_formula_sum              "Zn2 H8 C28 N2 O8"
_cell_length_a       14.483358062370687
_cell_length_b       14.876331432932806
_cell_length_c       16.17570929467566
_cell_angle_alpha    90.00122799958511
_cell_angle_beta     90.35669703435236
_cell_angle_gamma    89.99778819268724

_space_group_name_H-M_alt    "P 1"
_space_group_IT_number       1

loop_
  _space_group_symop_operation_xyz
  'x, y, z'

loop_
  _atom_site_type_symbol
  _atom_site_label
  _atom_site_symmetry_multiplicity
  _atom_site_fract_x
  _atom_site_fract_y
  _atom_site_fract_z
  _atom_site_occupancy
  Zn  Zn1       1.0  0.5000018615364255  0.4046692039636496  0.49999862809110607  1.0000
  Zn  Zn2       1.0  0.49999927793837173  0.595330457697777  0.5000017505731835  1.0000
  H   H1        1.0  0.6044006149919169  0.9160438568250981  0.5961659885499699  1.0000
  H   H2        1.0  0.3955984485600652  0.08395513265023881  0.40383314825217553  1.0000
  H   H3        1.0  0.3955990464681777  0.9160473765514394  0.4038327554892831  1.0000
  H   H4        1.0  0.60440001935239  0.08395228513969498  0.5961669995397545  1.0000
  H   H5        1.0  0.4996635195354956  0.35514841984022644  0.9229028109637769  1.0000
  H   H6        1.0  0.5003369271855148  0.6448519140351366  0.07709694768188771  1.0000
  H   H7        1.0  0.4997802421481338  0.3551548288568895  0.0770944710406525  1.0000
  H   H8        1.0  0.5002208973126727  0.6448455050132793  0.9229059076302735  1.0000
  C   C1        1.0  0.5000842473828014  0.5000013570249209  0.7498733511049595  1.0000
  C   C2        1.0  0.49970382415310155  0.4999986623880516  0.3394040326797097  1.0000
  C   C3        1.0  0.680221786873467  0.5000006623181434  0.5003235713982833  1.0000
  C   C4        1.0  0.3197786666812803  0.500000343787157  0.49967804191479825  1.0000
  C   C5        1.0  0.49999808977354127  0.1887221464611457  0.5000014201105145  1.0000
  C   C6        1.0  0.5000002901829462  0.8112761708389085  0.49999956954076924  1.0000
  C   C7        1.0  0.7799954093341911  0.4999968691332413  0.5001541229538875  1.0000
  C   C8        1.0  0.2200036564583883  0.5000041369753774  0.4998456320884231  1.0000
  C   C9        1.0  0.8647507015577672  0.4999980496218725  0.5000795660603787  1.0000
  C   C10       1.0  0.1352504287867262  0.5000016120112959  0.4999183397228819  1.0000
  C   C11       1.0  0.9573792249383927  0.5000004345648819  0.5000113724932975  1.0000
  C   C12       1.0  0.4999141279805386  0.4999983046784776  0.2501264021190863  1.0000
  C   C13       1.0  0.04262052215311479  0.5000019159206985  0.499985911486256  1.0000
  C   C14       1.0  0.5591846773492932  0.046655780647775195  0.5544939171206311  1.0000
  C   C15       1.0  0.44081300758481484  0.9533425366504105  0.445505834285136  1.0000
  C   C16       1.0  0.440810514762191  0.04665864999704889  0.44550671800735847  1.0000
  C   C17       1.0  0.5591878605871586  0.9533416839150989  0.5544930352233237  1.0000
  C   C18       1.0  0.49988869947276976  0.418242568179103  0.0428704195432843  1.0000
  C   C19       1.0  0.5001124400020274  0.5817570934823235  0.9571299591209982  1.0000
  C   C20       1.0  0.4998231108513663  0.4182322396223199  0.9571331432754067  1.0000
  C   C21       1.0  0.5001780286234307  0.5817674220391069  0.04286723538887571  1.0000
  C   C22       1.0  0.5000508430121755  0.5000051687948357  0.0872476951123389  1.0000
  C   C23       1.0  0.4999502964346404  0.4999958372840751  0.9127526835652233  1.0000
  C   C24       1.0  0.5000163123076079  0.5000034864981868  0.17476325621752414  1.0000
  C   C25       1.0  0.49998413670997627  0.4999961751755038  0.8252371206417666  1.0000
  C   C26       1.0  0.4999973224921703  0.0931300304522225  0.5000017055335279  1.0000
  C   C27       1.0  0.5000003669791084  0.9068696312775728  0.49999928232603014  1.0000
  C   C28       1.0  0.5002959321106886  0.5000016714995751  0.660595724160963  1.0000
  N   N1        1.0  0.49999709359253336  0.7333167623524232  0.5000024965206009  1.0000
  N   N2        1.0  0.500001284039392  0.26668357156677996  0.49999787493033665  1.0000
  O   O1        1.0  0.5003915628644505  0.42323570024414886  0.6254738400001969  1.0000
  O   O2        1.0  0.4996109552422112  0.5767639613856943  0.3745259240538276  1.0000
  O   O3        1.0  0.4996086276943216  0.42323350190739006  0.3745243937810372  1.0000
  O   O4        1.0  0.5003904404088216  0.5767661597908145  0.6254759794682557  1.0000
  O   O5        1.0  0.6414369099129047  0.42316184418758945  0.500396989798624  1.0000
  O   O6        1.0  0.35856352994638746  0.5768391618753128  0.49960091419291086  1.0000
  O   O7        1.0  0.35856330877684434  0.4231621609538437  0.49960804297189304  1.0000
  O   O8        1.0  0.6414371630245199  0.5768395174167154  0.5003985161098825  1.0000
