data_image0
_chemical_formula_structural       Zn4P8H56C32O32
_chemical_formula_sum              "Zn4 P8 H56 C32 O32"
_cell_length_a       7.435861129
_cell_length_b       7.67439728
_cell_length_c       22.461
_cell_angle_alpha    90.0
_cell_angle_beta     90.0
_cell_angle_gamma    90.0

_space_group_name_H-M_alt    "P 1"
_space_group_IT_number       1

loop_
  _space_group_symop_operation_xyz
  'x, y, z'

loop_
  _atom_site_type_symbol
  _atom_site_label
  _atom_site_symmetry_multiplicity
  _atom_site_fract_x
  _atom_site_fract_y
  _atom_site_fract_z
  _atom_site_occupancy
  Zn  Zn1       1.0  0.8317597508483561  0.9229115644636039  0.2499991095676961  1.0000
  Zn  Zn2       1.0  0.6682238833941485  0.4228970538778255  0.7500022260807597  1.0000
  Zn  Zn3       1.0  0.16821454547097403  0.07709139602947347  0.7500022260807597  1.0000
  Zn  Zn4       1.0  0.33177865444238114  0.5770967853777833  0.2500008904323039  1.0000
  P   P1        1.0  0.0492612750084049  0.0781937627289508  0.361564489559683  1.0000
  P   P2        1.0  0.4507211662317232  0.5781861217380211  0.6384439695472182  1.0000
  P   P3        1.0  0.9507224351499846  0.9217831370856544  0.8615631539112272  1.0000
  P   P4        1.0  0.5492773371023532  0.42180771751758767  0.1384417434664513  1.0000
  P   P5        1.0  0.950735883491511  0.9218052886623551  0.6384270513334229  1.0000
  P   P6        1.0  0.5492679232632797  0.421812929653285  0.3615684965050506  1.0000
  P   P7        1.0  0.0492747233499315  0.07821200520388057  0.1384346200080131  1.0000
  P   P8        1.0  0.4507238559000228  0.5781939399415634  0.8615671608565946  1.0000
  H   H1        1.0  0.5841314038343413  0.1406390574557292  0.2867641690040514  1.0000
  H   H2        1.0  0.9158549200764698  0.640626204329102  0.7132336049151888  1.0000
  H   H3        1.0  0.4158428924849815  0.859362600003422  0.7867641690040514  1.0000
  H   H4        1.0  0.0841543419308266  0.3593676349265066  0.21323494056364473  1.0000
  H   H5        1.0  0.4158509614898947  0.8593586909016508  0.7132371666444044  1.0000
  H   H6        1.0  0.08414492809176012  0.35935851368903826  0.2867637237878995  1.0000
  H   H7        1.0  0.5841260244977349  0.1406403604896482  0.2132358309959486  1.0000
  H   H8        1.0  0.9158589545789229  0.6406235982612571  0.786759716842525  1.0000
  H   H9        1.0  0.7655011169856962  0.6055863190861572  0.2856760607274822  1.0000
  H   H10       1.0  0.7345026897691016  0.10557571760215007  0.7143221584079101  1.0000
  H   H11       1.0  0.23448797250931366  0.3944192474747652  0.7856760607274823  1.0000
  H   H12       1.0  0.2654917790625149  0.8944207277213039  0.21432304884021386  1.0000
  H   H13       1.0  0.2344799035043934  0.3944179444408462  0.7143248297048216  1.0000
  H   H14       1.0  0.2654931238966682  0.8944298489587723  0.2856747250790264  1.0000
  H   H15       1.0  0.7654984273173895  0.6055745917808435  0.21432482970482172  1.0000
  H   H16       1.0  0.7345026897691016  0.10556399029683658  0.7856729442144186  1.0000
  H   H17       1.0  0.3528522056130541  0.1246013159224901  0.3490735051867659  1.0000
  H   H18       1.0  0.14715175297352096  0.624584553694099  0.6509229330840114  1.0000
  H   H19       1.0  0.6471462977210225  0.8754081597402035  0.8490726147544622  1.0000
  H   H20       1.0  0.8528575090337753  0.3754249219685945  0.1509278304616899  1.0000
  H   H21       1.0  0.6471610908967023  0.8754133718758934  0.650926940029386  1.0000
  H   H22       1.0  0.8528400261897886  0.3754158007311261  0.3490721695383101  1.0000
  H   H23       1.0  0.3528347227690674  0.12458046737971527  0.1509273852455379  1.0000
  H   H24       1.0  0.1471504081393675  0.6245702203209405  0.8490775121321406  1.0000
  H   H25       1.0  0.1748163363259039  0.728382933024285  0.3862018610035208  1.0000
  H   H26       1.0  0.32520107060219067  0.22838014974382753  0.6137901251057372  1.0000
  H   H27       1.0  0.8252063740229119  0.27157442128145687  0.8861956279773864  1.0000
  H   H28       1.0  0.6747866740586661  0.7716306289527919  0.1137994746449422  1.0000
  H   H29       1.0  0.8251902360130787  0.2716122092652498  0.6137901251057372  1.0000
  H   H30       1.0  0.674798777566032  0.7716280228849468  0.38621299140732646  1.0000
  H   H31       1.0  0.1747800258037842  0.7284168119062995  0.1137945772672637  1.0000
  H   H32       1.0  0.3252091396071037  0.22839969525268333  0.8862152174880933  1.0000
  H   H33       1.0  0.9583072997704463  0.6505318682172783  0.4037122122790606  1.0000
  H   H34       1.0  0.5416870931452848  0.1505447213439055  0.596281554694805  1.0000
  H   H35       1.0  0.04168582422701662  0.3494228800206187  0.9037037531721664  1.0000
  H   H36       1.0  0.4583114101887915  0.8494647543187879  0.0962828903432609  1.0000
  H   H37       1.0  0.0416979277343899  0.3494424255294746  0.5962824451271089  1.0000
  H   H38       1.0  0.4583194791937047  0.8494660573527142  0.4037251235474812  1.0000
  H   H39       1.0  0.9583046101021397  0.6505826865403037  0.096290904234003  1.0000
  H   H40       1.0  0.5416830586428247  0.1505629638188353  0.9037246783313294  1.0000
  H   H41       1.0  0.1434346313758326  0.5965823546732025  0.450064556342106  1.0000
  H   H42       1.0  0.3565787410498019  0.0965991169015936  0.5499309914963746  1.0000
  H   H43       1.0  0.8565786651339169  0.4033815148021631  0.9500463024798549  1.0000
  H   H44       1.0  0.6434278312891806  0.9034103587610998  0.0499416766840284  1.0000
  H   H45       1.0  0.8565840444705303  0.403401060311019  0.5499283201994558  1.0000
  H   H46       1.0  0.643421107118421  0.9033999344897055  0.4500716798005442  1.0000
  H   H47       1.0  0.143402355356173  0.5966149305212909  0.04994701927785881  1.0000
  H   H48       1.0  0.3565773962156555  0.0966212684782946  0.950072570232848  1.0000
  H   H49       1.0  0.9688265925117963  0.2974305234299806  0.4593553270112665  1.0000
  H   H50       1.0  0.531167800403928  0.7974385188461353  0.5406464538533484  1.0000
  H   H51       1.0  0.031145014139220006  0.7025437703167723  0.9593655669827683  1.0000
  H   H52       1.0  0.4688656686181076  0.20255401737554724  0.0406451182048855  1.0000
  H   H53       1.0  0.0311719108222732  0.7025581036899381  0.5406379947464472  1.0000
  H   H54       1.0  0.4688414616033612  0.2025644416469419  0.459358888740482  1.0000
  H   H55       1.0  0.9688427305216296  0.29745267500668143  0.0406304260718571  1.0000
  H   H56       1.0  0.5311785590771478  0.7974476400835966  0.9593637861181605  1.0000
  C   C1        1.0  0.0834214073176796  0.7009592810655219  0.4232331596990306  1.0000
  C   C2        1.0  0.4165758270981286  0.2009460735136699  0.5767641690040506  1.0000
  C   C3        1.0  0.9165838201871566  0.2990371642579319  0.9232198032144581  1.0000
  C   C4        1.0  0.5834240210700941  0.7990581900133262  0.0767686211655771  1.0000
  C   C5        1.0  0.9165784408505431  0.2990345581900868  0.576761052490987  1.0000
  C   C6        1.0  0.5834240210700941  0.7990647051829425  0.42323850229286114  1.0000
  C   C7        1.0  0.0834106486444597  0.700961887133367  0.0767748541917115  1.0000
  C   C8        1.0  0.4165744822639753  0.20095649778506433  0.9232385022928611  1.0000
  C   C9        1.0  0.04490804685656261  0.8575513828494437  0.46128177730287934  1.0000
  C   C10       1.0  0.455113394573992  0.3575251449583518  0.5387186679132725  1.0000
  C   C11       1.0  0.9550958358141204  0.1424528806775527  0.9612737634121373  1.0000
  C   C12       1.0  0.544917384779737  0.6424739064329472  0.0387240105071029  1.0000
  C   C13       1.0  0.9551025599848872  0.142459395847176  0.5387128801032901  1.0000
  C   C14       1.0  0.5449133502772838  0.6424699973311758  0.46128400338364633  1.0000
  C   C15       1.0  0.044894598515036015  0.8575344434084327  0.0387244557232549  1.0000
  C   C16       1.0  0.4551039807349256  0.3575420843993626  0.9612782155736639  1.0000
  C   C17       1.0  0.026372197731774308  0.0292635358590658  0.4393330662036448  1.0000
  C   C18       1.0  0.4736452091963201  0.5292585009359883  0.5606660433640513  1.0000
  C   C19       1.0  0.9736209262656887  0.9707159700233843  0.9393330662036448  1.0000
  C   C20       1.0  0.5263896046598688  0.4707548838284764  0.0606651529317475  1.0000
  C   C21       1.0  0.9736303401047552  0.9707250912608458  0.560659810337917  1.0000
  C   C22       1.0  0.5263815356549557  0.47074055045531776  0.439339744445931  1.0000
  C   C23       1.0  0.0263641287268612  0.0292843844018478  0.0606615912025319  1.0000
  C   C24       1.0  0.4736492436987803  0.529283258580534  0.9393384087974682  1.0000
  C   C25       1.0  0.9820463122314962  0.1664886444346294  0.4776986777080268  1.0000
  C   C26       1.0  0.5179588393574478  0.6664992459186292  0.5222990962112135  1.0000
  C   C27       1.0  0.0179400875951998  0.8334895584138948  0.977706691598769  1.0000
  C   C28       1.0  0.4820732848304418  0.3335102297440641  0.0222999866435174  1.0000
  C   C29       1.0  0.017948156600113  0.833499982685282  0.522294198833535  1.0000
  C   C30       1.0  0.48206521582552153  0.33349850243875057  0.47770402030185727  1.0000
  C   C31       1.0  0.9820530364022633  0.16650818994348524  0.022291972752768195  1.0000
  C   C32       1.0  0.5179682531965142  0.6665135792917949  0.9777075820310729  1.0000
  O   O1        1.0  0.928219325275137  0.951638250346093  0.3284733538132798  1.0000
  O   O2        1.0  0.5717683434698273  0.4516211336924698  0.6715262009705683  1.0000
  O   O3        1.0  0.07178724706385253  0.04833343733281479  0.8284764703263434  1.0000
  O   O4        1.0  0.42821805635687593  0.5483609782578256  0.1715239748898085  1.0000
  O   O5        1.0  0.07178724706385253  0.04835819497736789  0.6715230844575046  1.0000
  O   O6        1.0  0.4282140218544158  0.5483635843256707  0.3284773607586473  1.0000
  O   O7        1.0  0.9281937734262373  0.95167994743165  0.171520413160593  1.0000
  O   O8        1.0  0.5717844814796536  0.4516419822352517  0.8284769155424954  1.0000
  O   O9        1.0  0.6133452361304847  0.0723665950220393  0.2500004452161519  1.0000
  O   O10       1.0  0.8866424326144795  0.5723602570650357  0.7499973287030883  1.0000
  O   O11       1.0  0.3866263705205384  0.9276259411996433  0.75  1.0000
  O   O12       1.0  0.11337489839772993  0.427628370054876  0.2500017808646078  1.0000
  O   O13       1.0  0.7460373322956428  0.6800964049127243  0.25  1.0000
  O   O14       1.0  0.7539597502883952  0.18008710646264345  0.7499982191353922  1.0000
  O   O15       1.0  0.25393965369199384  0.3199052525464268  0.750000445216152  1.0000
  O   O16       1.0  0.24603606337737466  0.8199028236911943  0.24999777391924027  1.0000
  O   O17       1.0  0.2508492248094001  0.03243251436157379  0.3427527714705505  1.0000
  O   O18       1.0  0.24915338894301445  0.532426176404563  0.6572383242064035  1.0000
  O   O19       1.0  0.7491479336905159  0.9675495975887216  0.842756778415918  1.0000
  O   O20       1.0  0.7508585627325814  0.4675650567831936  0.1572476737456014  1.0000
  O   O21       1.0  0.7491304508465362  0.9675600218601159  0.6572414407194671  1.0000
  O   O22       1.0  0.7508693214058014  0.467572874986736  0.3427563331997661  1.0000
  O   O23       1.0  0.25085863864846664  0.0324585750400459  0.1572387694225554  1.0000
  O   O24       1.0  0.2491372509331882  0.5324352976420315  0.8427607853612926  1.0000
  O   O25       1.0  0.0179441220976599  0.2720109376459091  0.3503196651974534  1.0000
  O   O26       1.0  0.48205714682060835  0.7719928723835918  0.6496816704510024  1.0000
  O   O27       1.0  0.9820315190558235  0.727969871270467  0.8503254530074359  1.0000
  O   O28       1.0  0.517952115186688  0.22798793653278435  0.1496749922087162  1.0000
  O   O29       1.0  0.9820476570656496  0.7279763864400834  0.6496736565602603  1.0000
  O   O30       1.0  0.5179588393574478  0.22798663349885825  0.3503245625751319  1.0000
  O   O31       1.0  0.0179642946099463  0.2720356952904552  0.1496718756956525  1.0000
  O   O32       1.0  0.482041008810775  0.7720124178924477  0.8503254530074359  1.0000
