data_image0
_chemical_formula_structural       K2Lu2H16C8O24
_chemical_formula_sum              "K2 Lu2 H16 C8 O24"
_cell_length_a       8.76276022697378
_cell_length_b       9.140835957112623
_cell_length_c       9.140827394396943
_cell_angle_alpha    76.71754377130438
_cell_angle_beta     61.35949366272713
_cell_angle_gamma    61.358997932248926

_space_group_name_H-M_alt    "P 1"
_space_group_IT_number       1

loop_
  _space_group_symop_operation_xyz
  'x, y, z'

loop_
  _atom_site_type_symbol
  _atom_site_label
  _atom_site_symmetry_multiplicity
  _atom_site_fract_x
  _atom_site_fract_y
  _atom_site_fract_z
  _atom_site_occupancy
  K   K1        1.0  0.12497193869761232  0.750023190895007  0.7500107354077487  1.0000
  K   K2        1.0  0.8750285243897622  0.24997712910487732  0.2499890994305147  1.0000
  Lu  Lu1       1.0  0.6250393897709542  0.7500147555951249  0.7500142639934779  1.0000
  Lu  Lu2       1.0  0.3750054824841769  0.25001004760286355  0.2500092547371508  1.0000
  H   H1        1.0  0.35965471283651596  0.400925584267995  0.5895079174312272  1.0000
  H   H2        1.0  0.8500597425899058  0.09910411321153846  0.9104993419541574  1.0000
  H   H3        1.0  0.9491915829312062  0.4104732908781799  0.9008808880998842  1.0000
  H   H4        1.0  0.7605387620288725  0.0895307524869082  0.5991136950073467  1.0000
  H   H5        1.0  0.6403625035352221  0.5990707487099627  0.4105056291405234  1.0000
  H   H6        1.0  0.14992708567780968  0.9008907504951297  0.089491767242734  1.0000
  H   H7        1.0  0.050816713629679267  0.5895147967566744  0.0990940165392544  1.0000
  H   H8        1.0  0.239453787609477  0.9104754983605547  0.4008873862927231  1.0000
  H   H9        1.0  0.5041549365941761  0.3290001403813322  0.6729491198544366  1.0000
  H   H10       1.0  0.006108025936022324  0.17099882125324944  0.8270487151075585  1.0000
  H   H11       1.0  0.17713528986691074  0.3270293115360873  0.8289624879765468  1.0000
  H   H12       1.0  0.8331276383543693  0.17296530548916433  0.6710376287392422  1.0000
  H   H13       1.0  0.4958569100182828  0.6709879562177222  0.3270656732275512  1.0000
  H   H14       1.0  0.9939005351072936  0.8289769163620166  0.1729349151582227  1.0000
  H   H15       1.0  0.822866302644293  0.6729409787818952  0.17104607253826737  1.0000
  H   H16       1.0  0.16687187958245903  0.827027628003215  0.32896594565391263  1.0000
  C   C1        1.0  0.6052205845451862  0.9812548612814641  0.9717034758324488  1.0000
  C   C2        1.0  0.0581734904000228  0.5187587285516102  0.5282999376288517  1.0000
  C   C3        1.0  0.5769407039689509  0.028292618356246628  0.4812501945932866  1.0000
  C   C4        1.0  0.5864822072638419  0.4717096837255212  0.0187390386932691  1.0000
  C   C5        1.0  0.39475871874627444  0.018754047559461685  0.028292619346927898  1.0000
  C   C6        1.0  0.9418000839339273  0.4812542983930473  0.47171236218701307  1.0000
  C   C7        1.0  0.42306144009550195  0.9717017707325727  0.5187608588880721  1.0000
  C   C8        1.0  0.4135127665651484  0.5283052827087148  0.9812396053552062  1.0000
  O   O1        1.0  0.3655607329427965  0.39171571287311485  0.6963254354204479  1.0000
  O   O2        1.0  0.9535915804244864  0.10828705695847439  0.8036810769396538  1.0000
  O   O3        1.0  0.061918809800324805  0.30364558361612387  0.8916329738445798  1.0000
  O   O4        1.0  0.7572120865516964  0.19635255756920625  0.6083513124738219  1.0000
  O   O5        1.0  0.6344529512409027  0.6082672981787739  0.3036881111698123  1.0000
  O   O6        1.0  0.04641170490825864  0.8916863796710572  0.19631252541470456  1.0000
  O   O7        1.0  0.9380776935361013  0.6963377799931365  0.1083593819396853  1.0000
  O   O8        1.0  0.2427965406275875  0.8036486123401687  0.3916435363461588  1.0000
  O   O9        1.0  0.7303681736481303  0.8749892300760038  0.8574987715378555  1.0000
  O   O10       1.0  0.9628693966770143  0.6250273131485502  0.6424968764581038  1.0000
  O   O11       1.0  0.5878859508642547  0.14249579248646443  0.3749759604032406  1.0000
  O   O12       1.0  0.6053522972985091  0.3575154803974671  0.12501839497517855  1.0000
  O   O13       1.0  0.2696107892093523  0.1250315450818462  0.14249233755579382  1.0000
  O   O14       1.0  0.03713243912381608  0.3749840278234089  0.357506697897783  1.0000
  O   O15       1.0  0.41211907935281994  0.8575065888730082  0.6250288605038392  1.0000
  O   O16       1.0  0.3946319271963501  0.6425079618704077  0.8749777001888788  1.0000
  O   O17       1.0  0.6335236784560792  0.062070620086060964  0.0451015821426637  1.0000
  O   O18       1.0  0.2406910628363618  0.4379421102848015  0.4548963034262172  1.0000
  O   O19       1.0  0.6786310163059068  0.9549095816721195  0.5620759141413815  1.0000
  O   O20       1.0  0.6956158692591785  0.5450936553059835  0.9379083060731901  1.0000
  O   O21       1.0  0.36646950381158633  0.9379353866848917  0.9548882805409277  1.0000
  O   O22       1.0  0.7592865313316464  0.5620734617157624  0.5451184894280487  1.0000
  O   O23       1.0  0.32137128391924813  0.04511035728918966  0.43792766019427626  1.0000
  O   O24       1.0  0.30439295360439184  0.45490388014517447  0.06207781716379661  1.0000
