data_image0
_chemical_formula_structural       Zr6H28C78N6O32
_chemical_formula_sum              "Zr6 H28 C78 N6 O32"
_cell_length_a       15.127521734632378
_cell_length_b       15.113901848895875
_cell_length_c       15.130823343603462
_cell_angle_alpha    90.66405951479894
_cell_angle_beta     90.42956836187373
_cell_angle_gamma    90.60471063235771

_space_group_name_H-M_alt    "P 1"
_space_group_IT_number       1

loop_
  _space_group_symop_operation_xyz
  'x, y, z'

loop_
  _atom_site_type_symbol
  _atom_site_label
  _atom_site_symmetry_multiplicity
  _atom_site_fract_x
  _atom_site_fract_y
  _atom_site_fract_z
  _atom_site_occupancy
  Zr  Zr1       1.0  0.1636745113076543  0.024160685105997004  0.22009095650429344  1.0000
  Zr  Zr2       1.0  0.9800377647881932  0.17081268314784379  0.25682290930127044  1.0000
  Zr  Zr3       1.0  0.0901702835558211  0.9900739857440186  0.0008658622389319022  1.0000
  Zr  Zr4       1.0  0.1275140856096186  0.20778878394573044  0.07376633817450803  1.0000
  Zr  Zr5       1.0  0.946116915843291  0.9514052085960499  0.18202726465254676  1.0000
  Zr  Zr6       1.0  0.9082584584996667  0.1333802639245079  0.03901867117642872  1.0000
  H   H1        1.0  0.4149267943259218  0.8571717679974071  0.856057342325592  1.0000
  H   H2        1.0  0.5931479452224194  0.8793927051782829  0.8430637737808343  1.0000
  H   H3        1.0  0.6156990196579315  0.30323681116114903  0.36211110205563574  1.0000
  H   H4        1.0  0.4364446987610933  0.31295042435908027  0.3634349460199503  1.0000
  H   H5        1.0  0.7655153623129819  0.4567512722265903  0.9099801558198879  1.0000
  H   H6        1.0  0.7513693814585524  0.6350101905078562  0.9323713351636871  1.0000
  H   H7        1.0  0.2670635236299645  0.6601821184848119  0.3508572985808201  1.0000
  H   H8        1.0  0.2681781544007863  0.48072110749100005  0.3602257872310234  1.0000
  H   H9        1.0  0.8149022951930291  0.8067731697093378  0.5081143710634495  1.0000
  H   H10       1.0  0.8361562729924187  0.7948699540855629  0.6863942995163728  1.0000
  H   H11       1.0  0.2577775631946011  0.31199348432662793  0.7089954136316765  1.0000
  H   H12       1.0  0.2672416013823947  0.3129459884067741  0.5296950773710591  1.0000
  H   H13       1.0  0.16921740580011146  0.21335577434425093  0.26296003215938424  1.0000
  H   H14       1.0  0.0999259479100161  0.8632333640830938  0.13814377489202914  1.0000
  H   H15       1.0  0.046463402622507  0.1434815593602607  0.9125283837524736  1.0000
  H   H16       1.0  0.8195736971551213  0.0891682194321035  0.19252746175334326  1.0000
  H   H17       1.0  0.5709614336947552  0.9466756739163175  0.5103593745155666  1.0000
  H   H18       1.0  0.6558797251252386  0.07697129604853362  0.752297706962729  1.0000
  H   H19       1.0  0.5188387342801946  0.16433150930298274  0.7511489116460272  1.0000
  H   H20       1.0  0.4348944270979588  0.03329636503318769  0.5096216577631767  1.0000
  H   H21       1.0  0.900331901516836  0.46326114901863497  0.6633065111274378  1.0000
  H   H22       1.0  0.0341754533414544  0.7024775843027199  0.7511011578758515  1.0000
  H   H23       1.0  0.1209079695845929  0.7016683920418672  0.6133889954530931  1.0000
  H   H24       1.0  0.9863384341221247  0.4628775597833155  0.5263551276332381  1.0000
  H   H25       1.0  0.6578607391369644  0.701922521960377  0.1277768552565703  1.0000
  H   H26       1.0  0.4203120603875945  0.6120912954559259  0.9931285642647583  1.0000
  H   H27       1.0  0.41975183873474015  0.4757979847265119  0.07990576850824743  1.0000
  H   H28       1.0  0.6569020908104973  0.5647855327595295  0.21513215316857537  1.0000
  C   C1        1.0  0.45015107657815184  0.7730359585515529  0.9685907893052462  1.0000
  C   C2        1.0  0.466026920789183  0.8237623849228584  0.8932055953520366  1.0000
  C   C3        1.0  0.5575322816272672  0.8355378107759179  0.8869018189283299  1.0000
  C   C4        1.0  0.5976432707017523  0.7916180869215806  0.9576914900312946  1.0000
  C   C5        1.0  0.604899525594256  0.39589875518908707  0.25137232590408604  1.0000
  C   C6        1.0  0.5741783244890186  0.34538236111944076  0.32219714009418965  1.0000
  C   C7        1.0  0.48186792804459333  0.3502114999347726  0.3226036046381254  1.0000
  C   C8        1.0  0.45622581856086697  0.40527161870244294  0.2533518129716299  1.0000
  C   C9        1.0  0.876758109933988  0.4931405280751945  0.824113768500901  1.0000
  C   C10       1.0  0.8018764233681637  0.5082718113935769  0.8760603566766254  1.0000
  C   C11       1.0  0.7949870390514137  0.5997698285145034  0.8878987195460513  1.0000
  C   C12       1.0  0.8648357704062448  0.6406323288936805  0.8427297876654054  1.0000
  C   C13       1.0  0.1570615438809355  0.6491794038090647  0.4446635676936524  1.0000
  C   C14       1.0  0.22739102686846735  0.6184689076404839  0.39327815222036844  1.0000
  C   C15       1.0  0.2276187653663442  0.5260892267293188  0.39793051091265147  1.0000
  C   C16       1.0  0.1587477298267714  0.5003672892499226  0.4537127834344761  1.0000
  C   C17       1.0  0.7299981730168738  0.9192443422039245  0.542952765438564  1.0000
  C   C18       1.0  0.7810614563311231  0.8441351941828332  0.5590550027186867  1.0000
  C   C19       1.0  0.7923455542834716  0.8383835232410776  0.6505678399029622  1.0000
  C   C20       1.0  0.7477427117295858  0.9091913961790395  0.6904849349370183  1.0000
  C   C21       1.0  0.35159337293762855  0.20207781624968396  0.6975985875190462  1.0000
  C   C22       1.0  0.3002049346905977  0.27232020235115323  0.667184593734284  1.0000
  C   C23       1.0  0.3049244666941604  0.2725159406755822  0.5748884883309985  1.0000
  C   C24       1.0  0.3606970219493205  0.2037009742698928  0.5489309827320313  1.0000
  C   C25       1.0  0.2573608686230813  0.8897042807303208  0.08570675682001652  1.0000
  C   C26       1.0  0.2854552526308752  0.09617245756443539  0.3258597367698074  1.0000
  C   C27       1.0  0.2332854158602657  0.3298256311825724  0.14599106841659193  1.0000
  C   C28       1.0  0.0734682134394617  0.8604359668360501  0.32332328065398036  1.0000
  C   C29       1.0  0.8165977209899254  0.27445352747761115  0.16711068739900276  1.0000
  C   C30       1.0  0.9014630384545728  0.018062427400018104  0.8723890580745819  1.0000
  C   C31       1.0  0.05147702281173851  0.27692328464819843  0.378891477823288  1.0000
  C   C32       1.0  0.8455883392111898  0.0362977587283453  0.3497883559252558  1.0000
  C   C33       1.0  0.973867094667476  0.8239534177139377  0.9950491852487249  1.0000
  C   C34       1.0  0.23144743576204257  0.11790300324187092  0.9097968599804177  1.0000
  C   C35       1.0  0.9941929935407501  0.30097229495538597  0.9393551333635275  1.0000
  C   C36       1.0  0.7798336361612145  0.9457268497853661  0.06661637248491561  1.0000
  C   C37       1.0  0.2979911193392938  0.13450232020818484  0.8446571270905924  1.0000
  C   C38       1.0  0.33492929844472735  0.1613332917834072  0.7783715264773508  1.0000
  C   C39       1.0  0.3438091921816381  0.1395695695127159  0.38947498842222233  1.0000
  C   C40       1.0  0.36357677180047426  0.1687682094670109  0.4629473269468179  1.0000
  C   C41       1.0  0.8302286143735601  0.97492535534127  0.8252202536924643  1.0000
  C   C42       1.0  0.7763783650321585  0.9476087567403582  0.770220771858334  1.0000
  C   C43       1.0  0.7755515007710584  0.012812545389536498  0.4086645760109918  1.0000
  C   C44       1.0  0.7407684715682166  0.971404153415918  0.4683633995764681  1.0000
  C   C45       1.0  0.5608668444144128  0.9958874296708586  0.5623085985634262  1.0000
  C   C46       1.0  0.6248477878570284  0.007395709844964  0.6295399472376674  1.0000
  C   C47       1.0  0.6078435894619147  0.06693957440398891  0.6989644162335864  1.0000
  C   C48       1.0  0.529975839587607  0.1160234256895691  0.6984688294775839  1.0000
  C   C49       1.0  0.46786401744243034  0.10651017637676569  0.6293418099313401  1.0000
  C   C50       1.0  0.4834549062734935  0.04445667278261569  0.5620461386537701  1.0000
  C   C51       1.0  0.1164305600726081  0.7300073932194237  0.42778540943287896  1.0000
  C   C52       1.0  0.0896374017185195  0.7959284686807281  0.39035066957830383  1.0000
  C   C53       1.0  0.1239936545398308  0.41430678000497767  0.4569033542197334  1.0000
  C   C54       1.0  0.09479909268817008  0.3406867230927517  0.4373091054957215  1.0000
  C   C55       1.0  0.929931201639313  0.7762474448995603  0.9247523443231248  1.0000
  C   C56       1.0  0.9023972877472846  0.7208308587750166  0.8713032940681916  1.0000
  C   C57       1.0  0.9298339337634759  0.4190290355446963  0.834226578000255  1.0000
  C   C58       1.0  0.9712388775067778  0.35942571155307956  0.8689920650374179  1.0000
  C   C59       1.0  0.9501677305365774  0.5146363655793706  0.6535356583588767  1.0000
  C   C60       1.0  0.9629230197330401  0.5809529701379503  0.7185190819872108  1.0000
  C   C61       1.0  0.0232129326348272  0.649855982379478  0.7022337362726107  1.0000
  C   C62       1.0  0.0719379478031783  0.6495347896782988  0.624035047977124  1.0000
  C   C63       1.0  0.0613172335024217  0.5811555665654424  0.5609425367051771  1.0000
  C   C64       1.0  0.9983844228000008  0.5145453356464031  0.5757619633247303  1.0000
  C   C65       1.0  0.751648580484371  0.34119148745627836  0.18362614005450695  1.0000
  C   C66       1.0  0.6855810646336736  0.37858526854066116  0.21047452318440926  1.0000
  C   C67       1.0  0.296871753669194  0.38832899360729567  0.18942131215348476  1.0000
  C   C68       1.0  0.3703454049196537  0.40807840695501346  0.2185215908880168  1.0000
  C   C69       1.0  0.6771501336431671  0.821038155941828  0.9957977137698966  1.0000
  C   C70       1.0  0.7321594104979425  0.874927811582616  0.02323648464415841  1.0000
  C   C71       1.0  0.3757253826523339  0.784066706200143  0.021224940185455014  1.0000
  C   C72       1.0  0.31620276277649856  0.8195294775960064  0.062464014537816616  1.0000
  C   C73       1.0  0.6055408827932851  0.6527722763569201  0.11683469545744884  1.0000
  C   C74       1.0  0.5371344452267195  0.668355785744275  0.05613336664463021  1.0000
  C   C75       1.0  0.47125286933163585  0.602967905047855  0.04329216041112721  1.0000
  C   C76       1.0  0.4710533406653639  0.5255618167410744  0.09191380780192303  1.0000
  C   C77       1.0  0.5371416451764829  0.5115031160874182  0.15523825539222713  1.0000
  C   C78       1.0  0.6051459348454458  0.5749270417369344  0.1658999264810816  1.0000
  N   N1        1.0  0.5312261049175929  0.7459261633153531  0.0037430910997002984  1.0000
  N   N2        1.0  0.5325877746201259  0.4368052419791725  0.2116496637544501  1.0000
  N   N3        1.0  0.910944893053731  0.5746155026937316  0.7964761533414592  1.0000
  N   N4        1.0  0.1174072291988324  0.5767592325674328  0.4858297046241449  1.0000
  N   N5        1.0  0.7023008558703979  0.9547774241738479  0.623905921848568  1.0000
  N   N6        1.0  0.3928666052109904  0.16253806032669615  0.6250935901350092  1.0000
  O   O1        1.0  0.21200928273816538  0.9160955843391891  0.019573670155445207  1.0000
  O   O2        1.0  0.20912575784306847  0.0729720645097203  0.3552140659247344  1.0000
  O   O3        1.0  0.26257877481542385  0.2534524901606972  0.12275289078925773  1.0000
  O   O4        1.0  0.1378487191907638  0.9138450764385412  0.30989829229794463  1.0000
  O   O5        1.0  0.0006601502280077037  0.8570781928616853  0.2796297016528514  1.0000
  O   O6        1.0  0.15216875412531294  0.3482259796847913  0.13273555598785694  1.0000
  O   O7        1.0  0.3038807372756054  0.08303511191189729  0.2446447320672363  1.0000
  O   O8        1.0  0.2548701142204379  0.9217773179928912  0.16420471464019937  1.0000
  O   O9        1.0  0.02959934650667149  0.04489375436333629  0.24455626323570107  1.0000
  O   O10       1.0  0.1520484699951865  0.07368010747833861  0.09428021559071453  1.0000
  O   O11       1.0  0.1319300642171228  0.1759441410265623  0.22537627988035075  1.0000
  O   O12       1.0  0.08328235831610441  0.9250790270859426  0.13782169801395847  1.0000
  O   O13       1.0  0.8697903869993056  0.2610234944167331  0.23139712366883466  1.0000
  O   O14       1.0  0.9764460176781284  0.9822470989319215  0.8769918889669346  1.0000
  O   O15       1.0  0.0286212388633871  0.30619006379276936  0.30262940170457864  1.0000
  O   O16       1.0  0.8722331284612536  0.9702020810290151  0.30410391131275827  1.0000
  O   O17       1.0  0.9388938831072194  0.8291494115712156  0.07061117765388761  1.0000
  O   O18       1.0  0.21816355525828612  0.18207261821524406  0.9635507384873636  1.0000
  O   O19       1.0  0.9278537730739629  0.2558157065695568  0.9660702892392197  1.0000
  O   O20       1.0  0.785268623319439  0.0209565753752443  0.031208794320051015  1.0000
  O   O21       1.0  0.07263010046014529  0.2986932783905302  0.9713024537264447  1.0000
  O   O22       1.0  0.813154053314726  0.9254160929462644  0.14275512787582306  1.0000
  O   O23       1.0  0.0380988248400982  0.19569643964524627  0.39714137324585863  1.0000
  O   O24       1.0  0.18793306511457078  0.0447460581080961  0.9065792128014112  1.0000
  O   O25       1.0  0.0499516677408707  0.8574267302961687  0.9741081419676552  1.0000
  O   O26       1.0  0.877436691731937  0.114945743836067  0.3476592709812963  1.0000
  O   O27       1.0  0.8138362751176302  0.2309940225858185  0.09394382350731693  1.0000
  O   O28       1.0  0.8817675988141004  0.094538381866748  0.906133720442931  1.0000
  O   O29       1.0  0.9686728681268378  0.012084351522801698  0.06098197835364523  1.0000
  O   O30       1.0  0.0014701111923045998  0.19556676246210705  0.12294345411615383  1.0000
  O   O31       1.0  0.045755487903719  0.126837414947957  0.9742872261883948  1.0000
  O   O32       1.0  0.8813895548127703  0.0888222409471027  0.17580508507676745  1.0000
