data_image0
_chemical_formula_structural       Cu12H72C87N24
_chemical_formula_sum              "Cu12 H72 C87 N24"
_cell_length_a       25.957886028304785
_cell_length_b       25.988778258975884
_cell_length_c       26.13851124541925
_cell_angle_alpha    89.90865405964853
_cell_angle_beta     90.0155359682274
_cell_angle_gamma    89.60180777414314

_space_group_name_H-M_alt    "P 1"
_space_group_IT_number       1

loop_
  _space_group_symop_operation_xyz
  'x, y, z'

loop_
  _atom_site_type_symbol
  _atom_site_label
  _atom_site_symmetry_multiplicity
  _atom_site_fract_x
  _atom_site_fract_y
  _atom_site_fract_z
  _atom_site_occupancy
  Cu  Cu1       1.0  0.7880167722772029  0.7859106611320287  0.8686704019022357  1.0000
  Cu  Cu2       1.0  0.8729373202845211  0.783565076033348  0.7818145861960133  1.0000
  Cu  Cu3       1.0  0.7862466238239707  0.8712292387973758  0.7819896267370438  1.0000
  Cu  Cu4       1.0  0.77957250210396  0.21679202314661689  0.1320175327038271  1.0000
  Cu  Cu5       1.0  0.8646639500242443  0.2178231129716295  0.2190840182944029  1.0000
  Cu  Cu6       1.0  0.7789921417097574  0.130898830085286  0.2181196400511638  1.0000
  Cu  Cu7       1.0  0.21288918119951464  0.7854371304875867  0.1315491510210691  1.0000
  Cu  Cu8       1.0  0.12757436858773732  0.7861837959334819  0.21848974857915243  1.0000
  Cu  Cu9       1.0  0.21612382530858554  0.870406790198622  0.2180106514399469  1.0000
  Cu  Cu10      1.0  0.21559309973044094  0.21918176121208427  0.8651144931400765  1.0000
  Cu  Cu11      1.0  0.128060326093312  0.2218606276915622  0.78040528419384  1.0000
  Cu  Cu12      1.0  0.2117133574592103  0.1313143743804801  0.7817448248193771  1.0000
  H   H1        1.0  0.8241847425911503  0.6907273476844084  0.9364236134790219  1.0000
  H   H2        1.0  0.9393583449282376  0.6865200321723177  0.8164748895556356  1.0000
  H   H3        1.0  0.6877067711212774  0.9361006799027576  0.8148381850741515  1.0000
  H   H4        1.0  0.691793008412354  0.8211581169092881  0.9351233736334237  1.0000
  H   H5        1.0  0.9380752125751924  0.8169106318300622  0.6854228289816859  1.0000
  H   H6        1.0  0.8235024268009425  0.9389005742023642  0.6880230546584585  1.0000
  H   H7        1.0  0.8143178104680898  0.3126526015990834  0.0656381437717002  1.0000
  H   H8        1.0  0.9286463002665143  0.3160439994695776  0.186427550875365  1.0000
  H   H9        1.0  0.6841267969831931  0.0638075275952232  0.1822184938451699  1.0000
  H   H10       1.0  0.6865012534607757  0.17983768404113215  0.062946044340201  1.0000
  H   H11       1.0  0.932992221716269  0.1798891148073095  0.3131397720864086  1.0000
  H   H12       1.0  0.8132616958847124  0.06450810583073967  0.3138222121438403  1.0000
  H   H13       1.0  0.17622360742269896  0.6906021342442729  0.0654002472972834  1.0000
  H   H14       1.0  0.0620485410819498  0.688617907674626  0.18633637385801896  1.0000
  H   H15       1.0  0.3127579583199421  0.9351119929409039  0.1823547134613293  1.0000
  H   H16       1.0  0.3070716964407083  0.8202149261843628  0.0625073384775519  1.0000
  H   H17       1.0  0.05991033525937441  0.826161339203935  0.311982569372084  1.0000
  H   H18       1.0  0.18371232556285833  0.9371722175739663  0.3137768185774092  1.0000
  H   H19       1.0  0.184921697651049  0.3160873050141574  0.9310199914044047  1.0000
  H   H20       1.0  0.0622260181058962  0.31857370169875304  0.8186105347642397  1.0000
  H   H21       1.0  0.30720416047587673  0.062450600069084296  0.8158028511216245  1.0000
  H   H22       1.0  0.31112395704143836  0.1815292206261461  0.9315967966882965  1.0000
  H   H23       1.0  0.0624049009637275  0.19032423158693487  0.6835306153483671  1.0000
  H   H24       1.0  0.17143740509319372  0.0634887921797471  0.6894820575473234  1.0000
  H   H25       1.0  0.9730870668465882  0.6061794525960876  0.8601781744258757  1.0000
  H   H26       1.0  0.013083404565485101  0.5364936369282346  0.9059301659714123  1.0000
  H   H27       1.0  0.8974280989845482  0.61624846822356  0.9502098563074171  1.0000
  H   H28       1.0  0.9381678749841881  0.5576992854557332  0.9948808443813418  1.0000
  H   H29       1.0  0.9626392207996446  0.3932765392467487  0.1440176479622934  1.0000
  H   H30       1.0  0.009977111791513902  0.45639385048903586  0.0987450069000531  1.0000
  H   H31       1.0  0.889615860461646  0.3859409381930589  0.0517154941824742  1.0000
  H   H32       1.0  0.9300478479382832  0.4526571221888815  0.0121260111720574  1.0000
  H   H33       1.0  0.027965535966302503  0.6097153463015202  0.1443481657285943  1.0000
  H   H34       1.0  0.9824810170946989  0.5451414471879303  0.0980882204542652  1.0000
  H   H35       1.0  0.10134703916721581  0.617631584168919  0.05233521706293231  1.0000
  H   H36       1.0  0.06824677018451548  0.5477415652848094  0.0170175063377087  1.0000
  H   H37       1.0  0.14366320944348843  0.3959171473515751  0.9668973576902644  1.0000
  H   H38       1.0  0.0997138154174166  0.46348407354371085  0.011299565189901302  1.0000
  H   H39       1.0  0.0507613360320534  0.390663108531676  0.8940833395105728  1.0000
  H   H40       1.0  0.007275298653524902  0.4465994215886084  0.9397776516693738  1.0000
  H   H41       1.0  0.6084564860220071  0.9697618771892419  0.8573424837292407  1.0000
  H   H42       1.0  0.5419081310869701  0.013853823973008196  0.9024787635213869  1.0000
  H   H43       1.0  0.6172429464165957  0.8956178099652445  0.9487282563739683  1.0000
  H   H44       1.0  0.5500850689268404  0.9324518108790513  0.9877163251882736  1.0000
  H   H45       1.0  0.38702730905309574  0.0273378095373289  0.8579995125912278  1.0000
  H   H46       1.0  0.45386521281561454  0.9833624933610069  0.9029082877325082  1.0000
  H   H47       1.0  0.38214642938496723  0.10464562447989317  0.9467894728624913  1.0000
  H   H48       1.0  0.4468166057996327  0.06537461057752839  0.987397542427857  1.0000
  H   H49       1.0  0.6069221541172425  0.029326361659919097  0.1385884857411028  1.0000
  H   H50       1.0  0.5425576832562767  0.9838102007077578  0.0926907550990563  1.0000
  H   H51       1.0  0.6149399121173289  0.1035324069299364  0.0472248888500957  1.0000
  H   H52       1.0  0.5482183860705377  0.0659955084306745  0.0081091556564132  1.0000
  H   H53       1.0  0.389564436270213  0.9686371277730215  0.1385218733026008  1.0000
  H   H54       1.0  0.45457048325861393  0.013585852855491997  0.0928290357051296  1.0000
  H   H55       1.0  0.3806936108194776  0.8949654035306551  0.04707330073037501  1.0000
  H   H56       1.0  0.44803551693335203  0.9319176752667601  0.0081057770319504  1.0000
  H   H57       1.0  0.9696852202388441  0.8579308981473589  0.6037612120462725  1.0000
  H   H58       1.0  0.0123314308506934  0.9040875426668861  0.5363175964183711  1.0000
  H   H59       1.0  0.8984712356295788  0.95219544893758  0.615565164862062  1.0000
  H   H60       1.0  0.9354820900477491  0.9930700887038527  0.5539161327216036  1.0000
  H   H61       1.0  0.14372212613434954  0.9698733530014464  0.39569798627693586  1.0000
  H   H62       1.0  0.09778182991617261  0.0145770248083537  0.462363963337495  1.0000
  H   H63       1.0  0.0478227027723648  0.9020074615244197  0.3837945019424254  1.0000
  H   H64       1.0  0.009190771418126104  0.93784241520747  0.4471557099042087  1.0000
  H   H65       1.0  0.030090312509578603  0.14888694317244236  0.6008524489545835  1.0000
  H   H66       1.0  0.9857662734580759  0.10129268141843538  0.5353676430304333  1.0000
  H   H67       1.0  0.09635284108623672  0.0517553193769444  0.6175145889934939  1.0000
  H   H68       1.0  0.0639758032734719  0.013331465344123198  0.5524429783398475  1.0000
  H   H69       1.0  0.8539965943853645  0.0327663598452901  0.3959768859446342  1.0000
  H   H70       1.0  0.9002148817434731  0.990213493195483  0.4638026999379079  1.0000
  H   H71       1.0  0.9472561475715507  0.104369280016293  0.3849232276223232  1.0000
  H   H72       1.0  0.9890064132585649  0.06605959511262681  0.4455028098084455  1.0000
  C   C1        1.0  0.8484242319812056  0.6968075361623249  0.9031392372397491  1.0000
  C   C2        1.0  0.8922147214535698  0.668907062202308  0.887148666227432  1.0000
  C   C3        1.0  0.9072076590265327  0.6942926193714812  0.8418954856062016  1.0000
  C   C4        1.0  0.6954905436127845  0.9040669848241332  0.8404157421478402  1.0000
  C   C5        1.0  0.6698941846749876  0.8890642016172521  0.8855519411469003  1.0000
  C   C6        1.0  0.6978968693646834  0.8454465828482326  0.901867164712634  1.0000
  C   C7        1.0  0.9058373039328274  0.8426999032533826  0.6925679910190823  1.0000
  C   C8        1.0  0.8911528413897755  0.8882887320690922  0.6670320125981348  1.0000
  C   C9        1.0  0.8474698447805764  0.9050904586238244  0.6943542513089511  1.0000
  C   C10       1.0  0.8383633804501615  0.306538498183194  0.0991315638988297  1.0000
  C   C11       1.0  0.8818559618412111  0.3340959903602466  0.11547517116612478  1.0000
  C   C12       1.0  0.8966428812068089  0.3085682581993865  0.1608679796885824  1.0000
  C   C13       1.0  0.6911837775512808  0.09626657402351667  0.15709862874794572  1.0000
  C   C14       1.0  0.666041263702887  0.11097214477931058  0.111485262014142  1.0000
  C   C15       1.0  0.6926888502836588  0.1554041343214436  0.0961409631769499  1.0000
  C   C16       1.0  0.8996472772866468  0.1558305322041846  0.3063773052538963  1.0000
  C   C17       1.0  0.8835484948089346  0.11171741388969278  0.3331375576600308  1.0000
  C   C18       1.0  0.8384181575825523  0.09701567181256367  0.3071769399062063  1.0000
  C   C19       1.0  0.1522232262294452  0.6971311375692507  0.0988110981430808  1.0000
  C   C20       1.0  0.1085920901924169  0.6699515856131127  0.11544871765431  1.0000
  C   C21       1.0  0.09401328435983203  0.6957975560566606  0.16061703632524876  1.0000
  C   C22       1.0  0.304777267883793  0.9030766347349155  0.15708183230386646  1.0000
  C   C23       1.0  0.3293483318652264  0.8881534250714508  0.11129680938794452  1.0000
  C   C24       1.0  0.3015665872339283  0.844521594504336  0.09583365128084859  1.0000
  C   C25       1.0  0.0941323557556331  0.8490669288054277  0.3054841486430178  1.0000
  C   C26       1.0  0.1116239287065852  0.8924208852452863  0.3324675290025425  1.0000
  C   C27       1.0  0.15743773571941938  0.9056343803980693  0.3068719666177131  1.0000
  C   C28       1.0  0.15869472975082738  0.31004897354243605  0.8993102562622822  1.0000
  C   C29       1.0  0.11346481876511659  0.33707642475234667  0.8857091970737869  1.0000
  C   C30       1.0  0.0960688779877401  0.31092995190230255  0.8419062020539272  1.0000
  C   C31       1.0  0.3015565020591495  0.09573084731943739  0.8402094018599868  1.0000
  C   C32       1.0  0.328700280726153  0.1110026486705777  0.8843213428356124  1.0000
  C   C33       1.0  0.3031923060567436  0.15650448007966838  0.8993608291149897  1.0000
  C   C34       1.0  0.09341230773548397  0.163271714314277  0.6914658662858102  1.0000
  C   C35       1.0  0.10623807235900533  0.11663944538341298  0.6669844029489767  1.0000
  C   C36       1.0  0.1489725783365898  0.0984287482926263  0.6950079730625872  1.0000
  C   C37       1.0  0.9992249747544407  0.0025967215297270987  0.4997566590012781  1.0000
  C   C38       1.0  0.9997982176899642  0.5002001438324938  0.004100201846782199  1.0000
  C   C39       1.0  0.49831415133034085  0.9988139673702745  0.9976678247665235  1.0000
  C   C40       1.0  0.9151930753127501  0.6256269044821676  0.9134334743104516  1.0000
  C   C41       1.0  0.9560180165135462  0.5970760257234815  0.8973510666385137  1.0000
  C   C42       1.0  0.980752698855987  0.5553896786876393  0.9253391858400094  1.0000
  C   C43       1.0  0.9690828551049151  0.5391796754226802  0.9730746951573508  1.0000
  C   C44       1.0  0.9059305098008678  0.37650750655421916  0.08921181346698151  1.0000
  C   C45       1.0  0.9470987744330729  0.40336400769054137  0.1063699736742336  1.0000
  C   C46       1.0  0.9750622819325516  0.44326009746930584  0.07954033074283019  1.0000
  C   C47       1.0  0.9642348036685889  0.4644249055309188  0.0335318311626551  1.0000
  C   C48       1.0  0.0848943218776554  0.627097943507046  0.08971763741252659  1.0000
  C   C49       1.0  0.04427707400223821  0.5995073818746021  0.10707286144538132  1.0000
  C   C50       1.0  0.0182656352978441  0.5582167930028205  0.0804247511693745  1.0000
  C   C51       1.0  0.032861297229509  0.5356388106176624  0.0361101672443453  1.0000
  C   C52       1.0  0.08814811418643842  0.3799431826654284  0.9104328819928753  1.0000
  C   C53       1.0  0.10573218039881031  0.406259384835252  0.9516140986535291  1.0000
  C   C54       1.0  0.07865110560729961  0.4467379344548589  0.9791761419729282  1.0000
  C   C55       1.0  0.0300406947550655  0.4634248283739807  0.9706789694275884  1.0000
  C   C56       1.0  0.6266580144249901  0.9124729729688352  0.9115388411933196  1.0000
  C   C57       1.0  0.5986107581031419  0.9533322266532878  0.8946320559843316  1.0000
  C   C58       1.0  0.5569434081830168  0.9793224029969565  0.9213630513403288  1.0000
  C   C59       1.0  0.5359436575607645  0.9662759406148775  0.9668890227070932  1.0000
  C   C60       1.0  0.37143861390966026  0.08678261542660691  0.9104707085777122  1.0000
  C   C61       1.0  0.39789993337338103  0.04452193588620898  0.8946119436123253  1.0000
  C   C62       1.0  0.43936037139068423  0.0182251907113056  0.9214917651350306  1.0000
  C   C63       1.0  0.46071076074969136  0.03139547690972929  0.9667905228155932  1.0000
  C   C64       1.0  0.624160862178215  0.08674993959439797  0.084562978170311  1.0000
  C   C65       1.0  0.5970898817422495  0.04545055812977951  0.10110678293555961  1.0000
  C   C66       1.0  0.5564939044333741  0.018724415198441598  0.0740169963233512  1.0000
  C   C67       1.0  0.5350978641590346  0.03173163592733629  0.028567935808766303  1.0000
  C   C68       1.0  0.3716843994823265  0.9116962900618405  0.0844228136006393  1.0000
  C   C69       1.0  0.39932146867144513  0.9525264798455381  0.1010700460426719  1.0000
  C   C70       1.0  0.44025832644862106  0.9789104184860876  0.0741164911043342  1.0000
  C   C71       1.0  0.4614420704878057  0.965977270254605  0.0286168370269024  1.0000
  C   C72       1.0  0.9145930393513525  0.9141588296876363  0.624189471298635  1.0000
  C   C73       1.0  0.9541549226972208  0.8962267651087359  0.5952189759182644  1.0000
  C   C74       1.0  0.9794127245201807  0.9237490025715333  0.553939982001971  1.0000
  C   C75       1.0  0.9673636944278811  0.9714197721352774  0.5368212598428386  1.0000
  C   C76       1.0  0.08627445412238191  0.9167238819193526  0.3752665380194316  1.0000
  C   C77       1.0  0.1051222107416123  0.9555569689020371  0.4042572780410225  1.0000
  C   C78       1.0  0.0780581135732277  0.981596496381769  0.4454957530259946  1.0000
  C   C79       1.0  0.03067380575805601  0.9700117701845129  0.4633083726692035  1.0000
  C   C80       1.0  0.0821778282762509  0.0908654976320875  0.6244932969750182  1.0000
  C   C81       1.0  0.044228851291570906  0.10975915972601767  0.5939583287965675  1.0000
  C   C82       1.0  0.018956856350669696  0.08197530580404332  0.5529301735319194  1.0000
  C   C83       1.0  0.03143207186315071  0.0344473717347995  0.5358664415445205  1.0000
  C   C84       1.0  0.9095331216185799  0.08810722679829298  0.37603403060465723  1.0000
  C   C85       1.0  0.8920477349640236  0.048328680403479006  0.4047148448408678  1.0000
  C   C86       1.0  0.9197601677976549  0.022840016832617504  0.445977237970503  1.0000
  C   C87       1.0  0.9674901525567562  0.03448140974558099  0.4628034144317823  1.0000
  N   N1        1.0  0.8748447519638205  0.73385313753991  0.832146964732395  1.0000
  N   N2        1.0  0.8382406337872441  0.735450219221768  0.8701607493929302  1.0000
  N   N3        1.0  0.7368930997274462  0.8354838099004168  0.8692486063647422  1.0000
  N   N4        1.0  0.7353855977963165  0.8720125671320814  0.8311355096747519  1.0000
  N   N5        1.0  0.8369555903326572  0.8721241516592569  0.7327312878679777  1.0000
  N   N6        1.0  0.8733797320418687  0.8334520345709745  0.7316576907434326  1.0000
  N   N7        1.0  0.8646136801771503  0.26913632171182666  0.1702785612731077  1.0000
  N   N8        1.0  0.8282806239345321  0.2678968223139719  0.1319992024854528  1.0000
  N   N9        1.0  0.7304166379645383  0.1661363188096701  0.1298225277792753  1.0000
  N   N10       1.0  0.7294863390118279  0.12930447771424977  0.1676211504522982  1.0000
  N   N11       1.0  0.8287582816595747  0.129864570017034  0.2683763422321235  1.0000
  N   N12       1.0  0.8666886505507562  0.16656806744796165  0.267909128855031  1.0000
  N   N13       1.0  0.1263907347736506  0.7350228031631405  0.1697017912578858  1.0000
  N   N14       1.0  0.1626930308907362  0.7357859542401926  0.1313977975761347  1.0000
  N   N15       1.0  0.2636971024713901  0.8344580289595739  0.1295795988448418  1.0000
  N   N16       1.0  0.2657052970390268  0.8709254065010584  0.16756716155116178  1.0000
  N   N17       1.0  0.16621475900041102  0.8726628264313446  0.26808542351732  1.0000
  N   N18       1.0  0.12698740813059567  0.837349417768287  0.2672571462910582  1.0000
  N   N19       1.0  0.12828186196755811  0.27170771220892215  0.8304714995151413  1.0000
  N   N20       1.0  0.16712143799647813  0.2712029790043289  0.8662686647637159  1.0000
  N   N21       1.0  0.26423399404055914  0.1673228813948597  0.8669245708961527  1.0000
  N   N22       1.0  0.26318126158262334  0.12943402576294719  0.830285379661362  1.0000
  N   N23       1.0  0.160667587252334  0.13155122552939957  0.7327921247458135  1.0000
  N   N24       1.0  0.1259515822465858  0.1717349273815998  0.7306752749555586  1.0000
