data_image0
_chemical_formula_structural       Zn2H30C38N10O8
_chemical_formula_sum              "Zn2 H30 C38 N10 O8"
_cell_length_a       11.082381833866924
_cell_length_b       15.956178281509324
_cell_length_c       17.29496276360085
_cell_angle_alpha    96.2504280408492
_cell_angle_beta     89.3967589406489
_cell_angle_gamma    93.30661103030633

_space_group_name_H-M_alt    "P 1"
_space_group_IT_number       1

loop_
  _space_group_symop_operation_xyz
  'x, y, z'

loop_
  _atom_site_type_symbol
  _atom_site_label
  _atom_site_symmetry_multiplicity
  _atom_site_fract_x
  _atom_site_fract_y
  _atom_site_fract_z
  _atom_site_occupancy
  Zn  Zn1       1.0  0.4944596343611138  0.4095954435206508  0.5044184836686654  1.0000
  Zn  Zn2       1.0  0.5038358026680143  0.5891088285830363  0.5072450550898822  1.0000
  H   H1        1.0  0.3765418371526509  0.713085054511865  0.43936858798155504  1.0000
  H   H2        1.0  0.37386308168279214  0.8707923129137852  0.4377933034289256  1.0000
  H   H3        1.0  0.6829611544848504  0.8953423606174126  0.589763579356699  1.0000
  H   H4        1.0  0.32863859398791817  0.1027706021711339  0.408537360920235  1.0000
  H   H5        1.0  0.625809338104304  0.1267815389158997  0.5698784628007374  1.0000
  H   H6        1.0  0.6182543093729437  0.28494722869661626  0.5729917222925422  1.0000
  H   H7        1.0  0.5086445653028518  0.6197392357494635  0.2664805629975291  1.0000
  H   H8        1.0  0.5071300918989792  0.6163673975241155  0.12083496851114722  1.0000
  H   H9        1.0  0.4942010634422972  0.3453786720446388  0.10155382850005168  1.0000
  H   H10       1.0  0.5137877641967065  0.65897214984939  0.9096803921408635  1.0000
  H   H11       1.0  0.4924934627565277  0.3879130742784085  0.8899339496047602  1.0000
  H   H12       1.0  0.49010657297676374  0.38493867958948863  0.7443593375204571  1.0000
  H   H13       1.0  0.7769064659816821  0.5997991844984512  0.3994804410785449  1.0000
  H   H14       1.0  0.22429046341463985  0.6015367985890376  0.3882590428134804  1.0000
  H   H15       1.0  0.1101069590424899  0.4016419547005299  0.5668316867501489  1.0000
  H   H16       1.0  0.8841460047609078  0.39718746141886635  0.5700281582773953  1.0000
  H   H17       1.0  0.7090791379838137  0.6643969604841472  0.5720371029134057  1.0000
  H   H18       1.0  0.7665513495983873  0.7623809938063316  0.6150627571116871  1.0000
  H   H19       1.0  0.2955628902777505  0.3327733414630458  0.43085573655037723  1.0000
  H   H20       1.0  0.24517821214731583  0.2351636648691482  0.38265255316566993  1.0000
  H   H21       1.0  0.4991776005303096  0.33417217557066436  0.3111520308835978  1.0000
  H   H22       1.0  0.5047226478383493  0.27708287324774966  0.2182270111433269  1.0000
  H   H23       1.0  0.505909364121031  0.6710774799509663  0.7005429558494995  1.0000
  H   H24       1.0  0.5043875638829222  0.7277297121937992  0.7936678960646759  1.0000
  H   H25       1.0  0.895736467321349  0.7707370137719991  0.3109049052608626  1.0000
  H   H26       1.0  0.7714315926744106  0.6945015702379534  0.30805679395240293  1.0000
  H   H27       1.0  0.8873772798878576  0.685843708651596  0.2362885898140377  1.0000
  H   H28       1.0  0.1075394317102578  0.6872289219122577  0.2301834627284265  1.0000
  H   H29       1.0  0.2338488047684422  0.6925647696842248  0.2933222850077684  1.0000
  H   H30       1.0  0.1250508543645665  0.7710036160482973  0.3054607301885568  1.0000
  C   C1        1.0  0.5049800242062403  0.4936613500056169  0.3528734108773079  1.0000
  C   C2        1.0  0.2610928883607926  0.5014695272550682  0.49548720946341257  1.0000
  C   C3        1.0  0.4962790343579542  0.5112150631364616  0.6580276871409226  1.0000
  C   C4        1.0  0.7371261169953629  0.4912257443788021  0.5038428028367008  1.0000
  C   C5        1.0  0.4432350915024444  0.7562412491458377  0.47110529949950575  1.0000
  C   C6        1.0  0.44108073913859863  0.8424697893918419  0.47037637252548586  1.0000
  C   C7        1.0  0.529552464374838  0.8930741175593724  0.5147616129231949  1.0000
  C   C8        1.0  0.6147497805130655  0.8557408052361382  0.5558464834764578  1.0000
  C   C9        1.0  0.6134303578581637  0.766569611451146  0.5516763586108979  1.0000
  C   C10       1.0  0.39370832153861113  0.14228241530994268  0.4451507018100855  1.0000
  C   C11       1.0  0.4766891147007328  0.10481579308625298  0.48780121426759854  1.0000
  C   C12       1.0  0.5605699024599035  0.1553573415243505  0.5359731521738027  1.0000
  C   C13       1.0  0.5556780756164272  0.2417005911519183  0.5378115949212514  1.0000
  C   C14       1.0  0.3924063137692714  0.23145142677096692  0.4516211180698164  1.0000
  C   C15       1.0  0.5018407137069191  0.48556240035819087  0.26674954130330514  1.0000
  C   C16       1.0  0.505058018973088  0.5599881985548122  0.22918968298515807  1.0000
  C   C17       1.0  0.5045397024817788  0.5587903922390611  0.14926307881604833  1.0000
  C   C18       1.0  0.5011312920572024  0.47964535082205373  0.1036985435865674  1.0000
  C   C19       1.0  0.4974742808781585  0.40516463664312863  0.1389373256879907  1.0000
  C   C20       1.0  0.49691186517739544  0.4056777173054726  0.2206016182698178  1.0000
  C   C21       1.0  0.5084942468233038  0.5992491965676547  0.8722057517883428  1.0000
  C   C22       1.0  0.5028719530065616  0.5246556718682671  0.9073427522073062  1.0000
  C   C23       1.0  0.4967696437324706  0.4456098816850016  0.8616338687721381  1.0000
  C   C24       1.0  0.4957162942716664  0.44463598521117115  0.7817023458415662  1.0000
  C   C25       1.0  0.5007476617754705  0.5191303416706887  0.7442461946071431  1.0000
  C   C26       1.0  0.5083641009755978  0.5989203206452702  0.7905701419205542  1.0000
  C   C27       1.0  0.8716749737699203  0.4940574602052195  0.4947324687143322  1.0000
  C   C28       1.0  0.9348206521000366  0.5495366342488239  0.4463768957102232  1.0000
  C   C29       1.0  0.9345518530105679  0.4403298246571695  0.5352159942201737  1.0000
  C   C30       1.0  0.8752713074769078  0.6006771582364508  0.3980973785007507  1.0000
  C   C31       1.0  0.9373483039798388  0.6506954689931276  0.34875141208360116  1.0000
  C   C32       1.0  0.1261951696636459  0.4980344361855984  0.4898601137376701  1.0000
  C   C33       1.0  0.06126960638949439  0.44248035947629205  0.5331044635663744  1.0000
  C   C34       1.0  0.06458642867629291  0.5508581907280359  0.4435067790742551  1.0000
  C   C35       1.0  0.1261534788297709  0.6020077292885162  0.3917772899962628  1.0000
  C   C36       1.0  0.066438638858493  0.6509911869602263  0.34516827542017137  1.0000
  C   C37       1.0  0.8692311370458372  0.7030109878479252  0.2985578027606692  1.0000
  C   C38       1.0  0.13699105793873662  0.7030055773631504  0.29086207048290197  1.0000
  N   N1        1.0  0.5257336542373352  0.7184763855367109  0.5107725786232962  1.0000
  N   N2        1.0  0.5399640817093925  0.9826473093618944  0.5218936763518371  1.0000
  N   N3        1.0  0.46744477176234517  0.0151708965137729  0.4794837696197334  1.0000
  N   N4        1.0  0.4749946298025378  0.2797049918802371  0.49687957362187524  1.0000
  N   N5        1.0  0.5007986008083449  0.4681071954601422  0.02138648157392711  1.0000
  N   N6        1.0  0.5035440294881823  0.5360924975417022  0.989631510625486  1.0000
  N   N7        1.0  0.6968248826635203  0.7271802990834857  0.5888004273449852  1.0000
  N   N8        1.0  0.3110940029204201  0.2707139547883841  0.4126570200040476  1.0000
  N   N9        1.0  0.489202157853633  0.33088552775239316  0.2523897197664057  1.0000
  N   N10       1.0  0.5183931685040263  0.6739414758038579  0.759057691779894  1.0000
  O   O1        1.0  0.5034048020682107  0.4259321897939046  0.3869837244248728  1.0000
  O   O2        1.0  0.509434857794929  0.5680228962933285  0.3890592817660945  1.0000
  O   O3        1.0  0.3177601940651869  0.5732353131671317  0.5021068286696888  1.0000
  O   O4        1.0  0.3101217867789288  0.4306937013446799  0.49551034970356517  1.0000
  O   O5        1.0  0.4954825485658745  0.5793100215223744  0.6245188021993472  1.0000
  O   O6        1.0  0.49296454487804203  0.4371114767641443  0.6214889501094305  1.0000
  O   O7        1.0  0.6821278417250839  0.419206057904006  0.5031681825709385  1.0000
  O   O8        1.0  0.6864446895146515  0.5618360317730762  0.512790683004596  1.0000
