data_image0
_chemical_formula_structural       Sm2Cu2H44C36I2N10O18
_chemical_formula_sum              "Sm2 Cu2 H44 C36 I2 N10 O18"
_cell_length_a       10.854131354811583
_cell_length_b       11.857156914841939
_cell_length_c       14.665491158632944
_cell_angle_alpha    82.48787218316494
_cell_angle_beta     85.14146830339874
_cell_angle_gamma    68.06300077952459

_space_group_name_H-M_alt    "P 1"
_space_group_IT_number       1

loop_
  _space_group_symop_operation_xyz
  'x, y, z'

loop_
  _atom_site_type_symbol
  _atom_site_label
  _atom_site_symmetry_multiplicity
  _atom_site_fract_x
  _atom_site_fract_y
  _atom_site_fract_z
  _atom_site_occupancy
  Sm  Sm1       1.0  0.9029137448193721  0.38107287577400223  0.035879840821571925  1.0000
  Sm  Sm2       1.0  0.09707795313291717  0.6189313670561558  0.964116425488271  1.0000
  Cu  Cu1       1.0  0.51361194216026  0.9979905369801542  0.4133111677468123  1.0000
  Cu  Cu2       1.0  0.48639961848491703  0.0020107949111647008  0.5866880648901541  1.0000
  H   H1        1.0  0.5611125075536734  0.2002286584052938  0.2972047053995297  1.0000
  H   H2        1.0  0.4389175226251039  0.7997593528218586  0.7027783223988776  1.0000
  H   H3        1.0  0.4574095985819042  0.34759509073064265  0.1619622935710865  1.0000
  H   H4        1.0  0.5426014543841831  0.6524005746258581  0.8380267102408326  1.0000
  H   H5        1.0  0.13086962332166507  0.21880678433600312  0.1997273115119427  1.0000
  H   H6        1.0  0.8691233940129592  0.7812060193008463  0.8002903877537477  1.0000
  H   H7        1.0  0.2520476278899224  0.07164591759671879  0.3304287331575395  1.0000
  H   H8        1.0  0.7479615069407828  0.9283572517320308  0.6695820613984225  1.0000
  H   H9        1.0  0.788234169344065  0.9411364819283037  0.3375354944629336  1.0000
  H   H10       1.0  0.21177594745128664  0.05885368235383478  0.6624719351567521  1.0000
  H   H11       1.0  0.9306483512903015  0.8059280787455021  0.2194462562385766  1.0000
  H   H12       1.0  0.06935645571891773  0.19406556876524653  0.7805570745061842  1.0000
  H   H13       1.0  0.6582790392757475  0.6166180282466555  0.24880599022378647  1.0000
  H   H14       1.0  0.3417226562089653  0.3833746151323821  0.7512051845552178  1.0000
  H   H15       1.0  0.523193298702914  0.7625214205649369  0.3639554328321212  1.0000
  H   H16       1.0  0.47681249298710776  0.23747047608031827  0.6360589363002801  1.0000
  H   H17       1.0  0.2790306112331393  0.06768475680092931  0.07654585512710808  1.0000
  H   H18       1.0  0.7209643318060375  0.9323140104784213  0.9234467048989713  1.0000
  H   H19       1.0  0.3982629151914382  0.9942212146367664  0.9893758666124058  1.0000
  H   H20       1.0  0.6017335658447891  0.005780406024058504  0.01061693767507421  1.0000
  H   H21       1.0  0.3354148913715422  0.9053005165720259  0.07444108800252995  1.0000
  H   H22       1.0  0.6645756285303149  0.09470176012172969  0.9255459412287336  1.0000
  H   H23       1.0  0.14261629700102665  0.9532048603015253  0.8606499330235878  1.0000
  H   H24       1.0  0.8573851515506236  0.04678949784376841  0.139339924066185  1.0000
  H   H25       1.0  0.26668747135672527  0.8366068976113822  0.9277735077719881  1.0000
  H   H26       1.0  0.7333096724816669  0.16339755503629041  0.07222165326460582  1.0000
  H   H27       1.0  0.31001579397137374  0.9480011540601723  0.8509550926405041  1.0000
  H   H28       1.0  0.6899848875241333  0.0519950459825864  0.14903665685027076  1.0000
  H   H29       1.0  0.010113426923801697  0.10322618426580729  0.9332678833129506  1.0000
  H   H30       1.0  0.9898820084775791  0.8967902328663937  0.06671785730674178  1.0000
  H   H31       1.0  0.5645440445025898  0.3350540919237375  0.9763240699629064  1.0000
  H   H32       1.0  0.4354585325993696  0.664955282754988  0.023679679493120914  1.0000
  H   H33       1.0  0.4860302099802211  0.28917030693523316  0.892642350289627  1.0000
  H   H34       1.0  0.5139657954014751  0.7108350955736639  0.1073630153973113  1.0000
  H   H35       1.0  0.44492506689576333  0.4472557527477078  0.902218093171591  1.0000
  H   H36       1.0  0.5550696790893923  0.5527523670914007  0.0977836457225223  1.0000
  H   H37       1.0  0.6827683540230539  0.4243469341361885  0.7078794048050128  1.0000
  H   H38       1.0  0.31721843736785627  0.5756515256036394  0.29211583398268454  1.0000
  H   H39       1.0  0.5127725550196303  0.49681387414220524  0.7443162448794141  1.0000
  H   H40       1.0  0.48721852594620424  0.5031875558657503  0.2556803869526121  1.0000
  H   H41       1.0  0.5717987295787808  0.34459962272567407  0.7116115704505859  1.0000
  H   H42       1.0  0.42818663078519853  0.6554025639294848  0.2883935782495115  1.0000
  H   H43       1.0  0.827057202706925  0.3429082686468376  0.8117038598287678  1.0000
  H   H44       1.0  0.1729326151779702  0.6571089482529756  0.18829652276940576  1.0000
  C   C1        1.0  0.4677225548290949  0.20486797915226151  0.2714136747586124  1.0000
  C   C2        1.0  0.5322997282951507  0.7951253479497709  0.7285761355160433  1.0000
  C   C3        1.0  0.40863560679196814  0.2879463421933721  0.1972859889102949  1.0000
  C   C4        1.0  0.5913762006077121  0.7120521934792166  0.8027108161933184  1.0000
  C   C5        1.0  0.2854352650296335  0.2946289579015726  0.16941841357524373  1.0000
  C   C6        1.0  0.7145633837911946  0.7053746982018649  0.8305883209813345  1.0000
  C   C7        1.0  0.2273217455746064  0.21582832307946376  0.2176924884545883  1.0000
  C   C8        1.0  0.7726790263837205  0.7841726322972488  0.7823150798392859  1.0000
  C   C9        1.0  0.29383427825947456  0.13412885084748175  0.2902851947010561  1.0000
  C   C10       1.0  0.7061750499408532  0.8658780354831634  0.7097237985458378  1.0000
  C   C11       1.0  0.21664624470480487  0.38754866367646895  0.09313189661967411  1.0000
  C   C12       1.0  0.7833536990429621  0.6124475724655196  0.9068701321726849  1.0000
  C   C13       1.0  0.7621389546658508  0.8693524839927913  0.31418527078000846  1.0000
  C   C14       1.0  0.23786595542873107  0.13064120663836576  0.6858241850751626  1.0000
  C   C15       1.0  0.8405066111023487  0.7942209438440099  0.2496994473746882  1.0000
  C   C16       1.0  0.1594986234084601  0.20577833666346373  0.7503093482203482  1.0000
  C   C17       1.0  0.8019679345582346  0.7036663977678826  0.2227732557139888  1.0000
  C   C18       1.0  0.1980268597584214  0.29633338867891  0.7772342021529681  1.0000
  C   C19       1.0  0.6878230799880001  0.6892939353477769  0.2657602802154031  1.0000
  C   C20       1.0  0.31218613365122394  0.3106943777857083  0.7342542459534657  1.0000
  C   C21       1.0  0.6139136234622384  0.7686087410839232  0.328982488810759  1.0000
  C   C22       1.0  0.38608667012540815  0.23138474195974368  0.6710232375586642  1.0000
  C   C23       1.0  0.8775733302978138  0.6264708743108685  0.14826591718347262  1.0000
  C   C24       1.0  0.1224227628305528  0.3735280293508722  0.8517408639826485  1.0000
  C   C25       1.0  0.3100116805880972  0.9939004705661741  0.03200197789341533  1.0000
  C   C26       1.0  0.6899825233561714  0.006101968364653506  0.9679874904721898  1.0000
  C   C27       1.0  0.2325735773792274  0.9327580363752472  0.8985875397898582  1.0000
  C   C28       1.0  0.7674232814581072  0.06724266094127529  0.10140397801320944  1.0000
  C   C29       1.0  0.0820822660649725  0.09653572753748559  0.9844612290158921  1.0000
  C   C30       1.0  0.9179174779344309  0.9034771322687402  0.015523236720383738  1.0000
  C   C31       1.0  0.5258721236656072  0.3574609263877661  0.9070820211331637  1.0000
  C   C32       1.0  0.47412497318845925  0.6425482240999827  0.09292079189264511  1.0000
  C   C33       1.0  0.5977127308705475  0.4094305992187797  0.7457607869379714  1.0000
  C   C34       1.0  0.4022761875426255  0.590571696970727  0.25423931465041255  1.0000
  C   C35       1.0  0.7569387749751544  0.32737820029876724  0.8664908332047929  1.0000
  C   C36       1.0  0.24305352850965525  0.6726288505624538  0.1335043870150372  1.0000
  I   I1        1.0  0.6558502740058288  0.09358763591107079  0.49515656369784006  1.0000
  I   I2        1.0  0.34415348231517134  0.9064189878993569  0.5048460485762477  1.0000
  N   N1        1.0  0.4123582760093853  0.1278639638689896  0.3174614082795983  1.0000
  N   N2        1.0  0.5876594797235627  0.8721375465317536  0.6825271203503432  1.0000
  N   N3        1.0  0.648115538148808  0.8595033906452654  0.35186036052840564  1.0000
  N   N4        1.0  0.35189882492154106  0.140481372183423  0.6481487365658722  1.0000
  N   N5        1.0  0.20269971275844512  0.011674071015932003  0.972113149460867  1.0000
  N   N6        1.0  0.7972935816291483  0.9883283321467857  0.02787638968897711  1.0000
  N   N7        1.0  0.6326307080295805  0.3608337110255988  0.8405914278562178  1.0000
  N   N8        1.0  0.3673592599250028  0.6391788511545399  0.1594074278631439  1.0000
  N   N9        1.0  0.7668901441480782  0.3265401839520904  0.20789609457346359  1.0000
  N   N10       1.0  0.2331087271504161  0.6734457766169581  0.7921058189522725  1.0000
  O   O1        1.0  0.2707213796740645  0.4611315743430922  0.0551665693385459  1.0000
  O   O2        1.0  0.7292607750181972  0.5388779224080478  0.9448379821516683  1.0000
  O   O3        1.0  0.10335689128231  0.39373779377679335  0.06938294479969903  1.0000
  O   O4        1.0  0.8966459834214433  0.6062520987339324  0.9306270927973657  1.0000
  O   O5        1.0  0.9776944236203136  0.6479788997268726  0.1101547985652047  1.0000
  O   O6        1.0  0.022289682400504822  0.3520278244302018  0.8898403781449531  1.0000
  O   O7        1.0  0.8341797703522003  0.5478893595793222  0.12752784436536052  1.0000
  O   O8        1.0  0.16582769795063979  0.45210073093658537  0.8724845615817998  1.0000
  O   O9        1.0  0.04925073867939739  0.16425033934644517  0.0483487285299091  1.0000
  O   O10       1.0  0.950753567073086  0.8357543515345467  0.9516390605545412  1.0000
  O   O11       1.0  0.7955585906689677  0.2824047344500897  0.9464070750123668  1.0000
  O   O12       1.0  0.2044352317898017  0.7176116973867008  0.053591057396616314  1.0000
  O   O13       1.0  0.8935252264498671  0.2960193827268611  0.20200810900219324  1.0000
  O   O14       1.0  0.10647589126319455  0.7039526756370618  0.7979877211829772  1.0000
  O   O15       1.0  0.7068387938526045  0.3621470861812525  0.13031408388533808  1.0000
  O   O16       1.0  0.2931585383020376  0.6378592632966188  0.8696856210393021  1.0000
  O   O17       1.0  0.7047081142242676  0.32296942547434065  0.28181982329243027  1.0000
  O   O18       1.0  0.2952979812895365  0.6770000921699049  0.7181841145233747  1.0000
