data_image0
_chemical_formula_structural       Cu2H28C44N8O10
_chemical_formula_sum              "Cu2 H28 C44 N8 O10"
_cell_length_a       8.699346651713753
_cell_length_b       10.849807598923036
_cell_length_c       11.606768846548503
_cell_angle_alpha    102.53634571146215
_cell_angle_beta     105.32895896244133
_cell_angle_gamma    108.06813538567691

_space_group_name_H-M_alt    "P 1"
_space_group_IT_number       1

loop_
  _space_group_symop_operation_xyz
  'x, y, z'

loop_
  _atom_site_type_symbol
  _atom_site_label
  _atom_site_symmetry_multiplicity
  _atom_site_fract_x
  _atom_site_fract_y
  _atom_site_fract_z
  _atom_site_occupancy
  Cu  Cu1       1.0  0.7934823734687554  0.04973833989799909  0.24040254983420792  1.0000
  Cu  Cu2       1.0  0.2065171390126892  0.9502605273682009  0.7595985444151412  1.0000
  H   H1        1.0  0.9322839256483988  0.8522938207697521  0.10485410724157876  1.0000
  H   H2        1.0  0.067709976981142  0.1477081239928566  0.8951438800682824  1.0000
  H   H3        1.0  0.19332542331976296  0.796592357722936  0.17234180848352312  1.0000
  H   H4        1.0  0.8066654577452682  0.20340343367524838  0.8276543147369396  1.0000
  H   H5        1.0  0.39646941546175185  0.9058825717014615  0.3948462995355655  1.0000
  H   H6        1.0  0.6035235444365129  0.09411015100322119  0.605148764813791  1.0000
  H   H7        1.0  0.34316598698939765  0.08244859400322468  0.5449557032168431  1.0000
  H   H8        1.0  0.6568327389058477  0.9175461826384531  0.45504181662437293  1.0000
  H   H9        1.0  0.2931257334260238  0.2525283662890132  0.6483367812193209  1.0000
  H   H10       1.0  0.7068727367091581  0.7474684397807393  0.35166626724910804  1.0000
  H   H11       1.0  0.9079434631672285  0.4297573477325257  0.6243083988161474  1.0000
  H   H12       1.0  0.09205946520520301  0.5702435804587154  0.37569208754219835  1.0000
  H   H13       1.0  0.6319698845536621  0.38420839288851016  0.5028399558170591  1.0000
  H   H14       1.0  0.3680323547808086  0.6157935593200108  0.49716059732251955  1.0000
  H   H15       1.0  0.3357647015752433  0.32475117241725115  0.3444931526682282  1.0000
  H   H16       1.0  0.6642358180943688  0.6752497459704258  0.6555085629442631  1.0000
  H   H17       1.0  0.23573905553907076  0.14346967531751176  0.13502315245722232  1.0000
  H   H18       1.0  0.7642624947574388  0.8565333009082823  0.8649774674635894  1.0000
  H   H19       1.0  0.4287679376130455  0.026748346144771097  0.09039068436872813  1.0000
  H   H20       1.0  0.5712348053155053  0.9732546316244847  0.9096101794524145  1.0000
  H   H21       1.0  0.4629068200045765  0.4726235577227342  0.7535809646361998  1.0000
  H   H22       1.0  0.5370899539044697  0.527372221242814  0.24642152925033398  1.0000
  H   H23       1.0  0.6402417869331032  0.6610778904039947  0.9531169524921099  1.0000
  H   H24       1.0  0.35975789927284296  0.33891892392586687  0.046884622821842484  1.0000
  H   H25       1.0  0.18253785903356604  0.6330235137956706  0.0421408336188946  1.0000
  H   H26       1.0  0.8174624869115378  0.36697945752834465  0.9578604009289936  1.0000
  H   H27       1.0  0.0017874752848569928  0.45433115370541804  0.8362523192621227  1.0000
  H   H28       1.0  0.9982116780282125  0.5456718160751279  0.1637486713854274  1.0000
  C   C1        1.0  0.026950733270311198  0.9020570784037784  0.20077262642055863  1.0000
  C   C2        1.0  0.9730481253312745  0.09794282295467127  0.7992259590278226  1.0000
  C   C3        1.0  0.17132082958178055  0.8699129939304978  0.23937316866690136  1.0000
  C   C4        1.0  0.828672952060785  0.13008382947366925  0.7606228945083873  1.0000
  C   C5        1.0  0.2857149422231656  0.9331316839792052  0.36408834939553714  1.0000
  C   C6        1.0  0.7142802174953145  0.06686309139041667  0.6359075802172854  1.0000
  C   C7        1.0  0.2577123408845238  0.031213968271075  0.4462074573588455  1.0000
  C   C8        1.0  0.7422863967300869  0.9687808117289263  0.5537892039549703  1.0000
  C   C9        1.0  0.1141493684510024  0.06238732329824612  0.40022041983422  1.0000
  C   C10       1.0  0.8858508565071258  0.9376105266673203  0.5997788905790955  1.0000
  C   C11       1.0  0.0719955732115451  0.1672744680773022  0.47408423532724714  1.0000
  C   C12       1.0  0.9280051319019407  0.832724400732353  0.5259171028224401  1.0000
  C   C13       1.0  0.1725102680719672  0.25781699920787554  0.5956117882782196  1.0000
  C   C14       1.0  0.8274899100087081  0.7421808373243975  0.4043909562447041  1.0000
  C   C15       1.0  0.11311736759267883  0.3534684642874878  0.6515234871550037  1.0000
  C   C16       1.0  0.8868816412946784  0.6465293774179769  0.3484772964127885  1.0000
  C   C17       1.0  0.9530634433018862  0.35377611904831946  0.5831498713039454  1.0000
  C   C18       1.0  0.04693946163181532  0.6462248024262747  0.416852332109201  1.0000
  C   C19       1.0  0.8575222236133939  0.258363175419646  0.4625291221772515  1.0000
  C   C20       1.0  0.14248000400171176  0.7416387734305515  0.5374722894897275  1.0000
  C   C21       1.0  0.6847159795967386  0.23708881731568  0.37857674609631436  1.0000
  C   C22       1.0  0.31528507882505596  0.762913136707702  0.621422704615533  1.0000
  C   C23       1.0  0.5829714477715768  0.3059733758352151  0.41061347096552236  1.0000
  C   C24       1.0  0.4170300908055751  0.6940295970322552  0.5893880074826896  1.0000
  C   C25       1.0  0.41887731035412645  0.27257134496327495  0.32332223904881374  1.0000
  C   C26       1.0  0.5811265900483775  0.7274316242744732  0.676681444254868  1.0000
  C   C27       1.0  0.3614465880102812  0.17171764713429377  0.20664804829795  1.0000
  C   C28       1.0  0.6385544586921481  0.8282843035307651  0.7933522609412976  1.0000
  C   C29       1.0  0.4690026659088318  0.10617766842076289  0.18044976667874127  1.0000
  C   C30       1.0  0.5309988843876852  0.8938253078050309  0.8195508532420707  1.0000
  C   C31       1.0  0.21887129190933757  0.45307816909413395  0.7782848691937904  1.0000
  C   C32       1.0  0.7811277169780196  0.5469196726113239  0.22171591437400204  1.0000
  C   C33       1.0  0.400193073544841  0.5087724180973153  0.8155850229047631  1.0000
  C   C34       1.0  0.5998059470618885  0.4912254269664659  0.18441490213562167  1.0000
  C   C35       1.0  0.5006112616825148  0.6152044345565028  0.9283115555886569  1.0000
  C   C36       1.0  0.4993872553301271  0.38479238494654305  0.07168805877016377  1.0000
  C   C37       1.0  0.4226353607704283  0.6635051258451413  0.009232457693030863  1.0000
  C   C38       1.0  0.5773658713758747  0.33649477524190263  0.9907674740834198  1.0000
  C   C39       1.0  0.24368326470891322  0.5997481346821373  0.9778921073414325  1.0000
  C   C40       1.0  0.7563177819935163  0.40025381598292137  0.02210820189781508  1.0000
  C   C41       1.0  0.14188545245843898  0.4981094154965007  0.8620132557469377  1.0000
  C   C42       1.0  0.8581133827044097  0.5018904791452954  0.1379870467562512  1.0000
  C   C43       1.0  0.5292504434634395  0.7878492015754189  0.12423778798656572  1.0000
  C   C44       1.0  0.4707529650643493  0.21215274545991755  0.8757647261081446  1.0000
  N   N1        1.0  0.012129896591965032  0.2675051422732437  0.15191392024205191  1.0000
  N   N2        1.0  0.9878673009415805  0.7324937420559721  0.8480815350422262  1.0000
  N   N3        1.0  0.9993835995598561  0.9954528150151348  0.2799079247610052  1.0000
  N   N4        1.0  0.0006138692464431971  0.004549131019537399  0.7200916527772494  1.0000
  N   N5        1.0  0.9198443201818165  0.1700408314156974  0.41205598574026686  1.0000
  N   N6        1.0  0.08015623464589791  0.8299600970469498  0.5879431542900094  1.0000
  N   N7        1.0  0.6257824761692347  0.13800652505130978  0.26426540522921027  1.0000
  N   N8        1.0  0.37422264030404045  0.8619964524465472  0.7357368049200022  1.0000
  O   O1        1.0  0.8806028238867041  0.15194355265970924  0.10477383327395276  1.0000
  O   O2        1.0  0.1193969774461506  0.8480655707566667  0.895227675134933  1.0000
  O   O3        1.0  0.08689152119464438  0.31077418519807043  0.08084908423482769  1.0000
  O   O4        1.0  0.9131041596965801  0.6892288101770132  0.9191434479651123  1.0000
  O   O5        1.0  0.06416217867261047  0.3353105241322041  0.2680008752848125  1.0000
  O   O6        1.0  0.9358511828166481  0.6646945372561672  0.7319974099376978  1.0000
  O   O7        1.0  0.5066068130134909  0.7964777206168703  0.22743844095544563  1.0000
  O   O8        1.0  0.49339665997118937  0.20351705548200977  0.772561771541895  1.0000
  O   O9        1.0  0.6408606805380828  0.882481590164481  0.10187971815072665  1.0000
  O   O10       1.0  0.35913233003097383  0.1175162337486952  0.898122421497611  1.0000
