data_image0
_chemical_formula_structural       Zn4H48C60N12O16
_chemical_formula_sum              "Zn4 H48 C60 N12 O16"
_cell_length_a       7.15231683502079
_cell_length_b       12.45270952451444
_cell_length_c       15.949890611667907
_cell_angle_alpha    100.63087867932757
_cell_angle_beta     89.99973814506193
_cell_angle_gamma    89.99997461214996

_space_group_name_H-M_alt    "P 1"
_space_group_IT_number       1

loop_
  _space_group_symop_operation_xyz
  'x, y, z'

loop_
  _atom_site_type_symbol
  _atom_site_label
  _atom_site_symmetry_multiplicity
  _atom_site_fract_x
  _atom_site_fract_y
  _atom_site_fract_z
  _atom_site_occupancy
  Zn  Zn1       1.0  0.9605602293684041  0.8576837305380139  0.7442132304985237  1.0000
  Zn  Zn2       1.0  0.4605615917024295  0.1423156447339196  0.7557887325381714  1.0000
  Zn  Zn3       1.0  0.0394348355807637  0.14231580626004361  0.2557881085115313  1.0000
  Zn  Zn4       1.0  0.5394376676981381  0.8576838706824571  0.24421134956812549  1.0000
  H   H1        1.0  0.6734121801403105  0.20590651096620152  0.061770833023700816  1.0000
  H   H2        1.0  0.17341825118132445  0.7940955951112727  0.4382336878403166  1.0000
  H   H3        1.0  0.3265898755496507  0.7940971000997977  0.9382304248785049  1.0000
  H   H4        1.0  0.8265879989323393  0.2059072737908778  0.561771859734499  1.0000
  H   H5        1.0  0.5556594220618152  0.7444768298987086  0.7202434663410814  1.0000
  H   H6        1.0  0.05565766947461979  0.25552127860960644  0.7797616777101057  1.0000
  H   H7        1.0  0.4443370410405406  0.2555210622244957  0.2797570252781014  1.0000
  H   H8        1.0  0.9443387936435809  0.7444765600636101  0.22023567166116462  1.0000
  H   H9        1.0  0.45041603558702537  0.3866031791158377  0.8567318530959442  1.0000
  H   H10       1.0  0.9504102640094629  0.6133969785199652  0.6432677278213462  1.0000
  H   H11       1.0  0.5495888163989588  0.6133979916625948  0.1432697048431493  1.0000
  H   H12       1.0  0.0495917917108244  0.3866016450731636  0.3567278456649349  1.0000
  H   H13       1.0  0.48160622558856386  0.5571598323262279  0.7863173792226946  1.0000
  H   H14       1.0  0.9815984627573612  0.4428354197438298  0.7136827335148723  1.0000
  H   H15       1.0  0.5183944319660156  0.4428372214231544  0.2136817460228642  1.0000
  H   H16       1.0  0.018395204080128694  0.5571591082019296  0.28631166418162485  1.0000
  H   H17       1.0  0.9283825954781975  0.48887743166567793  0.8977556144539847  1.0000
  H   H18       1.0  0.4283726698797777  0.5111203567914019  0.6022474569773808  1.0000
  H   H19       1.0  0.07162225651495649  0.5111229007406096  0.10224457711606764  1.0000
  H   H20       1.0  0.5716279876819639  0.48887585858583543  0.3977503018991301  1.0000
  H   H21       1.0  0.7744133034466925  0.40922626265616907  0.8242949575342495  1.0000
  H   H22       1.0  0.27440258355721875  0.5907708108094027  0.6757070845010418  1.0000
  H   H23       1.0  0.2255915485394411  0.5907716508436706  0.17570679097492103  1.0000
  H   H24       1.0  0.7255966758609986  0.40922375989410403  0.32428982698766623  1.0000
  H   H25       1.0  0.8010589333534666  0.599691225115258  0.03452328480270238  1.0000
  H   H26       1.0  0.3010580075358789  0.4003099082356272  0.46547770498771274  1.0000
  H   H27       1.0  0.19894452048801264  0.40031237526018504  0.9654773446483845  1.0000
  H   H28       1.0  0.6989440481835769  0.5996895323496503  0.5345179779684416  1.0000
  H   H29       1.0  0.14428182671854015  0.0378300813906591  0.0158108122674676  1.0000
  H   H30       1.0  0.6442807720232366  0.9621703712884299  0.48419103961999355  1.0000
  H   H31       1.0  0.8557188308317407  0.9621743145980519  0.9841886697573943  1.0000
  H   H32       1.0  0.3557198855256871  0.03782914412739301  0.5158090424847757  1.0000
  H   H33       1.0  0.38968008800533477  0.12333749907262613  0.11785486891744773  1.0000
  H   H34       1.0  0.8896871102685822  0.8766627997180622  0.38214895968898344  1.0000
  H   H35       1.0  0.6103135788016729  0.876665273624589  0.88214502262489  1.0000
  H   H36       1.0  0.11032333429979249  0.12333677983382782  0.6178548931025674  1.0000
  H   H37       1.0  0.18008689799665933  0.7104929846728396  0.8248778398638665  1.0000
  H   H38       1.0  0.6800782299580064  0.28950573422286396  0.6751208568510878  1.0000
  H   H39       1.0  0.8199123614022523  0.2895081647278345  0.175122461182184  1.0000
  H   H40       1.0  0.3199182331577005  0.7104945554267913  0.3248768209298163  1.0000
  H   H41       1.0  0.1538631709871581  0.575609780330801  0.8452214029834408  1.0000
  H   H42       1.0  0.6538574122690264  0.4243881212054815  0.654775984751666  1.0000
  H   H43       1.0  0.8461374865649345  0.42438972439502726  0.15477805067174444  1.0000
  H   H44       1.0  0.3461404489998614  0.5756105237693276  0.3452208456383731  1.0000
  H   H45       1.0  0.09088593132135969  0.6884285825291981  0.9256251250314875  1.0000
  H   H46       1.0  0.5908782631428551  0.3115669398769896  0.57437332902515  1.0000
  H   H47       1.0  0.9091119299365145  0.31156847122130676  0.0743740002171265  1.0000
  H   H48       1.0  0.40911819996983917  0.6884301031840748  0.42562516777540793  1.0000
  C   C1        1.0  0.5753486726441891  0.17175505036318836  0.9322438580430159  1.0000
  C   C2        1.0  0.07535565614090699  0.8282446442783281  0.5677595764983822  1.0000
  C   C3        1.0  0.424647790457186  0.828246916030757  0.06775655247596998  1.0000
  C   C4        1.0  0.9246561865788435  0.17175818186159122  0.43224345727198  1.0000
  C   C5        1.0  0.2902538003833115  0.07847908990967771  0.9067548136604275  1.0000
  C   C6        1.0  0.790248322725695  0.9215212602089056  0.5932488884798062  1.0000
  C   C7        1.0  0.7097468571559488  0.9215237148547287  0.09324696322300949  1.0000
  C   C8        1.0  0.20974674220597928  0.0784799640234368  0.4067558117179075  1.0000
  C   C9        1.0  0.9008282235459218  0.6556695967411346  0.8198035407798159  1.0000
  C   C10       1.0  0.4008232189532848  0.3443273540420009  0.680196967682541  1.0000
  C   C11       1.0  0.09917103586415266  0.34432988660525143  0.18019465597773632  1.0000
  C   C12       1.0  0.5991746423109274  0.6556696783285075  0.3198009006669054  1.0000
  C   C13       1.0  0.16761839535516282  0.022832892752141704  0.83479255542305  1.0000
  C   C14       1.0  0.6676149511601182  0.9771691468614421  0.665209120252179  1.0000
  C   C15       1.0  0.8323794658913926  0.9771690843312373  0.1652084835439922  1.0000
  C   C16       1.0  0.3323801137913946  0.022831196238762202  0.3347916997781724  1.0000
  C   C17       1.0  0.6411216245559499  0.49171285781525853  0.9386010189407232  1.0000
  C   C18       1.0  0.14111630682427284  0.5082866879153229  0.5613966156193868  1.0000
  C   C19       1.0  0.358883227444366  0.5082866362188838  0.06139780626029529  1.0000
  C   C20       1.0  0.8588871470467081  0.4917127419793985  0.4385984388856628  1.0000
  C   C21       1.0  0.5612193885684036  0.17136563061220036  0.019469695423722996  1.0000
  C   C22       1.0  0.061226408094974295  0.8286389949648695  0.4805341424911519  1.0000
  C   C23       1.0  0.43877707451946424  0.8286371955338866  0.9805333383634719  1.0000
  C   C24       1.0  0.9387868327618065  0.1713687545073768  0.5194708049961037  1.0000
  C   C25       1.0  0.6459195246016519  0.6981920451284863  0.7552711288523213  1.0000
  C   C26       1.0  0.1459166951978972  0.30180349731563894  0.7447309754518159  1.0000
  C   C27       1.0  0.3540797347957535  0.30180748097789234  0.24472958170355952  1.0000
  C   C28       1.0  0.8540769716267675  0.6981943306687056  0.2552657454729328  1.0000
  C   C29       1.0  0.47113206608867825  0.4369531130382144  0.9195656038089484  1.0000
  C   C30       1.0  0.9711269617947947  0.5630470066169337  0.5804326748700392  1.0000
  C   C31       1.0  0.528871387752119  0.5630480470507778  0.080435325682096  1.0000
  C   C32       1.0  0.028876492079348292  0.43695241258779305  0.4195617511854266  1.0000
  C   C33       1.0  0.6074926903618374  0.6052010572675002  0.7863625430647119  1.0000
  C   C34       1.0  0.10748312006194988  0.3947928499176356  0.7136375410579989  1.0000
  C   C35       1.0  0.3925065690323918  0.39479847952887326  0.2136387959407529  1.0000
  C   C36       1.0  0.8925091486208456  0.6052016994086741  0.2863581135391939  1.0000
  C   C37       1.0  0.7876842686521426  0.486079481307776  0.870508782941073  1.0000
  C   C38       1.0  0.28767406668050904  0.5139175708331648  0.6294926015996722  1.0000
  C   C39       1.0  0.2123191851848034  0.5139192491847738  0.1294930750395054  1.0000
  C   C40       1.0  0.7123237945940415  0.48607861247520384  0.3705032719311561  1.0000
  C   C41       1.0  0.7378934069909558  0.2196164487684058  0.8890364406706723  1.0000
  C   C42       1.0  0.23789439525165074  0.7803831263134242  0.6109672665868402  1.0000
  C   C43       1.0  0.2621030561089057  0.7803838943312371  0.11096437935814409  1.0000
  C   C44       1.0  0.7621076604154382  0.21961811929610764  0.3890386905023959  1.0000
  C   C45       1.0  0.669827421965962  0.5552431869702658  0.019436517256295378  1.0000
  C   C46       1.0  0.16982771204420283  0.4447596213842787  0.4805612079840031  1.0000
  C   C47       1.0  0.3301760318771727  0.44475877942088005  0.9805638932550453  1.0000
  C   C48       1.0  0.8301729455315792  0.5552414318058682  0.5194334370142784  1.0000
  C   C49       1.0  0.2657787786590333  0.0766231141565399  0.9932069598758348  1.0000
  C   C50       1.0  0.7657839576706064  0.9233772341903688  0.5067955389188015  1.0000
  C   C51       1.0  0.7342204807247085  0.9233805289805729  0.006796183378177946  1.0000
  C   C52       1.0  0.23422369061842113  0.07662391520695172  0.4932047621180687  1.0000
  C   C53       1.0  0.40340605138193547  0.1249595405643049  0.050043961390279904  1.0000
  C   C54       1.0  0.9034165861019828  0.8750431554423984  0.44995765178341435  1.0000
  C   C55       1.0  0.5965890135607521  0.8750432748923418  0.9499584439488588  1.0000
  C   C56       1.0  0.09659525662161167  0.1249621002939705  0.5500444534974138  1.0000
  C   C57       1.0  0.0915965514083865  0.6576622522478531  0.8560891313488812  1.0000
  C   C58       1.0  0.5915895599200738  0.34233411865076135  0.6439113159704064  1.0000
  C   C59       1.0  0.9084027079913566  0.3423380801606725  0.1439110602272962  1.0000
  C   C60       1.0  0.40841109763533706  0.6576621181064793  0.356087699805272  1.0000
  N   N1        1.0  0.4393999988762473  0.12731853292516604  0.8794021704489909  1.0000
  N   N2        1.0  0.9393998715593523  0.8726800530015596  0.6206003578796172  1.0000
  N   N3        1.0  0.560595066086286  0.8726834013993496  0.12059635472277819  1.0000
  N   N4        1.0  0.06059798967935138  0.12732032216752026  0.3794023474964164  1.0000
  N   N5        1.0  0.8286420175353368  0.7286910199548445  0.776460058922922  1.0000
  N   N6        1.0  0.32863942235930904  0.2713092887109383  0.7235429307493959  1.0000
  N   N7        1.0  0.17135304742500065  0.27130685078893185  0.22353917579862784  1.0000
  N   N8        1.0  0.67135843889924  0.7286902053260106  0.2764558944592679  1.0000
  N   N9        1.0  0.768823438980881  0.5789929049647995  0.8261826153240365  1.0000
  N   N10       1.0  0.26881285380771647  0.4210016899336182  0.673817225186518  1.0000
  N   N11       1.0  0.23117721857203577  0.42100578276888007  0.1738167288612686  1.0000
  N   N12       1.0  0.7311794148734233  0.5789944933769888  0.3261786483504281  1.0000
  O   O1        1.0  0.054072968266794384  0.9498702759426153  0.851739435015084  1.0000
  O   O2        1.0  0.5540801135657674  0.0501318439641665  0.6482618607007353  1.0000
  O   O3        1.0  0.945920698539389  0.050133313746748294  0.14826056599713414  1.0000
  O   O4        1.0  0.4459233402791795  0.9498652311640894  0.3517385214409288  1.0000
  O   O5        1.0  0.7151249651577345  0.21976287373119158  0.808799761545437  1.0000
  O   O6        1.0  0.21512095080313287  0.7802358812255576  0.6912026291787683  1.0000
  O   O7        1.0  0.28487569239201344  0.7802358246924898  0.19120021108945204  1.0000
  O   O8        1.0  0.7848755122785461  0.21976370902192602  0.3088018520776644  1.0000
  O   O9        1.0  0.19127822046300474  0.046405354313371616  0.7619853929332622  1.0000
  O   O10       1.0  0.6912698644577872  0.9535974619549916  0.7380150835369366  1.0000
  O   O11       1.0  0.8087238352326122  0.9535957950861873  0.23801490810972586  1.0000
  O   O12       1.0  0.30871960791132835  0.046404472371762  0.26198344164095033  1.0000
  O   O13       1.0  0.8767698505616436  0.2555256300511886  0.9330934501608612  1.0000
  O   O14       1.0  0.37676851079971385  0.744471436219172  0.5669127669970848  1.0000
  O   O15       1.0  0.12322801068739857  0.7444738960557514  0.06690726039654751  1.0000
  O   O16       1.0  0.6232335448588484  0.2555257671896172  0.4330951565410929  1.0000
