data_image0
_chemical_formula_structural       Cs4H16C16O12
_chemical_formula_sum              "Cs4 H16 C16 O12"
_cell_length_a       4.092211423021692
_cell_length_b       12.464373286522555
_cell_length_c       12.826588683708136
_cell_angle_alpha    113.03860062095721
_cell_angle_beta     89.99990990100038
_cell_angle_gamma    89.99971065787551

_space_group_name_H-M_alt    "P 1"
_space_group_IT_number       1

loop_
  _space_group_symop_operation_xyz
  'x, y, z'

loop_
  _atom_site_type_symbol
  _atom_site_label
  _atom_site_symmetry_multiplicity
  _atom_site_fract_x
  _atom_site_fract_y
  _atom_site_fract_z
  _atom_site_occupancy
  Cs  Cs1       1.0  0.26300882463498004  0.1801354557553978  0.6491148762686691  1.0000
  Cs  Cs2       1.0  0.7630193801735599  0.3198637634639709  0.3508837881965619  1.0000
  Cs  Cs3       1.0  0.7369881887202467  0.8198643189434162  0.3508840485339987  1.0000
  Cs  Cs4       1.0  0.23698496418317208  0.6801360136110545  0.6491143578804213  1.0000
  H   H1        1.0  0.0901602339854932  0.17298015789077684  0.9526747450737858  1.0000
  H   H2        1.0  0.5901771319032535  0.3270159766754047  0.04731892259960797  1.0000
  H   H3        1.0  0.9098367793956257  0.8270170061210608  0.04732162123325894  1.0000
  H   H4        1.0  0.40982965608615973  0.6729864015458203  0.9526848968544782  1.0000
  H   H5        1.0  0.7184271857661386  0.8250395807223467  0.8633462255377822  1.0000
  H   H6        1.0  0.21842667287184986  0.6749590310709406  0.13665776813675728  1.0000
  H   H7        1.0  0.28157227127417883  0.17495845510539001  0.1366504744523169  1.0000
  H   H8        1.0  0.781577671469634  0.3250416082847422  0.8633438265080356  1.0000
  H   H9        1.0  0.5736612331105064  0.09429132733583148  0.38912461916097385  1.0000
  H   H10       1.0  0.07364753623406271  0.40570570683983925  0.6108725192034611  1.0000
  H   H11       1.0  0.42633578024273794  0.9057084449784724  0.6108750843624762  1.0000
  H   H12       1.0  0.9263519207856845  0.5942940654717076  0.3891271843183546  1.0000
  H   H13       1.0  0.9569185121540186  0.09809807412900538  0.3957294631143355  1.0000
  H   H14       1.0  0.4569049055769129  0.4018980913491887  0.604267940543636  1.0000
  H   H15       1.0  0.04307850120851949  0.9019008287511453  0.6042691280036435  1.0000
  H   H16       1.0  0.5430969951146666  0.5981008067564416  0.3957322080126318  1.0000
  C   C1        1.0  0.7826554298348612  0.9996260583513529  0.7834881688698231  1.0000
  C   C2        1.0  0.2826741954843682  0.500373284826594  0.21651451499214147  1.0000
  C   C3        1.0  0.2173415834984382  0.0003763318034231001  0.21651175698691816  1.0000
  C   C4        1.0  0.7173301488551331  0.4996273521445858  0.7834878583734265  1.0000
  C   C5        1.0  0.8918406079726539  0.9992621892419532  0.8954375523733018  1.0000
  C   C6        1.0  0.39185505657965797  0.5007334246336085  0.10456209304228986  1.0000
  C   C7        1.0  0.10815396173465071  0.0007358465913043001  0.10455914762007268  1.0000
  C   C8        1.0  0.6081541750762584  0.4992689535848597  0.895441726410155  1.0000
  C   C9        1.0  0.04990133183400759  0.09752519657299531  0.9739547617742517  1.0000
  C   C10       1.0  0.5499196662268987  0.4024745043447168  0.026044188173308693  1.0000
  C   C11       1.0  0.9500956815344781  0.9024737134606652  0.02604149318139554  1.0000
  C   C12       1.0  0.4500895654270352  0.5975278714892481  0.9739604099999184  1.0000
  C   C13       1.0  0.8428872868718928  0.9018810666586886  0.9228406463220438  1.0000
  C   C14       1.0  0.34289310432529874  0.5981172685674422  0.07716162317483817  1.0000
  C   C15       1.0  0.15710728283739434  0.09811697155907236  0.07715527495054887  1.0000
  C   C16       1.0  0.6571161273306245  0.40188510965102603  0.9228421962776138  1.0000
  O   O1        1.0  0.7619374105599591  0.09565154476280917  0.7726221853342068  1.0000
  O   O2        1.0  0.2619525860955036  0.4043424435767092  0.22737525717588616  1.0000
  O   O3        1.0  0.23806449014487896  0.9043464886776602  0.22737529337504014  1.0000
  O   O4        1.0  0.7380493145721658  0.595659067600387  0.7726266711552298  1.0000
  O   O5        1.0  0.724736596880753  0.899346124207696  0.7023264406188474  1.0000
  O   O6        1.0  0.22475101764138827  0.6006489931858282  0.2976738736922471  1.0000
  O   O7        1.0  0.2752555291580522  0.10065190924382246  0.2976710380969436  1.0000
  O   O8        1.0  0.7752459956985902  0.39935164379363636  0.7023284996782307  1.0000
  O   O9        1.0  0.7605062398782891  0.10011358029458252  0.4416565246393773  1.0000
  O   O10       1.0  0.260495343009957  0.3998751827819761  0.5583381389765094  1.0000
  O   O11       1.0  0.2394883298031161  0.899887066225638  0.5583427338496207  1.0000
  O   O12       1.0  0.7395065576743106  0.6001245871423038  0.44166234326444714  1.0000
