data_image0
_chemical_formula_structural       Zn2H36C44N4O12
_chemical_formula_sum              "Zn2 H36 C44 N4 O12"
_cell_length_a       9.433953181770915
_cell_length_b       9.711617729143775
_cell_length_c       11.483121334034784
_cell_angle_alpha    90.00021530685686
_cell_angle_beta     90.00011495608886
_cell_angle_gamma    106.76445527375301

_space_group_name_H-M_alt    "P 1"
_space_group_IT_number       1

loop_
  _space_group_symop_operation_xyz
  'x, y, z'

loop_
  _atom_site_type_symbol
  _atom_site_label
  _atom_site_symmetry_multiplicity
  _atom_site_fract_x
  _atom_site_fract_y
  _atom_site_fract_z
  _atom_site_occupancy
  Zn  Zn1       1.0  0.750002140776445  0.49999939555326034  0.9185730949326183  1.0000
  Zn  Zn2       1.0  0.24999997596821544  0.49999880853989265  0.0814274742494732  1.0000
  H   H1        1.0  0.6904316662739233  0.7284217780883184  0.880971266173212  1.0000
  H   H2        1.0  0.8095721173691786  0.2715757291297223  0.8809688908626611  1.0000
  H   H3        1.0  0.3095722106858219  0.2715753002887738  0.119028432165166  1.0000
  H   H4        1.0  0.19043105156556095  0.7284224496531738  0.11902993663353097  1.0000
  H   H5        1.0  0.560771729062651  0.6611835199828564  0.9778541173066557  1.0000
  H   H6        1.0  0.9392324506836615  0.3388145251629597  0.9778513005233903  1.0000
  H   H7        1.0  0.4392335442647095  0.3388146081964437  0.02214732272128119  1.0000
  H   H8        1.0  0.06077142627074753  0.6611825532068781  0.022145785284891393  1.0000
  H   H9        1.0  0.8877074207942287  0.3687170408696759  0.7154156917436437  1.0000
  H   H10       1.0  0.6122956269407068  0.631289298979155  0.7154184977373247  1.0000
  H   H11       1.0  0.11229744931370797  0.6312897640458746  0.284584877454499  1.0000
  H   H12       1.0  0.3877064504409091  0.3687154063440588  0.2845829422985133  1.0000
  H   H13       1.0  0.885385932878421  0.3547988224838719  0.4983318340068052  1.0000
  H   H14       1.0  0.6146127068787165  0.6452085634634701  0.4983346884252383  1.0000
  H   H15       1.0  0.11461472845139309  0.645208083648534  0.5016669935013026  1.0000
  H   H16       1.0  0.3853855255829401  0.3547940675728329  0.5016676224474637  1.0000
  H   H17       1.0  0.702819715294673  0.2683953446171544  0.3329514235959508  1.0000
  H   H18       1.0  0.797168817924998  0.7316048495932254  0.3329522435327945  1.0000
  H   H19       1.0  0.297169755447463  0.7316064137597426  0.6670508872681324  1.0000
  H   H20       1.0  0.20282312105011607  0.26839468265212935  0.6670465839562993  1.0000
  H   H21       1.0  0.7023716201176171  0.2782707676987855  0.1158658638374064  1.0000
  H   H22       1.0  0.7976286518745469  0.7217279175080552  0.11586665287818927  1.0000
  H   H23       1.0  0.29762489149377563  0.7217264878259332  0.8841373178686283  1.0000
  H   H24       1.0  0.2023720685024983  0.27826923678289023  0.8841321746143435  1.0000
  H   H25       1.0  0.12407543410261479  0.9180593152231756  0.0457217205699365  1.0000
  H   H26       1.0  0.3759289444853309  0.08193582688144123  0.04572494300775529  1.0000
  H   H27       1.0  0.8759259942940998  0.08193673865470433  0.954275365234693  1.0000
  H   H28       1.0  0.6240728280889201  0.9180613021089173  0.9542756261723255  1.0000
  H   H29       1.0  0.9870859913997093  0.8477104836702841  0.642262215253133  1.0000
  H   H30       1.0  0.5129118798136503  0.1522901504036868  0.6422641933303551  1.0000
  H   H31       1.0  0.01291331293266041  0.15228887143952366  0.35773748308511694  1.0000
  H   H32       1.0  0.48708776868556214  0.8477102798040834  0.357733763323175  1.0000
  H   H33       1.0  0.11839208959558796  0.92564864626457  0.4552366903246393  1.0000
  H   H34       1.0  0.38160621439397613  0.07435437287475821  0.4552381561426984  1.0000
  H   H35       1.0  0.8816075589054081  0.07435178394561603  0.5447621371722562  1.0000
  H   H36       1.0  0.6183916738901517  0.9256471830490801  0.5447606713545453  1.0000
  C   C1        1.0  0.8251956246779457  0.42503609952620997  0.6639262457232604  1.0000
  C   C2        1.0  0.6748086089070354  0.5749710042315572  0.663928974400882  1.0000
  C   C3        1.0  0.17481064179403927  0.5749717551867166  0.33607432347771743  1.0000
  C   C4        1.0  0.3251920721158683  0.4250326513015283  0.33607507816221016  1.0000
  C   C5        1.0  0.8248828541132839  0.41919736061641555  0.5429530303427795  1.0000
  C   C6        1.0  0.6751177282918305  0.5808091473677592  0.5429549073974939  1.0000
  C   C7        1.0  0.17512025577956078  0.5808105700151956  0.45704840969907673  1.0000
  C   C8        1.0  0.3248797961501566  0.419194584081602  0.4570491451631185  1.0000
  C   C9        1.0  0.7499984115672476  0.5000025788578243  0.4797229031249372  1.0000
  C   C10       1.0  0.24999911287117982  0.5000011525866982  0.5202794077489443  1.0000
  C   C11       1.0  0.7499981686519065  0.49999897162324936  0.3512656694892442  1.0000
  C   C12       1.0  0.25000079151005394  0.4999993083837568  0.6487340288470022  1.0000
  C   C13       1.0  0.7244082638594733  0.37147423776401933  0.28839838925375716  1.0000
  C   C14       1.0  0.7755818474183299  0.6285245833521317  0.28839710160060145  1.0000
  C   C15       1.0  0.2755812265668497  0.628524270001471  0.7116047924484973  1.0000
  C   C16       1.0  0.2244107995835735  0.3714738484898349  0.7116034675740437  1.0000
  C   C17       1.0  0.724114638016573  0.37637350237380945  0.1673851322976248  1.0000
  C   C18       1.0  0.7758819800064954  0.623626645210365  0.16738557112500976  1.0000
  C   C19       1.0  0.27587976920397494  0.6236238037569283  0.8326163077200305  1.0000
  C   C20       1.0  0.22411487576996347  0.37637168540990745  0.8326149980529394  1.0000
  C   C21       1.0  0.1779108968697471  0.9526411210294442  0.9625039124478718  1.0000
  C   C22       1.0  0.3220891959508378  0.047353887698122314  0.9625051935657323  1.0000
  C   C23       1.0  0.822088771313659  0.04735605856692622  0.0374949150438297  1.0000
  C   C24       1.0  0.6779097642111227  0.9526443923088839  0.037494504770514  1.0000
  C   C25       1.0  0.10379910865855634  0.9069267602877035  0.8592504930524497  1.0000
  C   C26       1.0  0.39620404308853097  0.09307192494991062  0.8592555263062849  1.0000
  C   C27       1.0  0.8962036964215797  0.09307359400379774  0.1407474636035673  1.0000
  C   C28       1.0  0.6037966576114472  0.9069284799621049  0.14074591372152406  1.0000
  C   C29       1.0  0.174554880338377  0.954770989773799  0.7504126245680495  1.0000
  C   C30       1.0  0.32544430598349544  0.04522934257064292  0.7504130335629284  1.0000
  C   C31       1.0  0.8254440601393895  0.04523054084460651  0.24958620293002548  1.0000
  C   C32       1.0  0.6745542903220851  0.9547711129425525  0.24958492308977748  1.0000
  C   C33       1.0  0.10230419466437732  0.9133334573415658  0.6417416969987073  1.0000
  C   C34       1.0  0.3976966517457967  0.08666622101202394  0.6417423579736619  1.0000
  C   C35       1.0  0.8976954538384019  0.08666697287104344  0.3582580013415465  1.0000
  C   C36       1.0  0.6023043931192475  0.9133352589955382  0.3582564695260615  1.0000
  C   C37       1.0  0.17538117481867488  0.9569421951049365  0.5379773570762652  1.0000
  C   C38       1.0  0.3246185196463501  0.043061258132432605  0.5379777577563303  1.0000
  C   C39       1.0  0.8246184736841043  0.04305823510767233  0.4620223412639886  1.0000
  C   C40       1.0  0.6753797128099635  0.956941372896616  0.46202194058628254  1.0000
  C   C41       1.0  0.950673804961383  0.8040046571993856  0.86571094285771  1.0000
  C   C42       1.0  0.5493299359818379  0.19598951468658046  0.8657131210472641  1.0000
  C   C43       1.0  0.0493293639680132  0.19599352157625566  0.13428527210839286  1.0000
  C   C44       1.0  0.4506725446138661  0.8040065138931357  0.13428657728827886  1.0000
  N   N1        1.0  0.7500006719284401  0.5000021323649338  0.7243828625816704  1.0000
  N   N2        1.0  0.25000000909268755  0.500001523165736  0.2756203191380564  1.0000
  N   N3        1.0  0.7500011710177646  0.4999992939776309  0.10746610327927901  1.0000
  N   N4        1.0  0.2499992051924309  0.49999678521534463  0.8925344658979737  1.0000
  O   O1        1.0  0.9407866253883339  0.6863556761992556  0.9218540178282381  1.0000
  O   O2        1.0  0.5592198133412652  0.3136365813000595  0.9218592018285392  1.0000
  O   O3        1.0  0.059217959583961005  0.3136403017551076  0.0781404554487821  1.0000
  O   O4        1.0  0.44078723989071733  0.6863571705590277  0.0781448507239446  1.0000
  O   O5        1.0  0.8437245853241677  0.8369752371405429  0.8199149966794579  1.0000
  O   O6        1.0  0.6562779161859424  0.16301870577037655  0.8199155039926892  1.0000
  O   O7        1.0  0.15627579088247504  0.16302084204760095  0.1800838308110642  1.0000
  O   O8        1.0  0.34372280418576656  0.836978448513314  0.18008071096975437  1.0000
  O   O9        1.0  0.6147218032118005  0.6390296655302806  0.908718742576724  1.0000
  O   O10       1.0  0.8852803336622017  0.360969121469097  0.908717649452427  1.0000
  O   O11       1.0  0.3852803135310765  0.3609685385604565  0.09128095576200929  1.0000
  O   O12       1.0  0.1147203867148506  0.6390280328218484  0.09128117804009861  1.0000
