data_image0
_chemical_formula_structural       Ca2Zn2H20C12N2Cl6O4
_chemical_formula_sum              "Ca2 Zn2 H20 C12 N2 Cl6 O4"
_cell_length_a       6.8459835514985325
_cell_length_b       7.986961283710103
_cell_length_c       10.70776057333218
_cell_angle_alpha    86.19640483186832
_cell_angle_beta     79.10730669772771
_cell_angle_gamma    90.3577646015463

_space_group_name_H-M_alt    "P 1"
_space_group_IT_number       1

loop_
  _space_group_symop_operation_xyz
  'x, y, z'

loop_
  _atom_site_type_symbol
  _atom_site_label
  _atom_site_symmetry_multiplicity
  _atom_site_fract_x
  _atom_site_fract_y
  _atom_site_fract_z
  _atom_site_occupancy
  Ca  Ca1       1.0  0.6844716955042356  0.17300976737185178  0.0863465927963176  1.0000
  Ca  Ca2       1.0  0.3155321920950129  0.8269840633427918  0.9136545182820156  1.0000
  Zn  Zn1       1.0  0.39526638674023223  0.26582096671099714  0.8520287824948198  1.0000
  Zn  Zn2       1.0  0.6047330844030867  0.7341752520921644  0.14797469098310503  1.0000
  H   H1        1.0  0.37385369705008037  0.3926722582810669  0.20488815207718145  1.0000
  H   H2        1.0  0.6261545795706099  0.6073242026630223  0.7951103989689229  1.0000
  H   H3        1.0  0.24986849937920397  0.0445550218557216  0.2867858320786141  1.0000
  H   H4        1.0  0.7501280564949865  0.9554411060285657  0.7132199027387003  1.0000
  H   H5        1.0  0.5766303829179976  0.3770350755359573  0.35960701099445197  1.0000
  H   H6        1.0  0.42337349096400345  0.6229612643376683  0.6403940012675661  1.0000
  H   H7        1.0  0.47869864163376974  0.172708890277363  0.41145988399360073  1.0000
  H   H8        1.0  0.5212933715858626  0.8272909415062912  0.5885444406424156  1.0000
  H   H9        1.0  0.24143337674303922  0.49745377433446686  0.4231978771105389  1.0000
  H   H10       1.0  0.7585702035899616  0.5025527246378091  0.5767952935407407  1.0000
  H   H11       1.0  0.3045603058146895  0.37844243236472147  0.5552847427776584  1.0000
  H   H12       1.0  0.6954374439800689  0.621563884769813  0.4447129505524002  1.0000
  H   H13       1.0  0.9533937549911401  0.310993598015571  0.5305736822017904  1.0000
  H   H14       1.0  0.046602346842306006  0.6890202776756665  0.4694201913831009  1.0000
  H   H15       1.0  0.1070342706458192  0.1349708664531377  0.5135504531935595  1.0000
  H   H16       1.0  0.8929575018361859  0.8650403483929736  0.48644784200991603  1.0000
  H   H17       1.0  0.9094799779380337  0.1524030462795949  0.3409648163083574  1.0000
  H   H18       1.0  0.0905191790804096  0.8476070953606791  0.6590306673343491  1.0000
  H   H19       1.0  0.9968740530771357  0.36065372678309876  0.29367448276505564  1.0000
  H   H20       1.0  0.0031340194995478987  0.6393528473361128  0.7063190190498574  1.0000
  C   C1        1.0  0.21798763461283246  0.17184492376325985  0.24881240703428628  1.0000
  C   C2        1.0  0.7820146485773591  0.8281539410412719  0.7511859139083725  1.0000
  C   C3        1.0  0.4426145243830248  0.2967178667918944  0.3718197548663582  1.0000
  C   C4        1.0  0.5573847838680379  0.7032809377094507  0.6281789658293346  1.0000
  C   C5        1.0  0.2676687257888091  0.3693266562705162  0.4604156635695063  1.0000
  C   C6        1.0  0.7323335093910046  0.6306809905904415  0.5395823115160354  1.0000
  C   C7        1.0  0.0817628882243326  0.25911457203223165  0.4685793152400349  1.0000
  C   C8        1.0  0.918236245817731  0.7408943303363956  0.5314152870176514  1.0000
  C   C9        1.0  0.03646872869017409  0.23898935822896314  0.3357692450208205  1.0000
  C   C10       1.0  0.9635318835623252  0.7610158258606249  0.664224374791651  1.0000
  C   C11       1.0  0.18762085323992755  0.1488230924544709  0.11322148367792549  1.0000
  C   C12       1.0  0.8123769744002018  0.8511744273157902  0.8867774863024422  1.0000
  N   N1        1.0  0.4009344172169449  0.2749600976660105  0.24253464776214168  1.0000
  N   N2        1.0  0.5990693901364282  0.7250375274027903  0.7574644535053493  1.0000
  Cl  Cl1       1.0  0.7289514136237044  0.3023035906138531  0.8349059663740447  1.0000
  Cl  Cl2       1.0  0.2710480163678568  0.6977001556662473  0.1650972106549133  1.0000
  Cl  Cl3       1.0  0.20931896716927403  0.4908261969973537  0.8768765331142916  1.0000
  Cl  Cl4       1.0  0.7906747468230435  0.5091673001934041  0.12313342344510399  1.0000
  Cl  Cl5       1.0  0.33608720317525353  0.07812467063771318  0.7172182772511063  1.0000
  Cl  Cl6       1.0  0.6639107667812497  0.9218740271728264  0.2827852972870062  1.0000
  O   O1        1.0  0.019775300666822204  0.14824681280105517  0.0851089075983111  1.0000
  O   O2        1.0  0.9802272071432372  0.851738175089885  0.9148946108000259  1.0000
  O   O3        1.0  0.350820681615339  0.1253240089865173  0.02939692889454192  1.0000
  O   O4        1.0  0.6491832999470333  0.8746635182150014  0.970606290810963  1.0000
