data_image0
_chemical_formula_structural       Al2H24C48Br6O12
_chemical_formula_sum              "Al2 H24 C48 Br6 O12"
_cell_length_a       4.012137796083547
_cell_length_b       28.625840176534943
_cell_length_c       28.625610442035597
_cell_angle_alpha    119.99984110451135
_cell_angle_beta     90.00071421541062
_cell_angle_gamma    89.99969437873497

_space_group_name_H-M_alt    "P 1"
_space_group_IT_number       1

loop_
  _space_group_symop_operation_xyz
  'x, y, z'

loop_
  _atom_site_type_symbol
  _atom_site_label
  _atom_site_symmetry_multiplicity
  _atom_site_fract_x
  _atom_site_fract_y
  _atom_site_fract_z
  _atom_site_occupancy
  Al  Al1       1.0  0.0130254603626057  0.5000013351027023  0.49999958435664393  1.0000
  Al  Al2       1.0  0.013035876753924898  0.16666636994981582  0.8333322143842423  1.0000
  H   H1        1.0  0.4722610873276095  0.17789575011416053  0.6922276046349297  1.0000
  H   H2        1.0  0.4846679406699223  0.22989675870824317  0.6446581757481555  1.0000
  H   H3        1.0  0.503923462048945  0.37761047900188055  0.7984593040244832  1.0000
  H   H4        1.0  0.5039187106234378  0.28904411223571463  0.534853773266832  1.0000
  H   H5        1.0  0.4846710681369187  0.4367552470962934  0.6886595437381615  1.0000
  H   H6        1.0  0.4722382961120318  0.4887592500822891  0.6410926844619668  1.0000
  H   H7        1.0  0.5041368770651002  0.38526994896336925  0.7220394948619743  1.0000
  H   H8        1.0  0.5041788586734909  0.2813825318281431  0.6112742960403994  1.0000
  H   H9        1.0  0.4722497016845821  0.014335063409518565  0.8221056418365722  1.0000
  H   H10       1.0  0.48466341304601457  0.9147646207010711  0.770105354603331  1.0000
  H   H11       1.0  0.5039135138622512  0.9208505051990701  0.6223893458141491  1.0000
  H   H12       1.0  0.5038930815882734  0.7458129360548115  0.7109580667368078  1.0000
  H   H13       1.0  0.48469983679557066  0.7519073240874334  0.5632460912007673  1.0000
  H   H14       1.0  0.4722646372126959  0.6523382063883716  0.5112417913327506  1.0000
  H   H15       1.0  0.5041290584484274  0.8367723348103341  0.6147326832151592  1.0000
  H   H16       1.0  0.5041685472246016  0.8298957414342496  0.7186205749147093  1.0000
  H   H17       1.0  0.4722663732259277  0.3077668210817637  0.9856606890100396  1.0000
  H   H18       1.0  0.4846665201729934  0.3553397022315822  0.0852319054959025  1.0000
  H   H19       1.0  0.5038957048428968  0.20154143083912868  0.07915179961560173  1.0000
  H   H20       1.0  0.5038984564999182  0.46514718193842003  0.2541867942096873  1.0000
  H   H21       1.0  0.4846768177118079  0.3113406605085913  0.24809114425433176  1.0000
  H   H22       1.0  0.4722479646007613  0.35890527528168553  0.34766136791763813  1.0000
  H   H23       1.0  0.5041322258205695  0.2779614890927746  0.1632276128844836  1.0000
  H   H24       1.0  0.5041629149808101  0.3887258634248668  0.17010246026584508  1.0000
  C   C1        1.0  0.5097253474863876  0.4639285630899083  0.41754722018605156  1.0000
  C   C2        1.0  0.5097306341186395  0.453620444261098  0.536071362317287  1.0000
  C   C3        1.0  0.5097312342023981  0.5824527644465434  0.5463804319946278  1.0000
  C   C4        1.0  0.5097362643240329  0.21303930491767897  0.7972533370461792  1.0000
  C   C5        1.0  0.5097431420634209  0.08421433136297912  0.7869592782656414  1.0000
  C   C6        1.0  0.5097440434625112  0.20274233970208405  0.915783792292274  1.0000
  C   C7        1.0  0.4999417554026094  0.24740461931558136  0.771652353763834  1.0000
  C   C8        1.0  0.4848555565318619  0.22184919554307211  0.7150704029804872  1.0000
  C   C9        1.0  0.4904618675756823  0.25124625623839597  0.6886031240699638  1.0000
  C   C10       1.0  0.5010100962666469  0.3080935228886688  0.7180442589577752  1.0000
  C   C11       1.0  0.5049775369482036  0.3336754256733343  0.7746954375897276  1.0000
  C   C12       1.0  0.5080748142092162  0.30385294282839953  0.8009579484473834  1.0000
  C   C13       1.0  0.5030422494823839  0.3418778717631099  0.6933463523178106  1.0000
  C   C14       1.0  0.5030552175906066  0.324772793661765  0.639969251715698  1.0000
  C   C15       1.0  0.5049807147888501  0.33298084388503213  0.5586229502760177  1.0000
  C   C16       1.0  0.5010072516309092  0.35856055642839385  0.615270721668054  1.0000
  C   C17       1.0  0.4904594950792998  0.41540771332223175  0.6447133421294284  1.0000
  C   C18       1.0  0.4848398706948344  0.4448065197986608  0.6182477993300637  1.0000
  C   C19       1.0  0.4999420667017204  0.4192512460677876  0.5616664279983539  1.0000
  C   C20       1.0  0.5080821278899207  0.36280428161967404  0.532360189517789  1.0000
  C   C21       1.0  0.49993750429698736  0.024249424122238857  0.752596167937746  1.0000
  C   C22       1.0  0.48485674674603263  0.9932236812826218  0.7781516263940064  1.0000
  C   C23       1.0  0.49046198527539525  0.9373602590005704  0.7487564965302768  1.0000
  C   C24       1.0  0.5010080288443318  0.9099535732767025  0.6919081760722109  1.0000
  C   C25       1.0  0.5049793091065882  0.9410224888810889  0.6663261685758641  1.0000
  C   C26       1.0  0.508077674344662  0.9971066823078235  0.6961482054578669  1.0000
  C   C27       1.0  0.5030265094296807  0.8514702313885324  0.6581238847442209  1.0000
  C   C28       1.0  0.5030453501772884  0.8151979923259705  0.6752299223172715  1.0000
  C   C29       1.0  0.5049707819358602  0.7256447160931148  0.6670209757635706  1.0000
  C   C30       1.0  0.5010086359105655  0.756714866281442  0.6414426162974608  1.0000
  C   C31       1.0  0.4904761412033308  0.729308582260913  0.5845938726104194  1.0000
  C   C32       1.0  0.48486292138859005  0.6734461820055772  0.5551949145458509  1.0000
  C   C33       1.0  0.499938841426527  0.6424172918429676  0.5807487928984756  1.0000
  C   C34       1.0  0.5080686145904636  0.66955807781752  0.6371964993621334  1.0000
  C   C35       1.0  0.499945897792017  0.22834498061649108  0.9757496985024121  1.0000
  C   C36       1.0  0.4848688008519559  0.2849263501070213  0.006773165777730116  1.0000
  C   C37       1.0  0.4904712301333305  0.31139541409742594  0.06263708132750173  1.0000
  C   C38       1.0  0.5010084736706376  0.2819555343493576  0.09004499535331693  1.0000
  C   C39       1.0  0.5049711386840555  0.2253054551370681  0.05897859056018719  1.0000
  C   C40       1.0  0.5080673006560303  0.1990421462672245  0.002892855915561718  1.0000
  C   C41       1.0  0.5030319084446405  0.30665557584806186  0.14852824704907872  1.0000
  C   C42       1.0  0.5030399786781601  0.3600327308910921  0.18480156827087066  1.0000
  C   C43       1.0  0.5049690106492549  0.4413777161075956  0.2743549669334442  1.0000
  C   C44       1.0  0.5009982490291163  0.3847296135805608  0.24328448129551114  1.0000
  C   C45       1.0  0.4904694165034869  0.3552857273591954  0.270690790942993  1.0000
  C   C46       1.0  0.484848402779022  0.38175038228151703  0.3265535147640862  1.0000
  C   C47       1.0  0.49993543207232694  0.4383327345756742  0.35758286558302643  1.0000
  C   C48       1.0  0.5080690467505562  0.46763955961275633  0.3304428719681951  1.0000
  Br  Br1       1.0  0.49874573210544765  0.34247041122409877  0.8776905897017714  1.0000
  Br  Br2       1.0  0.4988026764236295  0.32418934008447314  0.45562360501243404  1.0000
  Br  Br3       1.0  0.49874432258801  0.0352213343925385  0.6575300176907463  1.0000
  Br  Br4       1.0  0.49873429894731913  0.631439320138206  0.675813316791377  1.0000
  Br  Br5       1.0  0.49869365270680527  0.12230836571563944  0.9647807138555822  1.0000
  Br  Br6       1.0  0.49877001381612734  0.5443749096792915  0.3685630556980116  1.0000
  O   O1        1.0  0.7504789532264339  0.5577994336941359  0.553501824116225  1.0000
  O   O2        1.0  0.7504752902169614  0.49570366549156836  0.4422018327640488  1.0000
  O   O3        1.0  0.7504763616546485  0.44649983195874654  0.5042963329469075  1.0000
  O   O4        1.0  0.2794040393986776  0.5603978491397827  0.5113452379530872  1.0000
  O   O5        1.0  0.2794169322864305  0.4886565193273286  0.5490510103909757  1.0000
  O   O6        1.0  0.27940044454276597  0.45094885392961004  0.43960200747293504  1.0000
  O   O7        1.0  0.7505004942829814  0.17096816138196388  0.8911329392475978  1.0000
  O   O8        1.0  0.7504919452890773  0.22016421595326818  0.8290294499151046  1.0000
  O   O9        1.0  0.7504918466117657  0.10886696208459053  0.7798355843675752  1.0000
  O   O10       1.0  0.27942674153942454  0.21572112643620048  0.8937252651170626  1.0000
  O   O11       1.0  0.2794231472224452  0.10627216692105185  0.8219945751125977  1.0000
  O   O12       1.0  0.2794177312188495  0.17800473828899055  0.7842752036295978  1.0000
