data_image0
_chemical_formula_structural       Eu4H56C68N4O28
_chemical_formula_sum              "Eu4 H56 C68 N4 O28"
_cell_length_a       6.4276341478075505
_cell_length_b       16.53516918610568
_cell_length_c       24.284977067829942
_cell_angle_alpha    90.00125004380527
_cell_angle_beta     91.15007009397678
_cell_angle_gamma    89.99616754773722

_space_group_name_H-M_alt    "P 1"
_space_group_IT_number       1

loop_
  _space_group_symop_operation_xyz
  'x, y, z'

loop_
  _atom_site_type_symbol
  _atom_site_label
  _atom_site_symmetry_multiplicity
  _atom_site_fract_x
  _atom_site_fract_y
  _atom_site_fract_z
  _atom_site_occupancy
  Eu  Eu1       1.0  0.2627315088409432  0.06381079390896362  0.0220335346453524  1.0000
  Eu  Eu2       1.0  0.7372657956406812  0.5638095197124289  0.4779658851467232  1.0000
  Eu  Eu3       1.0  0.7372639892640577  0.9361868307207643  0.9779662122634392  1.0000
  Eu  Eu4       1.0  0.2627406093746885  0.43618870956827754  0.5220347299066787  1.0000
  H   H1        1.0  0.6390072312844451  0.7788360503910708  0.8194545703617918  1.0000
  H   H2        1.0  0.36101948391466726  0.2788399576648999  0.6805453837857343  1.0000
  H   H3        1.0  0.360991342626015  0.22116520279745797  0.1805431302365008  1.0000
  H   H4        1.0  0.638985393624928  0.721160690747027  0.3194568721690842  1.0000
  H   H5        1.0  0.015730309914936  0.8395050489948942  0.7631331002047759  1.0000
  H   H6        1.0  0.9842762434522426  0.339509300658861  0.7368730168149821  1.0000
  H   H7        1.0  0.9842698343764055  0.1604974137306243  0.2368654303838511  1.0000
  H   H8        1.0  0.0157270705307937  0.6604943716234501  0.2631288209901399  1.0000
  H   H9        1.0  0.9663053804597864  0.9189683275995151  0.84829535040938  1.0000
  H   H10       1.0  0.03369460907899221  0.41896668220449845  0.6517094375230101  1.0000
  H   H11       1.0  0.033694785719482895  0.08103111128765761  0.15170441559133246  1.0000
  H   H12       1.0  0.9663118027606926  0.5810357804835959  0.3482915893710228  1.0000
  H   H13       1.0  0.057098175315481094  0.6986074822549568  0.7378254426937686  1.0000
  H   H14       1.0  0.9429276055998983  0.1986123508917075  0.762184034238949  1.0000
  H   H15       1.0  0.9429035469973853  0.30139135184158045  0.26217432966246423  1.0000
  H   H16       1.0  0.05707727887286039  0.8013913213844859  0.2378186335480521  1.0000
  H   H17       1.0  0.7315036704548774  0.7059486407059552  0.6419518816909431  1.0000
  H   H18       1.0  0.268483168895763  0.20596048900763012  0.8580418963844777  1.0000
  H   H19       1.0  0.2684949176484465  0.294055031581756  0.3580466425463769  1.0000
  H   H20       1.0  0.731513877974301  0.7940383451396543  0.14195744508143798  1.0000
  H   H21       1.0  0.6772278910969619  0.7957301469504331  0.7228669298900954  1.0000
  H   H22       1.0  0.3227677086005087  0.29574170555568463  0.777129439529169  1.0000
  H   H23       1.0  0.32276601441270003  0.20427292060998783  0.2771307516416144  1.0000
  H   H24       1.0  0.6772340208087897  0.7042583380904475  0.22287074464657758  1.0000
  H   H25       1.0  0.11618029081329688  0.22012421611496083  0.9285432783675773  1.0000
  H   H26       1.0  0.8837978608341786  0.7201202755269023  0.5714556139098192  1.0000
  H   H27       1.0  0.8838058636657921  0.7798728038511766  0.0714560185674245  1.0000
  H   H28       1.0  0.116208565742582  0.27987855854480165  0.4285462365810062  1.0000
  H   H29       1.0  0.9715063910273967  0.31634842776548305  0.8826864707991715  1.0000
  H   H30       1.0  0.0284653208689321  0.8163422352933765  0.6173129865133404  1.0000
  H   H31       1.0  0.02847977759012819  0.6836516160713942  0.11731364977908498  1.0000
  H   H32       1.0  0.9715379428404561  0.18365962262891602  0.3826859686016276  1.0000
  H   H33       1.0  0.843637765174762  0.39041279615006635  0.9236666459782156  1.0000
  H   H34       1.0  0.15631280778737278  0.8904051692795958  0.5763321668854289  1.0000
  H   H35       1.0  0.15635311512961889  0.6095848285822284  0.076335964528802  1.0000
  H   H36       1.0  0.8436888854322999  0.10959668864882133  0.4236659582476463  1.0000
  H   H37       1.0  0.6946235399968259  0.31844981823019947  0.8843026751686762  1.0000
  H   H38       1.0  0.3053477581277022  0.8184385641755014  0.6156947524074354  1.0000
  H   H39       1.0  0.3053657768054094  0.6815502256009154  0.11569951718442438  1.0000
  H   H40       1.0  0.6946570543467487  0.18156450326435455  0.3843037972646571  1.0000
  H   H41       1.0  0.7042625000405991  0.23178255032135556  0.027267815891448794  1.0000
  H   H42       1.0  0.295698241689216  0.7317744536141647  0.4727277476431837  1.0000
  H   H43       1.0  0.29573144951703506  0.7682114457045729  0.9727323364433145  1.0000
  H   H44       1.0  0.7043018952880047  0.26822921864799554  0.5272703711428193  1.0000
  H   H45       1.0  0.527632678362444  0.2632697110560541  0.9736760005687656  1.0000
  H   H46       1.0  0.47233136193514713  0.7632587481752537  0.526316468131263  1.0000
  H   H47       1.0  0.47235973662298386  0.7367254945514999  0.0263253808479007  1.0000
  H   H48       1.0  0.5276703239159772  0.23674492406135533  0.4736812452034229  1.0000
  H   H49       1.0  0.6713680945090416  0.3374012377631388  0.012711500604183398  1.0000
  H   H50       1.0  0.3285736168625419  0.8373915852302147  0.4872843028724105  1.0000
  H   H51       1.0  0.3286258838152634  0.6625933630602603  0.9872902989790758  1.0000
  H   H52       1.0  0.6714249856513206  0.16261208707044972  0.512715044987047  1.0000
  H   H53       1.0  0.1329984723916198  0.567350580918088  0.6255527662857218  1.0000
  H   H54       1.0  0.8670073114631264  0.0673506198955849  0.8744518163368865  1.0000
  H   H55       1.0  0.8670063620251794  0.43264885791185753  0.3744470187942353  1.0000
  H   H56       1.0  0.13299288348281377  0.9326494237890514  0.12554959691232168  1.0000
  C   C1        1.0  0.23197867229077934  0.940504949091185  0.9319055535018137  1.0000
  C   C2        1.0  0.7680329658369444  0.44050430988691147  0.5680975398245423  1.0000
  C   C3        1.0  0.7680183818389776  0.0594932802910222  0.0680941997709468  1.0000
  C   C4        1.0  0.2319734534257023  0.5594957337214339  0.4319038988636662  1.0000
  C   C5        1.0  0.2719058623815513  0.8941467178207392  0.8823708845177335  1.0000
  C   C6        1.0  0.728101663069303  0.3941486424829678  0.61763109855994  1.0000
  C   C7        1.0  0.7280896284637562  0.10585151157406611  0.11762845058421327  1.0000
  C   C8        1.0  0.2719016151050582  0.6058526106807207  0.38236868017293796  1.0000
  C   C9        1.0  0.4688020376115246  0.8546864458759486  0.8742145360669724  1.0000
  C   C10       1.0  0.5312157017315967  0.3546904595627041  0.6257869085247805  1.0000
  C   C11       1.0  0.5311965653921433  0.1453117834807074  0.1257848117544711  1.0000
  C   C12       1.0  0.4687907029572358  0.6453113983473527  0.3742137065539594  1.0000
  C   C13       1.0  0.4912521439781655  0.8100399360537976  0.8248406950533392  1.0000
  C   C14       1.0  0.5087689552712362  0.31004365854319355  0.6751596949795626  1.0000
  C   C15       1.0  0.5087464443972677  0.18996071237612708  0.17515782916286327  1.0000
  C   C16       1.0  0.49123902722143936  0.689956989824104  0.3248421618836801  1.0000
  C   C17       1.0  0.331563779818822  0.8034607579051709  0.7855352894470115  1.0000
  C   C18       1.0  0.6684476684764391  0.3034660316480853  0.7144682586625707  1.0000
  C   C19       1.0  0.6684348157074568  0.19654049530279144  0.214463646584484  1.0000
  C   C20       1.0  0.3315572162140085  0.696535221541879  0.2855344091075409  1.0000
  C   C21       1.0  0.1397596855125158  0.8430292305930677  0.7942802970591812  1.0000
  C   C22       1.0  0.8602446705499958  0.3430307077158403  0.7057254509996226  1.0000
  C   C23       1.0  0.8602389099593423  0.15697262738645176  0.2057186389765349  1.0000
  C   C24       1.0  0.13975709472239828  0.6569711502773502  0.2942767922441405  1.0000
  C   C25       1.0  0.11279778804398433  0.8876594350374062  0.8416381454664261  1.0000
  C   C26       1.0  0.8872062874551573  0.3876581325207411  0.6583666105661691  1.0000
  C   C27       1.0  0.8871992587716591  0.11234000388143531  0.15836119600371026  1.0000
  C   C28       1.0  0.11279700512974959  0.6123431206559077  0.34163399178884646  1.0000
  C   C29       1.0  0.3626304184207001  0.753881618623616  0.7357564336819421  1.0000
  C   C30       1.0  0.6373806016398048  0.2538916646684867  0.7642455601099983  1.0000
  C   C31       1.0  0.637366613821129  0.246119634596937  0.2642420841787327  1.0000
  C   C32       1.0  0.3626242468610101  0.7461114028037626  0.23575504861744176  1.0000
  C   C33       1.0  0.20451432063730116  0.7025665798359597  0.7165388911256227  1.0000
  C   C34       1.0  0.7954998045720103  0.202573341713304  0.7834677139291769  1.0000
  C   C35       1.0  0.7954858310225816  0.2974340685813743  0.2834600512614003  1.0000
  C   C36       1.0  0.2045019533862629  0.7974297258165279  0.2165341175119693  1.0000
  C   C37       1.0  0.23481252609732908  0.6514157211370064  0.6712996580257737  1.0000
  C   C38       1.0  0.7651952514990157  0.1514222535195273  0.8287065807153268  1.0000
  C   C39       1.0  0.7651876399730924  0.34858492729328117  0.32870010798338  1.0000
  C   C40       1.0  0.2348034016694456  0.848578999740255  0.171295649804712  1.0000
  C   C41       1.0  0.42644258363819165  0.6539729069974172  0.6430423885480039  1.0000
  C   C42       1.0  0.5735584518039899  0.1539790159721335  0.856960565983897  1.0000
  C   C43       1.0  0.5735591384569929  0.34602834618535633  0.3569573838251259  1.0000
  C   C44       1.0  0.42644020158216017  0.8460198182014267  0.1430416645192523  1.0000
  C   C45       1.0  0.582989044279671  0.7064231288285471  0.6627295438419054  1.0000
  C   C46       1.0  0.4170102306949984  0.20643125874128296  0.8372684098243467  1.0000
  C   C47       1.0  0.4170126560364265  0.2935799386494579  0.3372689931106905  1.0000
  C   C48       1.0  0.5829915060284135  0.7935675753682077  0.1627321861540239  1.0000
  C   C49       1.0  0.5540291201595692  0.7553895403834475  0.7082328293409006  1.0000
  C   C50       1.0  0.44597536089397477  0.2554003434739088  0.7917666892150592  1.0000
  C   C51       1.0  0.44596791197341185  0.24461292238022742  0.2917656885282227  1.0000
  C   C52       1.0  0.5540294806736767  0.7445997001340744  0.2082335076801911  1.0000
  C   C53       1.0  0.4595921745765779  0.6030100326745966  0.5937620558359171  1.0000
  C   C54       1.0  0.5404070829552907  0.10301429688066578  0.906236847776583  1.0000
  C   C55       1.0  0.5404126525805281  0.396990010920426  0.4062373174371956  1.0000
  C   C56       1.0  0.45959152725364305  0.8969839324824632  0.09376291185593288  1.0000
  C   C57       1.0  0.9999281718574408  0.21864485698560543  0.961268959895463  1.0000
  C   C58       1.0  4.863972571200025e-05  0.7186386730854367  0.5387270226638847  1.0000
  C   C59       1.0  6.261477839329999e-05  0.7813527676624759  0.0387282970676637  1.0000
  C   C60       1.0  0.99995618764909  0.28135895142335704  0.4612723505923313  1.0000
  C   C61       1.0  0.8379310471304463  0.327486151643079  0.9089686099521541  1.0000
  C   C62       1.0  0.16203245747265524  0.8274806670531448  0.5910322129422241  1.0000
  C   C63       1.0  0.16205984048804817  0.6725102635525745  0.0910344123574873  1.0000
  C   C64       1.0  0.8379692573084084  0.17252179566625614  0.4089671476282888  1.0000
  C   C65       1.0  0.6768691999250576  0.27643166444950407  0.9946725166398593  1.0000
  C   C66       1.0  0.32308940959237015  0.7764231055261775  0.5053230058940912  1.0000
  C   C67       1.0  0.32312631286259824  0.7235629363353908  0.005328053869945399  1.0000
  C   C68       1.0  0.6769107274936984  0.22357935719286814  0.49467511288346344  1.0000
  N   N1        1.0  0.8446577077586069  0.27186657357209754  0.9553824808494935  1.0000
  N   N2        1.0  0.15531267340598726  0.7718597744359812  0.5446163169338547  1.0000
  N   N3        1.0  0.15533470007596858  0.7281280272574266  0.04461848875188681  1.0000
  N   N4        1.0  0.8446937240775726  0.2281420834675956  0.45538388633382  1.0000
  O   O1        1.0  0.057212966721507996  0.9767693294153902  0.939686189659831  1.0000
  O   O2        1.0  0.9427890972789681  0.4767695777547233  0.5603211038294802  1.0000
  O   O3        1.0  0.9427856579523989  0.0232282951891349  0.060314393590594796  1.0000
  O   O4        1.0  0.057212646540875794  0.5232304659043622  0.439679903968404  1.0000
  O   O5        1.0  0.37341346511594503  0.9482376327392289  0.9700315545218388  1.0000
  O   O6        1.0  0.6266107285574876  0.44823502996399606  0.5299684095577533  1.0000
  O   O7        1.0  0.6265851452018367  0.05175938708078579  0.029968205102221594  1.0000
  O   O8        1.0  0.3733987957126673  0.5517644088281629  0.47003263003465884  1.0000
  O   O9        1.0  0.6117851065778693  0.6181118279603196  0.5624818154270628  1.0000
  O   O10       1.0  0.3882082991106728  0.11811721227151388  0.9375160509973384  1.0000
  O   O11       1.0  0.38821973493536177  0.3818888204192207  0.43751838147241523  1.0000
  O   O12       1.0  0.6117918601354402  0.8818792027513921  0.0624833031711844  1.0000
  O   O13       1.0  0.32643197223563186  0.5459283575783687  0.585081836312142  1.0000
  O   O14       1.0  0.6735713418157303  0.045929616558581195  0.9149166562782796  1.0000
  O   O15       1.0  0.6735713133072707  0.45407108127712786  0.41491835421913237  1.0000
  O   O16       1.0  0.3264241633857026  0.9540692176207345  0.0850835024500256  1.0000
  O   O17       1.0  0.6258207253337247  0.8571253270271909  0.9095176009278703  1.0000
  O   O18       1.0  0.37419810955661587  0.3571290609825938  0.5904826486571721  1.0000
  O   O19       1.0  0.3741778704646704  0.14287290232298494  0.090481335082508  1.0000
  O   O20       1.0  0.6258067392163084  0.6428709826318696  0.40951796004914337  1.0000
  O   O21       1.0  0.07684474670176658  0.6021364031820299  0.6559452482163833  1.0000
  O   O22       1.0  0.9231688242972423  0.1021383222223236  0.844062348446208  1.0000
  O   O23       1.0  0.923160080509767  0.3978630356414428  0.34405412505250865  1.0000
  O   O24       1.0  0.07683603877737967  0.8978629309482072  0.1559390838907007  1.0000
  O   O25       1.0  0.017810512570427796  0.16959345527627795  0.00039152271114769997  1.0000
  O   O26       1.0  0.9821629919290729  0.6695886492647886  0.49960400210971295  1.0000
  O   O27       1.0  0.9821818520325107  0.8304011455143724  0.99960697602382  1.0000
  O   O28       1.0  0.0178465395463547  0.3304107895338433  0.5003974492937644  1.0000
