data_image0
_chemical_formula_structural       Fe2H28Pd2C40N20
_chemical_formula_sum              "Fe2 H28 Pd2 C40 N20"
_cell_length_a       8.74275337014705
_cell_length_b       8.742749778286395
_cell_length_c       14.435082987918921
_cell_angle_alpha    82.52231790894368
_cell_angle_beta     82.52228638504913
_cell_angle_gamma    71.36861138261891

_space_group_name_H-M_alt    "P 1"
_space_group_IT_number       1

loop_
  _space_group_symop_operation_xyz
  'x, y, z'

loop_
  _atom_site_type_symbol
  _atom_site_label
  _atom_site_symmetry_multiplicity
  _atom_site_fract_x
  _atom_site_fract_y
  _atom_site_fract_z
  _atom_site_occupancy
  Fe  Fe1       1.0  0.8388977779790777  0.16110265178031813  0.7500001384976898  1.0000
  Fe  Fe2       1.0  0.1610995661544053  0.8389000219999967  0.2500000602799659  1.0000
  H   H1        1.0  0.8709615421300185  0.8084827412355577  0.8826039794099002  1.0000
  H   H2        1.0  0.19151651845051282  0.12903913988385085  0.6173957898571983  1.0000
  H   H3        1.0  0.1290384417726642  0.19151507876803456  0.1173950105792372  1.0000
  H   H4        1.0  0.808483507190303  0.8709623209257059  0.3826049844554333  1.0000
  H   H5        1.0  0.8830808319853746  0.4926142963078488  0.6927247743123885  1.0000
  H   H6        1.0  0.5073853443360575  0.11692120721974668  0.8072761821509431  1.0000
  H   H7        1.0  0.11691915633287661  0.5073835281128252  0.3072762932461401  1.0000
  H   H8        1.0  0.49261583375133017  0.8830802511259604  0.1927238076085018  1.0000
  H   H9        1.0  0.07349035629731303  0.6316851997123789  0.7307471997850783  1.0000
  H   H10       1.0  0.3683144271588149  0.9265106754719522  0.7692533177518044  1.0000
  H   H11       1.0  0.926510409325175  0.368313831759849  0.2692516311020654  1.0000
  H   H12       1.0  0.631685973624336  0.07348957582219377  0.23074890867902545  1.0000
  H   H13       1.0  0.2829037694312717  0.4844927995510132  0.8429550049464538  1.0000
  H   H14       1.0  0.5155058944514366  0.7170952919751699  0.6570456795603334  1.0000
  H   H15       1.0  0.7170950605529853  0.5155050214440706  0.15704407707274023  1.0000
  H   H16       1.0  0.48449487853032736  0.2829037468588495  0.34295661394244803  1.0000
  H   H17       1.0  0.2880059299138509  0.2061770538676342  0.9136245988332661  1.0000
  H   H18       1.0  0.7938230018591456  0.7119945635647935  0.5863758111842828  1.0000
  H   H19       1.0  0.7119948357086373  0.7938219776045867  0.0863742320538776  1.0000
  H   H20       1.0  0.20617624353371866  0.28800568724848563  0.41362581475347326  1.0000
  H   H21       1.0  0.28256634268018405  0.8986501422093123  0.9633118681259842  1.0000
  H   H22       1.0  0.10134994415361837  0.7174339606379544  0.5366886813949208  1.0000
  H   H23       1.0  0.7174363212579705  0.10134646335116317  0.03668700487500592  1.0000
  H   H24       1.0  0.8986531351931434  0.28256507474071657  0.4633127355246316  1.0000
  H   H25       1.0  0.11546813289081839  0.6774484359999488  0.9749437976024212  1.0000
  H   H26       1.0  0.3225505986446394  0.8845313579724557  0.5250568908947599  1.0000
  H   H27       1.0  0.8845333727133491  0.3225481661349361  0.02505308985923452  1.0000
  H   H28       1.0  0.6774524836458439  0.11546768035093176  0.4749459110710461  1.0000
  Pd  Pd1       1.0  0.5000009605063837  0.4999995159765475  0.4999997156901088  1.0000
  Pd  Pd2       1.0  0.49999886556580714  0.5000001858410812  2.536891230222337e-07  1.0000
  C   C1        1.0  0.6480019115540047  0.39304732709183526  0.598579292026983  1.0000
  C   C2        1.0  0.6069507028205052  0.3519994738634295  0.9014204842951443  1.0000
  C   C3        1.0  0.35200000798691633  0.6069517033888943  0.4014194468301042  1.0000
  C   C4        1.0  0.3930481315793132  0.6479983515487361  0.0985806752934337  1.0000
  C   C5        1.0  0.3663140542406038  0.35906765265019647  0.5545605685874619  1.0000
  C   C6        1.0  0.640933060227141  0.6336867974960327  0.9454390811663271  1.0000
  C   C7        1.0  0.6336859669846506  0.6409338037422782  0.44543812815577866  1.0000
  C   C8        1.0  0.35906618222200837  0.3663134503725303  0.054561159725174904  1.0000
  C   C9        1.0  0.9767752200831624  0.4329606319771527  0.7395369680503308  1.0000
  C   C10       1.0  0.5670400306508514  0.023226144104640394  0.7604625473463498  1.0000
  C   C11       1.0  0.02322439309276096  0.5670384019589247  0.2604626473899927  1.0000
  C   C12       1.0  0.4329607752379161  0.9767765267011935  0.23953737534114344  1.0000
  C   C13       1.0  0.08240554947709455  0.5094549628820745  0.7619952194152688  1.0000
  C   C14       1.0  0.49054458647260185  0.9175946461421558  0.7380053472316277  1.0000
  C   C15       1.0  0.917592906836681  0.49054406910077825  0.23800310300885033  1.0000
  C   C16       1.0  0.5094577499487797  0.08240681562913468  0.261996628067152  1.0000
  C   C17       1.0  0.19829601605005112  0.42791106461700673  0.8239266887794301  1.0000
  C   C18       1.0  0.572090052487617  0.8017039715962113  0.676073733463781  1.0000
  C   C19       1.0  0.8017047510442908  0.5720879683275796  0.17607283463084397  1.0000
  C   C20       1.0  0.427911871468865  0.19829506330160024  0.3239270829626903  1.0000
  C   C21       1.0  0.20406608540141488  0.27177120211376854  0.8619904925090935  1.0000
  C   C22       1.0  0.7282279593230854  0.7959336797320731  0.6380093814352605  1.0000
  C   C23       1.0  0.7959338985012677  0.7282266178898238  0.13800849748005112  1.0000
  C   C24       1.0  0.2717735909629226  0.20406656615350724  0.36199067539613583  1.0000
  C   C25       1.0  0.09646913585225292  0.20077867671955116  0.8356843398343017  1.0000
  C   C26       1.0  0.7992210475861371  0.903531566529963  0.6643154210152531  1.0000
  C   C27       1.0  0.9035304787955244  0.7992203586888849  0.16431596812914503  1.0000
  C   C28       1.0  0.2007778211925384  0.09646989232636827  0.33568406028117437  1.0000
  C   C29       1.0  0.086558354053814  0.041673911573767  0.8711783252643315  1.0000
  C   C30       1.0  0.9583247936231982  0.9134427603459512  0.6288221497034884  1.0000
  C   C31       1.0  0.9134404788741506  0.9583239123660402  0.12882214180111617  1.0000
  C   C32       1.0  0.041675230545763504  0.08655869899125429  0.3711779320860131  1.0000
  C   C33       1.0  0.17554612236087058  0.9098213080002747  0.9294811614671515  1.0000
  C   C34       1.0  0.0901785325333223  0.8244522720252544  0.5705195815212818  1.0000
  C   C35       1.0  0.824452335424759  0.09017772545494299  0.0705178534800979  1.0000
  C   C36       1.0  0.9098207113876879  0.1755479773156665  0.4294813518933509  1.0000
  C   C37       1.0  0.09376682312993281  0.7958933608414396  0.9359600524421906  1.0000
  C   C38       1.0  0.20410713132555725  0.9062333009972572  0.564040494618652  1.0000
  C   C39       1.0  0.906230890258456  0.20410809753402498  0.06403882836115571  1.0000
  C   C40       1.0  0.7958959480212116  0.09376573438141378  0.4359609223009002  1.0000
  N   N1        1.0  0.7304994961955557  0.31574663765921673  0.6565244706782564  1.0000
  N   N2        1.0  0.6842537619548922  0.2695009437913  0.843474470170051  1.0000
  N   N3        1.0  0.2694993711112659  0.6842548197247564  0.34347431809504053  1.0000
  N   N4        1.0  0.3157443265758317  0.7304993050687614  0.15652586275150074  1.0000
  N   N5        1.0  0.2904094803755158  0.27324794096330135  0.5874413903125557  1.0000
  N   N6        1.0  0.7267519420525943  0.7095887432897712  0.9125585336622279  1.0000
  N   N7        1.0  0.7095905437934393  0.7267535183738969  0.4125586914769457  1.0000
  N   N8        1.0  0.2732461076837041  0.29040786770903537  0.08744139998209727  1.0000
  N   N9        1.0  0.9832855037379102  0.2809754032033353  0.774385676275152  1.0000
  N   N10       1.0  0.719024452761012  0.016716327806463496  0.7256138374167945  1.0000
  N   N11       1.0  0.01671142940253388  0.7190248451758592  0.22561405615332566  1.0000
  N   N12       1.0  0.2809763516559015  0.9832863415270127  0.2743853927475755  1.0000
  N   N13       1.0  0.9599745400230474  0.007244727186396498  0.8438128678614942  1.0000
  N   N14       1.0  0.9927555671243549  0.040025465671739396  0.6561874038563573  1.0000
  N   N15       1.0  0.04002354703582254  0.9927555202012998  0.15618677253692675  1.0000
  N   N16       1.0  0.0072433045980348195  0.9599759961293157  0.3438134624863238  1.0000
  N   N17       1.0  0.9659806356517254  0.8578616467455972  0.8832210687412639  1.0000
  N   N18       1.0  0.1421392000754267  0.03401908759673229  0.6167793348353497  1.0000
  N   N19       1.0  0.0340189760523373  0.14213738571812226  0.1167778541759361  1.0000
  N   N20       1.0  0.8578619809556753  0.9659823736936912  0.3832220399703558  1.0000
