data_image0
_chemical_formula_structural       K4H28C24O20
_chemical_formula_sum              "K4 H28 C24 O20"
_cell_length_a       7.883951928229157
_cell_length_b       9.77448539505854
_cell_length_c       10.128286755551905
_cell_angle_alpha    104.5015318806044
_cell_angle_beta     93.25938577945313
_cell_angle_gamma    94.93038213101887

_space_group_name_H-M_alt    "P 1"
_space_group_IT_number       1

loop_
  _space_group_symop_operation_xyz
  'x, y, z'

loop_
  _atom_site_type_symbol
  _atom_site_label
  _atom_site_symmetry_multiplicity
  _atom_site_fract_x
  _atom_site_fract_y
  _atom_site_fract_z
  _atom_site_occupancy
  K   K1        1.0  0.18864832987371474  0.25067264385128857  0.24468376372610834  1.0000
  K   K2        1.0  0.811584819456357  0.7496485311697256  0.7554526245297383  1.0000
  K   K3        1.0  0.7222691534770505  0.22268588935461514  0.35597186380146445  1.0000
  K   K4        1.0  0.2776782054276837  0.777190474288979  0.6438640541833394  1.0000
  H   H1        1.0  0.7956692422176772  0.9334055714974455  0.426555167133465  1.0000
  H   H2        1.0  0.20441019571634206  0.0665167924334966  0.5733552845810053  1.0000
  H   H3        1.0  0.2850921748471862  0.3949771526398179  0.9124234123955689  1.0000
  H   H4        1.0  0.7149607576559235  0.6049836169925058  0.0876079572958801  1.0000
  H   H5        1.0  0.10336801576749372  0.297233245143623  0.5753317848308158  1.0000
  H   H6        1.0  0.8964750877065271  0.7027616695420917  0.4246901324858499  1.0000
  H   H7        1.0  0.06252289541053808  0.45456513066064713  0.6092377181942226  1.0000
  H   H8        1.0  0.9373553219413466  0.5454369688647204  0.3909154237713609  1.0000
  H   H9        1.0  0.2522752967836581  0.46275926752975505  0.4806132832591814  1.0000
  H   H10       1.0  0.7473911949918984  0.5373694570474896  0.5193214410968636  1.0000
  H   H11       1.0  0.4307296934461178  0.48004017395068393  0.4165605640045129  1.0000
  H   H12       1.0  0.5698422153413959  0.5204811532368012  0.5849174294550465  1.0000
  H   H13       1.0  0.07423761569064169  0.6944758406833742  0.24746608680391086  1.0000
  H   H14       1.0  0.9257897139964016  0.30551527206349505  0.7525193924196215  1.0000
  H   H15       1.0  0.34703178455932  0.7640146824152936  0.32634340001028045  1.0000
  H   H16       1.0  0.6530073590576253  0.2359499120060633  0.6736124068819153  1.0000
  H   H17       1.0  0.5450548099907878  0.8826118616796065  0.19141256689643876  1.0000
  H   H18       1.0  0.45498290990875034  0.11737395008178449  0.8085492658625454  1.0000
  H   H19       1.0  0.4459272343777698  0.6246075297624499  0.12986469092193428  1.0000
  H   H20       1.0  0.5541195484312382  0.375388781230555  0.8700495899450402  1.0000
  H   H21       1.0  0.1691764933625421  0.5582752807843931  0.07046384134638825  1.0000
  H   H22       1.0  0.8308809087174184  0.4417341616963952  0.9295309507460701  1.0000
  H   H23       1.0  0.964744901305025  0.7317928363535203  0.02303032614908315  1.0000
  H   H24       1.0  0.0352824504146341  0.2681972421639145  0.9769618181582301  1.0000
  H   H25       1.0  0.10037821935491559  0.945055924649452  0.9576205692659342  1.0000
  H   H26       1.0  0.8996381062314426  0.0549691391357001  0.04239540208794781  1.0000
  H   H27       1.0  0.40608703307019317  0.031722966046245894  0.0578088029531543  1.0000
  H   H28       1.0  0.5939200494495794  0.96830194884771  0.9421900475960143  1.0000
  C   C1        1.0  0.11115739614346859  0.7949123472395739  0.22201169591004793  1.0000
  C   C2        1.0  0.8888819167699397  0.20507354039061454  0.7779660057782394  1.0000
  C   C3        1.0  0.3032587009850544  0.8437894752259396  0.2760359864834925  1.0000
  C   C4        1.0  0.696788068815991  0.1561847784429204  0.7239322558074974  1.0000
  C   C5        1.0  0.41123147281927436  0.8464144248251771  0.15391335928702432  1.0000
  C   C6        1.0  0.5888117534407016  0.1535650419292551  0.8460402185227095  1.0000
  C   C7        1.0  0.3993681635816557  0.6892477862089167  0.06373142993552959  1.0000
  C   C8        1.0  0.6006624271185999  0.310749481930003  0.9361934197066334  1.0000
  C   C9        1.0  0.20760211348110863  0.6388945479158892  0.015725442281201655  1.0000
  C   C10       1.0  0.7924317273966609  0.361100807524835  0.9842454644576507  1.0000
  C   C11       1.0  0.09830697290988868  0.764124455745346  0.062369801789230836  1.0000
  C   C12       1.0  0.9017171566212172  0.2358709002265869  0.9376235031653124  1.0000
  C   C13       1.0  0.983096280976838  0.8967651815508901  0.2845592936254064  1.0000
  C   C14       1.0  0.0169570832411026  0.1032452204290877  0.7154188112755193  1.0000
  C   C15       1.0  0.32222710368540675  0.983707160154907  0.3863436329323662  1.0000
  C   C16       1.0  0.6777915509220236  0.016265774102514296  0.6136223982602473  1.0000
  C   C17       1.0  0.5211827174488164  0.682934641954063  0.9505297963161965  1.0000
  C   C18       1.0  0.4788461436101841  0.31699355184212413  0.04935968334419269  1.0000
  C   C19       1.0  0.17532429018794463  0.5597212195003253  0.8654564214172923  1.0000
  C   C20       1.0  0.8246588239991938  0.4402482900719277  0.1345283786038749  1.0000
  C   C21       1.0  0.1728451027540885  0.8926401001989961  0.021751756370882405  1.0000
  C   C22       1.0  0.8271780505393806  0.10735841937636792  0.9782393128010654  1.0000
  C   C23       1.0  0.3345864974234729  0.9370610855917434  0.07181953562749757  1.0000
  C   C24       1.0  0.6654460536564885  0.0629332160735459  0.9281560142532612  1.0000
  O   O1        1.0  0.9802675575746989  0.0178323912692306  0.26494904303134353  1.0000
  O   O2        1.0  0.01978082615261198  0.982167356325817  0.7350273354383248  1.0000
  O   O3        1.0  0.875323816584114  0.8449796959154696  0.3575464613074714  1.0000
  O   O4        1.0  0.12472621846258392  0.15502117787004718  0.6424430772898476  1.0000
  O   O5        1.0  0.38696090205457523  0.09814466274445982  0.3691393477934568  1.0000
  O   O6        1.0  0.6130659267514816  0.9018274108823544  0.6308593271216125  1.0000
  O   O7        1.0  0.2594781448297141  0.9678500974805219  0.49858289004712475  1.0000
  O   O8        1.0  0.7404942557322444  0.0321181732175901  0.5013805306764497  1.0000
  O   O9        1.0  0.4731774037183171  0.7034003592983281  0.8374820286534188  1.0000
  O   O10       1.0  0.5268181293546945  0.2963288782833616  0.1623103134866426  1.0000
  O   O11       1.0  0.6775507222765071  0.662986028388552  0.9809613838318044  1.0000
  O   O12       1.0  0.3224824060143092  0.3370218912508065  0.01897004999264599  1.0000
  O   O13       1.0  0.0852510571452072  0.6018335217091035  0.7808958804524551  1.0000
  O   O14       1.0  0.9146725921739645  0.398134469461759  0.21910737300166258  1.0000
  O   O15       1.0  0.2387718990590812  0.4376757791631862  0.8282266763441656  1.0000
  O   O16       1.0  0.7612368882494637  0.5623204609703479  0.17175647070524042  1.0000
  O   O17       1.0  0.0792479247957942  0.3745864065086267  0.530759251418651  1.0000
  O   O18       1.0  0.9204623334372856  0.6254245414641132  0.4693273924248942  1.0000
  O   O19       1.0  0.33079966920705317  0.5288142089071712  0.4448146123920721  1.0000
  O   O20       1.0  0.6685531721982444  0.4710253827681753  0.5545617855199653  1.0000
