data_image0
_chemical_formula_structural       Cd4H48C56N40
_chemical_formula_sum              "Cd4 H48 C56 N40"
_cell_length_a       7.693104815756775
_cell_length_b       7.693103452965565
_cell_length_c       25.60742581903497
_cell_angle_alpha    92.89841230811163
_cell_angle_beta     92.89866678565124
_cell_angle_gamma    93.25680442800487

_space_group_name_H-M_alt    "P 1"
_space_group_IT_number       1

loop_
  _space_group_symop_operation_xyz
  'x, y, z'

loop_
  _atom_site_type_symbol
  _atom_site_label
  _atom_site_symmetry_multiplicity
  _atom_site_fract_x
  _atom_site_fract_y
  _atom_site_fract_z
  _atom_site_occupancy
  Cd  Cd1       1.0  0.7607700227872061  0.5697153329131055  0.031437158835615306  1.0000
  Cd  Cd2       1.0  0.5697153454243493  0.7607680099543472  0.5314365927899374  1.0000
  Cd  Cd3       1.0  0.23923190745349396  0.43028412950146594  0.9685633980037166  1.0000
  Cd  Cd4       1.0  0.4302839913574631  0.23923145186022052  0.4685627511815866  1.0000
  H   H1        1.0  0.8154482455896926  0.9098945645905587  0.0122204470185991  1.0000
  H   H2        1.0  0.9098924932329028  0.8154457050308255  0.5122200301877342  1.0000
  H   H3        1.0  0.18455505527676763  0.09010620365449283  0.9877805429718478  1.0000
  H   H4        1.0  0.09010683673815123  0.18455374996752744  0.4877800945951876  1.0000
  H   H5        1.0  0.0028879151965100075  0.8743664914197427  0.04428520950534681  1.0000
  H   H6        1.0  0.8743687058879817  0.002885859899528503  0.5442857785362775  1.0000
  H   H7        1.0  0.997113949661312  0.12563167398461422  0.955714544602543  1.0000
  H   H8        1.0  0.12562939103381152  0.9971148901049747  0.4557147377470372  1.0000
  H   H9        1.0  0.7161115931237491  0.3469572938596244  0.1068748924863598  1.0000
  H   H10       1.0  0.3469557049690765  0.7161133436403376  0.6068754133865895  1.0000
  H   H11       1.0  0.28388658280242396  0.6530447667875309  0.8931248649056016  1.0000
  H   H12       1.0  0.6530423333805973  0.28388611617018  0.3931235193538782  1.0000
  H   H13       1.0  0.5384722787078715  0.4554819855803559  0.1136863772654664  1.0000
  H   H14       1.0  0.45548163345347353  0.5384770775027833  0.6136871576892914  1.0000
  H   H15       1.0  0.46152184731851525  0.5445174511774482  0.886313273810316  1.0000
  H   H16       1.0  0.5445151752523146  0.46152368072199584  0.38631177614585965  1.0000
  H   H17       1.0  0.9802916732242297  0.7787256703932289  0.2873712923802785  1.0000
  H   H18       1.0  0.7787263406978298  0.9802958144711341  0.7873716088512738  1.0000
  H   H19       1.0  0.0197039814366775  0.22127769348034584  0.7126272740639124  1.0000
  H   H20       1.0  0.22127430813762322  0.019703662979921408  0.21262658472851104  1.0000
  H   H21       1.0  0.4322611114587148  0.06112990373942041  0.1462687989846359  1.0000
  H   H22       1.0  0.061133299002392505  0.4322590951931177  0.6462716810450644  1.0000
  H   H23       1.0  0.5677393861787294  0.9388669592425671  0.8537301315664507  1.0000
  H   H24       1.0  0.93886738456753  0.5677416485951813  0.3537308289174561  1.0000
  H   H25       1.0  0.5123923892512965  0.6110012586473418  0.1934766742466394  1.0000
  H   H26       1.0  0.611004522837334  0.5123984388092852  0.6934768725515355  1.0000
  H   H27       1.0  0.4876002871449502  0.38899556163733723  0.8065233025693885  1.0000
  H   H28       1.0  0.3889960503991148  0.4875997314072365  0.3065216895139002  1.0000
  H   H29       1.0  0.06715779361376661  0.025386489303436104  0.12475454435110582  1.0000
  H   H30       1.0  0.025389726254509505  0.06715688254264052  0.6247541469997843  1.0000
  H   H31       1.0  0.932846736896579  0.9746129805273541  0.8752464445446506  1.0000
  H   H32       1.0  0.974612348373441  0.9328451875247837  0.3752464536796509  1.0000
  H   H33       1.0  0.962253237525296  0.16899444490306342  0.20593062425857772  1.0000
  H   H34       1.0  0.16899562016311623  0.9622533133987262  0.7059312695741012  1.0000
  H   H35       1.0  0.0377461612340042  0.8310063105136081  0.794069912850091  1.0000
  H   H36       1.0  0.831005224820949  0.037750055082959505  0.2940693322000243  1.0000
  H   H37       1.0  0.1580614627205179  0.6539987746147915  0.2179737754496145  1.0000
  H   H38       1.0  0.6539973767755571  0.15806443418729543  0.717973725497501  1.0000
  H   H39       1.0  0.8419328076931196  0.3460032697958724  0.7820259194662711  1.0000
  H   H40       1.0  0.34600449829840596  0.8419337414413878  0.2820248573932957  1.0000
  H   H41       1.0  0.6547055769614476  0.7544940279448228  0.2754858150611526  1.0000
  H   H42       1.0  0.7544964954098318  0.6547085928507529  0.7754863436499733  1.0000
  H   H43       1.0  0.3452900674833259  0.2455093257044325  0.7245139226001384  1.0000
  H   H44       1.0  0.2455054484523771  0.345290883196249  0.2245126515665703  1.0000
  H   H45       1.0  0.6425263015084185  0.18760996748723363  0.21664258790227817  1.0000
  H   H46       1.0  0.18761023887584125  0.642529545834755  0.7166442764567619  1.0000
  H   H47       1.0  0.35747180222412583  0.8123907893334918  0.7833571475696318  1.0000
  H   H48       1.0  0.8123945770036302  0.35747513589363694  0.2833571905248888  1.0000
  C   C1        1.0  0.05238348559802122  0.49809191158595223  0.1276978775243194  1.0000
  C   C2        1.0  0.49809031981102697  0.05238739896933001  0.6276978059159789  1.0000
  C   C3        1.0  0.9476120144595016  0.5019088344104432  0.8723018162968755  1.0000
  C   C4        1.0  0.5019103944072967  0.9476133754919333  0.3723011903952482  1.0000
  C   C5        1.0  0.7541715988470657  0.5516202295837475  0.1601235824071665  1.0000
  C   C6        1.0  0.551616925621076  0.7541743437635307  0.6601226411205657  1.0000
  C   C7        1.0  0.24582533381370555  0.44838311584523205  0.8398777377022809  1.0000
  C   C8        1.0  0.44838097174672253  0.24582251180223846  0.3398758573740963  1.0000
  C   C9        1.0  0.49533341861440766  0.8848775461876742  0.059646724727379294  1.0000
  C   C10       1.0  0.8848790980116803  0.49533269095959304  0.5596485443000674  1.0000
  C   C11       1.0  0.5046671444059073  0.11512061380452111  0.9403530085551495  1.0000
  C   C12       1.0  0.11511891309497463  0.504666741586057  0.4403535116859842  1.0000
  C   C13       1.0  0.8093515324947232  0.9569961997803633  0.0910979493577457  1.0000
  C   C14       1.0  0.9570065110035133  0.8093526540466061  0.5910978236830289  1.0000
  C   C15       1.0  0.19065133520997793  0.04299674550612311  0.9089029091124061  1.0000
  C   C16       1.0  0.04299946913697281  0.19064943225730244  0.4089028394724821  1.0000
  C   C17       1.0  0.9380490154472771  0.5640709062076968  0.16698648078290287  1.0000
  C   C18       1.0  0.5640686928715369  0.9380521166632435  0.6669858384851536  1.0000
  C   C19       1.0  0.06194388093522461  0.43592982896437604  0.8330131713875701  1.0000
  C   C20       1.0  0.4359319525585406  0.06194735737970092  0.3330127455003264  1.0000
  C   C21       1.0  0.6283984298827932  0.9670008292807069  0.0971994598219013  1.0000
  C   C22       1.0  0.9670059042102181  0.6283945927317873  0.5971996898811085  1.0000
  C   C23       1.0  0.3716033491598979  0.032996018664796616  0.9028018339887325  1.0000
  C   C24       1.0  0.03299732105723761  0.37160486827873024  0.4028016685949821  1.0000
  C   C25       1.0  0.9160020090157989  0.7148632351505814  0.2520357137358076  1.0000
  C   C26       1.0  0.7148619143406663  0.9160036798771076  0.7520359594193096  1.0000
  C   C27       1.0  0.08399349444710683  0.2851375142539254  0.7479635896796921  1.0000
  C   C28       1.0  0.28513872768402854  0.08399579075772579  0.247963014971873  1.0000
  C   C29       1.0  0.5718820242387893  0.0528861562320486  0.1424345055736183  1.0000
  C   C30       1.0  0.05289015617431402  0.5718866226090145  0.6424362322678475  1.0000
  C   C31       1.0  0.4281171647503897  0.9471106945215555  0.8575651849635051  1.0000
  C   C32       1.0  0.9471119838365072  0.42811674446862474  0.3575651711430297  1.0000
  C   C33       1.0  0.6542488456438705  0.6228696500241141  0.1991633596414957  1.0000
  C   C34       1.0  0.6228696196991025  0.654249808596241  0.6991629470391985  1.0000
  C   C35       1.0  0.34574672320189853  0.3771323963906071  0.8008367465054462  1.0000
  C   C36       1.0  0.377130877938342  0.3457470543857468  0.300835983511881  1.0000
  C   C37       1.0  0.927791332190644  0.0314062406169029  0.1304257149149706  1.0000
  C   C38       1.0  0.0314158011775092  0.9277911740381981  0.6304236875602099  1.0000
  C   C39       1.0  0.0722064623351315  0.9685892804494645  0.8695762753109407  1.0000
  C   C40       1.0  0.9685900413864774  0.07220831142907971  0.369576150943807  1.0000
  C   C41       1.0  0.8686921220901597  0.11271261993166354  0.1755261193389757  1.0000
  C   C42       1.0  0.1127173247841142  0.8686957378767275  0.6755257306475428  1.0000
  C   C43       1.0  0.1313096671686651  0.8872842382381595  0.824474003254565  1.0000
  C   C44       1.0  0.8872837504023466  0.1313115557166782  0.3244733752639348  1.0000
  C   C45       1.0  0.016104133137112307  0.6453573032717799  0.2134088495066138  1.0000
  C   C46       1.0  0.6453583642867002  0.016106353367042903  0.7134100874048741  1.0000
  C   C47       1.0  0.983892524370667  0.3546408404839242  0.786590821299839  1.0000
  C   C48       1.0  0.35464481262477676  0.9838918276738017  0.2865885163112765  1.0000
  C   C49       1.0  0.7342357572715912  0.7037635967231355  0.2448206633176255  1.0000
  C   C50       1.0  0.7037671714123663  0.7342428802982257  0.744821968938794  1.0000
  C   C51       1.0  0.2657622776727067  0.29623585967926414  0.7551786598285374  1.0000
  C   C52       1.0  0.2962347724498429  0.2657565957487763  0.2551770262777424  1.0000
  C   C53       1.0  0.6901742687854623  0.12373099038013183  0.18169389876283756  1.0000
  C   C54       1.0  0.12373259753201894  0.6901728712326545  0.6816946790825824  1.0000
  C   C55       1.0  0.30982512997383793  0.8762697650365397  0.8183066383458311  1.0000
  C   C56       1.0  0.8762720773655773  0.30982920625098864  0.31830635365327  1.0000
  N   N1        1.0  0.8697905806024268  0.8678973983903405  0.0463789938146846  1.0000
  N   N2        1.0  0.8678981845463766  0.869786622768473  0.5463797070814849  1.0000
  N   N3        1.0  0.1302127338855428  0.13210338348714154  0.9536204345529669  1.0000
  N   N4        1.0  0.13210237506856257  0.13021153381561132  0.45362041660674635  1.0000
  N   N5        1.0  0.2460318690524943  0.8207294672027816  0.020020549740991104  1.0000
  N   N6        1.0  0.8207305001398527  0.24602979060307462  0.5200224632794317  1.0000
  N   N7        1.0  0.753970143597968  0.1792713092625391  0.9799788578012991  1.0000
  N   N8        1.0  0.17926881620969234  0.7539696507628478  0.4799792231262856  1.0000
  N   N9        1.0  0.013423785711310603  0.46757706247589687  0.0757770183930333  1.0000
  N   N10       1.0  0.46757720649917195  0.013426916208111098  0.5757777486386573  1.0000
  N   N11       1.0  0.9865730229944775  0.5324236957488822  0.924221915442118  1.0000
  N   N12       1.0  0.5324222678591326  0.9865751464430945  0.42422241998436055  1.0000
  N   N13       1.0  0.5130935928693958  0.74265240217634  0.0274628096846072  1.0000
  N   N14       1.0  0.7426543173151786  0.5130903248888148  0.5274640971349029  1.0000
  N   N15       1.0  0.486908275393809  0.2573457666361278  0.97253655401758  1.0000
  N   N16       1.0  0.25734630768263145  0.4869091287054844  0.4725368292847704  1.0000
  N   N17       1.0  0.3554516069094333  0.7062046679279562  0.003388915227830601  1.0000
  N   N18       1.0  0.7062065825570373  0.3554505232488125  0.5033903184682416  1.0000
  N   N19       1.0  0.6445490351152687  0.29379480270688424  0.996610059163352  1.0000
  N   N20       1.0  0.29379534427828713  0.644548935757648  0.4966106287767929  1.0000
  N   N21       1.0  0.6725153514742317  0.46882095962747183  0.1138610512997786  1.0000
  N   N22       1.0  0.4688200641077104  0.6725187215988343  0.613862110148105  1.0000
  N   N23       1.0  0.32748145723155625  0.5311797985973072  0.8861378825353725  1.0000
  N   N24       1.0  0.5311766655936978  0.3274807259832998  0.3861375825783995  1.0000
  N   N25       1.0  0.32971809973801663  0.9350124627087838  0.055078878599779585  1.0000
  N   N26       1.0  0.9350135679286069  0.32971326190865113  0.5550811602968508  1.0000
  N   N27       1.0  0.6702865131820845  0.0649883211727555  0.9449209609989283  1.0000
  N   N28       1.0  0.0649844363672969  0.6702861638207764  0.4449216765006057  1.0000
  N   N29       1.0  0.2205086629440203  0.4650637035736907  0.1391169877026712  1.0000
  N   N30       1.0  0.4650594683717274  0.220509529936976  0.63911708152429  1.0000
  N   N31       1.0  0.7794894407885239  0.5349370532470348  0.8608827477692458  1.0000
  N   N32       1.0  0.534941163436841  0.7794899304735383  0.36088306408398546  1.0000
  N   N33       1.0  0.2848139030206483  0.4149812949793131  0.0937178691605354  1.0000
  N   N34       1.0  0.4149769350840914  0.2848157075617693  0.5937175089638984  1.0000
  N   N35       1.0  0.7151828232753844  0.5850181491947168  0.9062822139716715  1.0000
  N   N36       1.0  0.5850210930494484  0.7151837420244223  0.4062825949936624  1.0000
  N   N37       1.0  0.16169450677620745  0.41618567704131953  0.055838217081081595  1.0000
  N   N38       1.0  0.4161843262947969  0.16169693978229566  0.5558379979273269  1.0000
  N   N39       1.0  0.8383035281680905  0.5838137793610867  0.9441611060650814  1.0000
  N   N40       1.0  0.5838137808431227  0.8383038204465408  0.44416134713888766  1.0000
