data_image0
_chemical_formula_structural       Cd2H32C48N4Cl4O8
_chemical_formula_sum              "Cd2 H32 C48 N4 Cl4 O8"
_cell_length_a       9.82272335694632
_cell_length_b       10.536905136487674
_cell_length_c       13.674292174749212
_cell_angle_alpha    105.07000970379612
_cell_angle_beta     96.0753983065669
_cell_angle_gamma    110.12494389097067

_space_group_name_H-M_alt    "P 1"
_space_group_IT_number       1

loop_
  _space_group_symop_operation_xyz
  'x, y, z'

loop_
  _atom_site_type_symbol
  _atom_site_label
  _atom_site_symmetry_multiplicity
  _atom_site_fract_x
  _atom_site_fract_y
  _atom_site_fract_z
  _atom_site_occupancy
  Cd  Cd1       1.0  0.4132175266965276  0.12856066698628868  0.5838277361805382  1.0000
  Cd  Cd2       1.0  0.5867806846665076  0.8714396838301893  0.41616818107691234  1.0000
  H   H1        1.0  0.8617655183660062  0.7387851148882516  0.47666336321567826  1.0000
  H   H2        1.0  0.1382342182909824  0.2612109901306354  0.523336154292025  1.0000
  H   H3        1.0  0.08066386463432436  0.9424440858411384  0.4728549779397112  1.0000
  H   H4        1.0  0.9193332467499433  0.05755527713014169  0.5271479952757829  1.0000
  H   H5        1.0  0.9895651521134498  0.4434580362041487  0.6226450133502437  1.0000
  H   H6        1.0  0.010442774814073465  0.5565423463962842  0.37736240129070336  1.0000
  H   H7        1.0  0.4366233312018436  0.8959124983312775  0.21041683768586944  1.0000
  H   H8        1.0  0.5633719300248856  0.10408573003807217  0.7895777560318107  1.0000
  H   H9        1.0  0.48554025189426386  0.4397789413013197  0.5805106244048942  1.0000
  H   H10       1.0  0.5144682611232412  0.5602256848419029  0.41949476493096677  1.0000
  H   H11       1.0  0.16174794002743204  0.14046545220723058  0.25779389229376887  1.0000
  H   H12       1.0  0.8382449485889722  0.8595339152736299  0.7422059310313927  1.0000
  H   H13       1.0  0.6956165470061677  0.6593621413478273  0.5803017089894877  1.0000
  H   H14       1.0  0.3043946627296563  0.34063924081983277  0.41970169468199703  1.0000
  H   H15       1.0  0.14675466651362246  0.6821390381303158  0.7124030710109677  1.0000
  H   H16       1.0  0.8532505696567867  0.3178677381896405  0.28760112209428706  1.0000
  H   H17       1.0  0.35441722779197693  0.8892970841983895  0.6970817774717728  1.0000
  H   H18       1.0  0.6455863699548914  0.1107107672099303  0.3029218175181754  1.0000
  H   H19       1.0  0.7671578597930164  0.23458508022476815  0.6207540513348846  1.0000
  H   H20       1.0  0.23284748018738802  0.7654163995566704  0.379254182783299  1.0000
  H   H21       1.0  0.04419001250258246  0.2642711061413365  0.7631818652589357  1.0000
  H   H22       1.0  0.9558138769878752  0.7357399509182868  0.23682240270460403  1.0000
  H   H23       1.0  0.3854031390433618  0.8627036666479594  0.022725871764329508  1.0000
  H   H24       1.0  0.6145866599039495  0.1372988679358826  0.9772678519864257  1.0000
  H   H25       1.0  0.1083218109428188  0.10476143802590339  0.06841608587878058  1.0000
  H   H26       1.0  0.8916616419302841  0.89523480383437  0.9315833274366125  1.0000
  H   H27       1.0  0.45874728440104917  0.33879356652956716  0.9523610079271022  1.0000
  H   H28       1.0  0.5412599995161003  0.6612066902793643  0.0476331763231173  1.0000
  H   H29       1.0  0.9445810121057151  0.32640266255220496  0.9223982170306967  1.0000
  H   H30       1.0  0.05542003030282676  0.6735934902582059  0.0776072331015456  1.0000
  H   H31       1.0  0.3643498870803015  0.4102985533042443  0.1127455002103659  1.0000
  H   H32       1.0  0.6356615838819195  0.5897016920066988  0.8872510989084785  1.0000
  C   C1        1.0  0.9856874476369412  0.6917872288150234  0.5955009212935634  1.0000
  C   C2        1.0  0.01431615195711797  0.30821096956993427  0.40449776713965946  1.0000
  C   C3        1.0  0.8597177080584899  0.5675808727112396  0.5987999829915152  1.0000
  C   C4        1.0  0.14029029887863223  0.4324205058501887  0.40120032324051635  1.0000
  C   C5        1.0  0.30522524633226317  0.023966282201612888  0.24765350081567306  1.0000
  C   C6        1.0  0.6947676806097433  0.9760309245078599  0.7523436862789266  1.0000
  C   C7        1.0  0.967427114693905  0.7681155429970657  0.5284324237556602  1.0000
  C   C8        1.0  0.032574733347011914  0.23188055976703484  0.47156866869721625  1.0000
  C   C9        1.0  0.3424238848226722  0.0519032689884398  0.3621477238419075  1.0000
  C   C10       1.0  0.6575652889534496  0.9480896975604125  0.6378491261400255  1.0000
  C   C11       1.0  0.08963018519844451  0.8818924617441507  0.5252087849650805  1.0000
  C   C12       1.0  0.9103676577698041  0.11810900496379868  0.47479173177989503  1.0000
  C   C13       1.0  0.3148570775266464  0.25377464281994827  0.7530201771117218  1.0000
  C   C14       1.0  0.6851408428484049  0.7462299876087995  0.2469766024766001  1.0000
  C   C15       1.0  0.8798853294861928  0.44769847693562786  0.6128971346190255  1.0000
  C   C16       1.0  0.12011954013662769  0.5522997622524244  0.38710675141702916  1.0000
  C   C17       1.0  0.36590842546822694  0.9435756307150596  0.18060919166870087  1.0000
  C   C18       1.0  0.6340837018026022  0.05642477578469139  0.8193871459052031  1.0000
  C   C19       1.0  0.5992354939707383  0.44518998947046357  0.5880038827059266  1.0000
  C   C20       1.0  0.4007690872668945  0.5548103615700624  0.41199749440873024  1.0000
  C   C21       1.0  0.211333137381267  0.08059088192197089  0.20619322619460684  1.0000
  C   C22       1.0  0.7886547994860962  0.9194042185720052  0.7938025324584713  1.0000
  C   C23       1.0  0.7153362670518958  0.5658657122854008  0.5873108902641349  1.0000
  C   C24       1.0  0.2846713383704369  0.4341346074192813  0.412689909181445  1.0000
  C   C25       1.0  0.12728258159263814  0.7353743522074152  0.6571124958046966  1.0000
  C   C26       1.0  0.8727190111830865  0.2646260371573703  0.34289019400075194  1.0000
  C   C27       1.0  0.24329924807586417  0.8512445670478994  0.6495561076519535  1.0000
  C   C28       1.0  0.7567018010494878  0.1487622207700453  0.35044567058467624  1.0000
  C   C29       1.0  0.7571952163277587  0.3308357056727118  0.6115187246623746  1.0000
  C   C30       1.0  0.24281012625544915  0.669163606348924  0.3884861382035395  1.0000
  C   C31       1.0  0.2577648709359721  0.2986043799724456  0.8482219610260201  1.0000
  C   C32       1.0  0.7422355232565963  0.701395982566076  0.15177700122001878  1.0000
  C   C33       1.0  0.11340690627972087  0.29613421296733117  0.8400343128341702  1.0000
  C   C34       1.0  0.8865977821263016  0.7038661590384475  0.15996926934560912  1.0000
  C   C35       1.0  0.33680539975017604  0.923483589973145  0.0745653524771797  1.0000
  C   C36       1.0  0.6631829419903782  0.07651788688134789  0.9254280770145442  1.0000
  C   C37       1.0  0.1807434154912642  0.06050813859639697  0.10035558102581629  1.0000
  C   C38       1.0  0.819242222814168  0.9394859472261103  0.8996435060258958  1.0000
  C   C39       1.0  0.2451116055890806  0.982921297523461  0.03531476184193138  1.0000
  C   C40       1.0  0.7548777144366383  0.017077014482836696  0.9646831922790325  1.0000
  C   C41       1.0  0.34717171934276086  0.3383946969445475  0.9467626091781864  1.0000
  C   C42       1.0  0.6528357431883833  0.6616055948064671  0.0532352501805704  1.0000
  C   C43       1.0  0.057579902071800866  0.3307678022832191  0.9284010615044804  1.0000
  C   C44       1.0  0.9424205959307629  0.6692272637167775  0.07160194175448711  1.0000
  C   C45       1.0  0.14954044629187987  0.3715422691892627  0.025608109097511513  1.0000
  C   C46       1.0  0.8504675215640419  0.6284537848799799  0.9743932980606187  1.0000
  C   C47       1.0  0.2947143746010568  0.3770263448131742  0.035919139218300665  1.0000
  C   C48       1.0  0.7052933048696771  0.6229718211085425  0.9640797590184317  1.0000
  N   N1        1.0  0.2250363261351608  0.9229021888597158  0.5844438241585193  1.0000
  N   N2        1.0  0.7749646839089834  0.07709927446605039  0.41555905500420903  1.0000
  N   N3        1.0  0.618920202275966  0.3285510343393483  0.5977461218342767  1.0000
  N   N4        1.0  0.3810848161992552  0.6714503825463465  0.40225549708853936  1.0000
  Cl  Cl1       1.0  0.21094417552280473  0.9602160566548716  0.9038737988968746  1.0000
  Cl  Cl2       1.0  0.7890466024652697  0.039790798344348795  0.09612598478757658  1.0000
  Cl  Cl3       1.0  0.08267847351232398  0.4154551543275673  0.13676707488964007  1.0000
  Cl  Cl4       1.0  0.9173353912578082  0.5845398271321542  0.863238815295837  1.0000
  O   O1        1.0  0.2954573422267615  0.13507225759516925  0.4217557964014631  1.0000
  O   O2        1.0  0.7045420319966383  0.8649281130591575  0.5782431133936967  1.0000
  O   O3        1.0  0.42112066565493905  0.9933730558796864  0.39901041840222706  1.0000
  O   O4        1.0  0.5788585298190939  0.006606045214802202  0.6009786681399518  1.0000
  O   O5        1.0  0.4274430522989192  0.21966708104242358  0.7639815768634433  1.0000
  O   O6        1.0  0.5725562181144923  0.7803385861504208  0.23601329191878753  1.0000
  O   O7        1.0  0.2489466291006508  0.24811072365184828  0.6656114429641633  1.0000
  O   O8        1.0  0.7510528590079559  0.7519003029752724  0.33438600000050656  1.0000
