data_image0
_chemical_formula_structural       Zn2H16C32N6Cl6O8
_chemical_formula_sum              "Zn2 H16 C32 N6 Cl6 O8"
_cell_length_a       13.764256873485754
_cell_length_b       14.233948301309967
_cell_length_c       15.2210249687215
_cell_angle_alpha    91.34887668922214
_cell_angle_beta     90.7766410942522
_cell_angle_gamma    95.40567269878878

_space_group_name_H-M_alt    "P 1"
_space_group_IT_number       1

loop_
  _space_group_symop_operation_xyz
  'x, y, z'

loop_
  _atom_site_type_symbol
  _atom_site_label
  _atom_site_symmetry_multiplicity
  _atom_site_fract_x
  _atom_site_fract_y
  _atom_site_fract_z
  _atom_site_occupancy
  Zn  Zn1       1.0  0.5162367254572969  0.3961906458619282  0.49811911641999274  1.0000
  Zn  Zn2       1.0  0.4925143231258389  0.604999760424242  0.5009379600617336  1.0000
  H   H1        1.0  0.5427180132906031  0.3583004442182229  0.0576093841836709  1.0000
  H   H2        1.0  0.66215534497303  0.791242847676706  0.642941282834876  1.0000
  H   H3        1.0  0.3788626783994572  0.29984056800638104  0.3998987487972698  1.0000
  H   H4        1.0  0.33508754160366994  0.1890721273626568  0.3654236256954633  1.0000
  H   H5        1.0  0.593929260036056  0.9070565095293972  0.702278460592126  1.0000
  H   H6        1.0  0.5844230685622804  0.0175848603503397  0.660408554217156  1.0000
  H   H7        1.0  0.43367786607015546  0.985243190553298  0.3298069751638267  1.0000
  H   H8        1.0  0.41840085945927535  0.096336426957798  0.2928287841987753  1.0000
  H   H9        1.0  0.5353075018060096  0.6436785175408561  0.9441450918007489  1.0000
  H   H10       1.0  0.5424937001469985  0.3595177754662586  0.2215251729468832  1.0000
  H   H11       1.0  0.5442084854523017  0.6429195656620832  0.7813725647219911  1.0000
  H   H12       1.0  0.43296945771373163  0.6316198313399893  0.22566242619763704  1.0000
  H   H13       1.0  0.45738528120531896  0.34516841270350074  0.7709950725539798  1.0000
  H   H14       1.0  0.4296070515135355  0.6305422518063822  0.061670225563951006  1.0000
  H   H15       1.0  0.44336864510136564  0.345668611372929  0.9341158879855768  1.0000
  H   H16       1.0  0.5836655441500652  0.6894325488946933  0.6382212327223301  1.0000
  C   C1        1.0  0.4920664648683726  0.4961991357355869  0.3314897853464344  1.0000
  C   C2        1.0  0.5960006346043443  0.20650445006855017  0.5264238886461143  1.0000
  C   C3        1.0  0.5353579769176022  0.8029690007882024  0.5759445837675798  1.0000
  C   C4        1.0  0.464543787241503  0.1950354949130499  0.4298620930650756  1.0000
  C   C5        1.0  0.5393473690340898  0.9041214413773061  0.5781690689154146  1.0000
  C   C6        1.0  0.4706851962511535  0.0949212134807169  0.4183674110054909  1.0000
  C   C7        1.0  0.4931910525192862  0.9498095053091333  0.5085111582322028  1.0000
  C   C8        1.0  0.5172236826509148  0.04800083578061989  0.4864199277869901  1.0000
  C   C9        1.0  0.3160640324262686  0.4653120084352055  0.5057016645737349  1.0000
  C   C10       1.0  0.6887435354426328  0.5534816299672869  0.49097794004227063  1.0000
  C   C11       1.0  0.794348757027009  0.5653938839793112  0.488653936677494  1.0000
  C   C12       1.0  0.5108313094720032  0.4923663083661509  0.6683413527883674  1.0000
  C   C13       1.0  0.21069126190597126  0.4578347181909521  0.5004326589180437  1.0000
  C   C14       1.0  0.982992041975649  0.5556219051445623  0.4910296116206397  1.0000
  C   C15       1.0  0.022384701973130906  0.4702021081606561  0.4933945938822504  1.0000
  C   C16       1.0  0.12250141574443767  0.4615758515824099  0.496319184779047  1.0000
  C   C17       1.0  0.8828677786006408  0.563874681244819  0.4890201263614671  1.0000
  C   C18       1.0  0.516818235086383  0.4176889680945449  0.0941089693865322  1.0000
  C   C19       1.0  0.5165737763036659  0.5782162860878445  0.9063951888105777  1.0000
  C   C20       1.0  0.5177025298319008  0.4182314366421451  0.1854284358896123  1.0000
  C   C21       1.0  0.5229019048500163  0.57780303496407  0.815297856854059  1.0000
  C   C22       1.0  0.48831714574012597  0.495725381435875  0.2332512556604271  1.0000
  C   C23       1.0  0.455750625569209  0.5714223892696282  0.0964745024984808  1.0000
  C   C24       1.0  0.5028263926972655  0.4935715010272901  0.7660955041833475  1.0000
  C   C25       1.0  0.4567705050060624  0.57215232245332  0.18793804621233082  1.0000
  C   C26       1.0  0.4744342130111221  0.41003616571808976  0.809839928263763  1.0000
  C   C27       1.0  0.46748628695888766  0.41066402012171466  0.9008810453489746  1.0000
  C   C28       1.0  0.48645067653575313  0.4945182452498215  0.0478920640286162  1.0000
  C   C29       1.0  0.48942303695385897  0.4945543427415373  0.950981163771239  1.0000
  C   C30       1.0  0.41063641946292506  0.8898600453418055  0.4710464702144819  1.0000
  C   C31       1.0  0.5979754887429038  0.109477268396418  0.5259575871820559  1.0000
  C   C32       1.0  0.4079952975932599  0.792293791636382  0.47473121499749743  1.0000
  N   N1        1.0  0.47600478499906984  0.7491309053481672  0.520100337337972  1.0000
  N   N2        1.0  0.5234051376469607  0.2489121268431447  0.4860077312414575  1.0000
  N   N3        1.0  0.5920707172843009  0.7619856281267375  0.636128442271833  1.0000
  N   N4        1.0  0.39536546811143575  0.23367181994468916  0.3806671101698099  1.0000
  N   N5        1.0  0.5880791575351978  0.9477250992405857  0.6489403155900108  1.0000
  N   N6        1.0  0.42631050583569413  0.05386545771035861  0.34446322446467553  1.0000
  Cl  Cl1       1.0  0.9446249731294856  0.36710190123744724  0.4934253323891157  1.0000
  Cl  Cl2       1.0  0.06098884265967539  0.6586096080773061  0.4910026189455792  1.0000
  Cl  Cl3       1.0  0.3019007466662913  0.9352925029093696  0.4451301724671524  1.0000
  Cl  Cl4       1.0  0.7097977258722706  0.06655202993796647  0.5449948735469049  1.0000
  Cl  Cl5       1.0  0.3147144276447662  0.7211399348760067  0.4248579069718303  1.0000
  Cl  Cl6       1.0  0.6886061544430929  0.27923348804099385  0.5751545991063695  1.0000
  O   O1        1.0  0.5175746840555675  0.4218566125096572  0.36692434472017516  1.0000
  O   O2        1.0  0.5308012210277226  0.5711115876920799  0.6307246343682211  1.0000
  O   O3        1.0  0.46951618257809  0.5703579465857233  0.3720828501330828  1.0000
  O   O4        1.0  0.49686599407051074  0.4125353583327396  0.6283991499752375  1.0000
  O   O5        1.0  0.3594392001429013  0.39370664901746005  0.4822447314510897  1.0000
  O   O6        1.0  0.6423270111881649  0.625877329057502  0.4811699349401408  1.0000
  O   O7        1.0  0.3557043666252326  0.5446586502294579  0.5336551799131968  1.0000
  O   O8        1.0  0.6540066391996503  0.46922792022353116  0.5037960301685374  1.0000
