data_image0
_chemical_formula_structural       Cu2H26C26N4Cl2O8
_chemical_formula_sum              "Cu2 H26 C26 N4 Cl2 O8"
_cell_length_a       8.283217455123348
_cell_length_b       8.745419150233209
_cell_length_c       11.416059815744335
_cell_angle_alpha    76.44010651378369
_cell_angle_beta     92.7910674965499
_cell_angle_gamma    69.92722070065356

_space_group_name_H-M_alt    "P 1"
_space_group_IT_number       1

loop_
  _space_group_symop_operation_xyz
  'x, y, z'

loop_
  _atom_site_type_symbol
  _atom_site_label
  _atom_site_symmetry_multiplicity
  _atom_site_fract_x
  _atom_site_fract_y
  _atom_site_fract_z
  _atom_site_occupancy
  Cu  Cu1       1.0  0.3913111020024331  0.6663378786329802  0.9683288171628276  1.0000
  Cu  Cu2       1.0  0.6086936717576777  0.3336759780985545  0.03165470633246771  1.0000
  H   H1        1.0  0.4086156967286811  0.2907879569603296  0.4347588160898965  1.0000
  H   H2        1.0  0.5913778982160238  0.7091862886179071  0.5652400933611759  1.0000
  H   H3        1.0  0.6092262882297561  0.16605906171967183  0.2959955943822905  1.0000
  H   H4        1.0  0.3907844901267553  0.8339150758601903  0.7040088057865007  1.0000
  H   H5        1.0  0.8876067217436445  0.9378394983615976  0.37581049060401023  1.0000
  H   H6        1.0  0.11239998883330324  0.06213413283425948  0.6242070959604078  1.0000
  H   H7        1.0  0.983613010640589  0.8135959580393218  0.6017036691744551  1.0000
  H   H8        1.0  0.016382835542202732  0.18638761309101423  0.398315594329091  1.0000
  H   H9        1.0  0.5738227472675774  0.0295628424555119  0.8897573604807149  1.0000
  H   H10       1.0  0.42616158109490976  0.970450101608712  0.11024798330170436  1.0000
  H   H11       1.0  0.27284928840837364  0.21729758496856988  0.7690534652790076  1.0000
  H   H12       1.0  0.7271402044074621  0.7827232373193453  0.2309435848872496  1.0000
  H   H13       1.0  0.25118230205546155  0.26675539703844453  0.6083199014305762  1.0000
  H   H14       1.0  0.7488020384760221  0.733247552540213  0.3916836407053239  1.0000
  H   H15       1.0  0.39378810288011595  0.48813229612707687  0.6114036857455076  1.0000
  H   H16       1.0  0.6062243241219606  0.5118477216989915  0.3885778146094411  1.0000
  H   H17       1.0  0.18246173436089919  0.5353641150190641  0.6506148775020719  1.0000
  H   H18       1.0  0.8175523408152189  0.46464462921590405  0.3493722630331604  1.0000
  H   H19       1.0  0.8745410378212387  0.8150473811613634  0.9452794266881668  1.0000
  H   H20       1.0  0.1254339672701903  0.18496895623268728  0.054734866615355315  1.0000
  H   H21       1.0  0.013889397965520807  0.8089551205846349  0.8334456719024955  1.0000
  H   H22       1.0  0.9860974087027331  0.1910660466356759  0.1665758333763776  1.0000
  H   H23       1.0  0.8775427039269488  0.6220026147017136  0.74904051334223  1.0000
  H   H24       1.0  0.12247337444091505  0.37801292280605037  0.250967410157827  1.0000
  H   H25       1.0  0.015448735867451543  0.5282504592048409  0.8886988968699256  1.0000
  H   H26       1.0  0.9845620945373028  0.4717635920320902  0.11131447546107152  1.0000
  C   C1        1.0  0.5850481418064746  0.11720007972004248  0.5958812907812785  1.0000
  C   C2        1.0  0.41493689122065563  0.8827914836935876  0.40412420224477336  1.0000
  C   C3        1.0  0.5331461792575142  0.18851959768997525  0.4710445618844474  1.0000
  C   C4        1.0  0.4668492724332014  0.8114569290879599  0.5289609948152574  1.0000
  C   C5        1.0  0.6449122049662321  0.11838629881847851  0.3942393056362974  1.0000
  C   C6        1.0  0.3550906326275794  0.8815901678990342  0.6057689825658841  1.0000
  C   C7        1.0  0.8047508851610489  0.984857144356674  0.44077275860409776  1.0000
  C   C8        1.0  0.1952490325654992  0.0151242401653349  0.5592381613565536  1.0000
  C   C9        1.0  0.8581757164058889  0.914427484137306  0.5656097503859813  1.0000
  C   C10       1.0  0.1418234450126334  0.0855562980323583  0.43440425795823495  1.0000
  C   C11       1.0  0.7447825047629597  0.9824204471162545  0.6424111075876268  1.0000
  C   C12       1.0  0.2552025492428314  0.0175747509726918  0.3575981490820793  1.0000
  C   C13       1.0  0.6038863974025901  0.03669961009359209  0.7977115875560087  1.0000
  C   C14       1.0  0.3961012793432844  0.9633071851997029  0.20229046306423018  1.0000
  C   C15       1.0  0.3268593893660069  0.2683717863423212  0.6893678984495466  1.0000
  C   C16       1.0  0.6731297202503513  0.7316339126162034  0.3106299734710518  1.0000
  C   C17       1.0  0.3175317823026873  0.44804076260459164  0.6804898047054309  1.0000
  C   C18       1.0  0.6824773811070274  0.551958027185094  0.31949371318163605  1.0000
  C   C19       1.0  0.38144448428160893  0.4711340962207799  0.8000366702614699  1.0000
  C   C20       1.0  0.6186030289402354  0.5288523607634656  0.1999459182954624  1.0000
  C   C21       1.0  0.8898457377879084  0.7971514349650944  0.8538973435679721  1.0000
  C   C22       1.0  0.11014469469353123  0.20286244894567315  0.1461175587807801  1.0000
  C   C23       1.0  0.8896620147766897  0.6251516758682031  0.8449478466354916  1.0000
  C   C24       1.0  0.11035526939397049  0.3748638677007889  0.15506009072094432  1.0000
  C   C25       1.0  0.7456039519038598  0.5743751149993344  0.901043340514491  1.0000
  C   C26       1.0  0.2543877766883824  0.4256448741558713  0.0989424825039009  1.0000
  N   N1        1.0  0.5017737447071938  0.1468944796032119  0.6959520078749719  1.0000
  N   N2        1.0  0.49820264625193295  0.8530971699522069  0.304049857004145  1.0000
  N   N3        1.0  0.7511283537736521  0.9379469752812567  0.7685966267716465  1.0000
  N   N4        1.0  0.24886110837746866  0.062058498679029094  0.2314074246654769  1.0000
  Cl  Cl1       1.0  0.23223939899529725  0.9740507284302139  0.9050407534991791  1.0000
  Cl  Cl2       1.0  0.767760778621309  0.025962001660381897  0.0949385220146013  1.0000
  O   O1        1.0  0.3094193791131162  0.6155031147859589  0.8184502608016757  1.0000
  O   O2        1.0  0.6904588871330121  0.38445335633537775  0.18160461091572697  1.0000
  O   O3        1.0  0.5014980352326222  0.3433230887188187  0.8693506627417378  1.0000
  O   O4        1.0  0.49866534569380155  0.6567512995519706  0.13054909870820103  1.0000
  O   O5        1.0  0.6007194261799215  0.6932652365707951  0.8934444009547136  1.0000
  O   O6        1.0  0.39921513931809466  0.3067150639337087  0.1064151074163817  1.0000
  O   O7        1.0  0.7838435645620477  0.4176239484568712  0.9495333373224923  1.0000
  O   O8        1.0  0.21622674781823287  0.5824016356910776  0.050585757503739635  1.0000
