data_image0
_chemical_formula_structural       CuSiH8C24N4F14
_chemical_formula_sum              "Cu1 Si1 H8 C24 N4 F14"
_cell_length_a       8.002117822050282
_cell_length_b       13.762660823195747
_cell_length_c       13.762536348264826
_cell_angle_alpha    89.99942085535199
_cell_angle_beta     89.99960714207513
_cell_angle_gamma    89.99982245881569

_space_group_name_H-M_alt    "P 1"
_space_group_IT_number       1

loop_
  _space_group_symop_operation_xyz
  'x, y, z'

loop_
  _atom_site_type_symbol
  _atom_site_label
  _atom_site_symmetry_multiplicity
  _atom_site_fract_x
  _atom_site_fract_y
  _atom_site_fract_z
  _atom_site_occupancy
  Cu  Cu1       1.0  0.5000230698369209  0.4999955844419189  0.5000010178142416  1.0000
  Si  Si1       1.0  1.2936391968300007e-05  0.49999598989386823  0.5000012387209124  1.0000
  H   H1        1.0  0.23758708562258596  0.6563761679570134  0.499980379694186  1.0000
  H   H2        1.0  0.7624231469224938  0.6563779221632159  0.4999844713929915  1.0000
  H   H3        1.0  0.23761674461178472  0.3436241459755179  0.4999790538489035  1.0000
  H   H4        1.0  0.7624503059933901  0.34359828870407927  0.5000899573989981  1.0000
  H   H5        1.0  0.2375940741728756  0.5000168049954326  0.6563847532137785  1.0000
  H   H6        1.0  0.7624288858693831  0.5000083867805003  0.6563830320843491  1.0000
  H   H7        1.0  0.23761100530406057  0.5000140260152219  0.3436291759415865  1.0000
  H   H8        1.0  0.762443318063973  0.4999053365826213  0.3436100166776227  1.0000
  C   C1        1.0  0.3536974768497246  0.6976834929789957  0.49998649038966636  1.0000
  C   C2        1.0  0.3518176790158663  0.7984539790167272  0.4999961572003356  1.0000
  C   C3        1.0  0.5000032881814251  0.8536757384423407  0.5000137625536282  1.0000
  C   C4        1.0  0.6481904708753348  0.7984559184755823  0.5000014084462447  1.0000
  C   C5        1.0  0.64631376318264  0.6976839822912524  0.49998884232047647  1.0000
  C   C6        1.0  0.5000004895388487  0.9557541095159081  0.5000364981818561  1.0000
  C   C7        1.0  0.4999981622315774  0.044234879202456084  0.5000432848445654  1.0000
  C   C8        1.0  0.5000078604341098  0.14631615681280855  0.5000398624653568  1.0000
  C   C9        1.0  0.3518269263676644  0.20153961003160248  0.5000049868761777  1.0000
  C   C10       1.0  0.3537236289065717  0.3023115463135537  0.4999950280462499  1.0000
  C   C11       1.0  0.6463374155618242  0.30229895645313576  0.5000584153090413  1.0000
  C   C12       1.0  0.6482009676459626  0.20152265754405357  0.5000596477123124  1.0000
  C   C13       1.0  0.3537005819536887  0.5000114158751217  0.6976879663674891  1.0000
  C   C14       1.0  0.35182545466151544  0.5000043686270458  0.7984673586482597  1.0000
  C   C15       1.0  0.5000096345476807  0.4999887107532998  0.8536785578946959  1.0000
  C   C16       1.0  0.6481957472462697  0.4999968622694695  0.798466797064634  1.0000
  C   C17       1.0  0.6463218669983349  0.5000060923685793  0.6976874118771974  1.0000
  C   C18       1.0  0.5000065036414371  0.4999693031256456  0.9557636653128296  1.0000
  C   C19       1.0  0.5000021461177155  0.4999593778537486  0.04424200375376588  1.0000
  C   C20       1.0  0.500009012521133  0.4999610417393967  0.146324204605456  1.0000
  C   C21       1.0  0.3518241493275057  0.4999935799915675  0.20154323133001373  1.0000
  C   C22       1.0  0.35371552489519337  0.5000025149739429  0.3023218897822416  1.0000
  C   C23       1.0  0.6463330611632401  0.49993833662009707  0.3023118896632368  1.0000
  C   C24       1.0  0.6482006904618774  0.49993957104848613  0.20153177081579796  1.0000
  N   N1        1.0  0.500003887589351  0.6492109162544891  0.49998500489948555  1.0000
  N   N2        1.0  0.5000297553652615  0.3507773461953788  0.5000228436493754  1.0000
  N   N3        1.0  0.5000121491975094  0.5000100889885601  0.6492184256632211  1.0000
  N   N4        1.0  0.5000264924622045  0.49997308724250894  0.35078724307112435  1.0000
  F   F1        1.0  0.21784651976868472  0.4999929068091759  0.5000073654342143  1.0000
  F   F2        1.0  0.7821821245120547  0.4999989886741643  0.4999983032749993  1.0000
  F   F3        1.0  1.69707291207e-05  0.5876153906676506  0.41238249868136007  1.0000
  F   F4        1.0  1.5438381950000246e-07  0.4123751359271636  0.5876185255638757  1.0000
  F   F5        1.0  1.2137489100900005e-05  0.5876130518173284  0.5876205463279475  1.0000
  F   F6        1.0  1.87339717854e-05  0.41238038117739245  0.41238120448679877  1.0000
  F   F7        1.0  0.7957412729418892  0.8452359969464495  0.5000023456310527  1.0000
  F   F8        1.0  0.2042653530677256  0.8452350233882128  0.49999692699029896  1.0000
  F   F9        1.0  0.7957495443771664  0.15473943318829694  0.5000937552325552  1.0000
  F   F10       1.0  0.2042723753884559  0.15476243806295994  0.4999873376479938  1.0000
  F   F11       1.0  0.7957438976369176  0.49999287316858687  0.8452493185375186  1.0000
  F   F12       1.0  0.20427422602796244  0.500007158253183  0.8452497126898276  1.0000
  F   F13       1.0  0.7957494198528963  0.49990408425878013  0.15474941694422029  1.0000
  F   F14       1.0  0.2042697505008206  0.5000099213160141  0.1547694291295656  1.0000
