data_image0
_chemical_formula_structural       Cu2H28C46N2O10
_chemical_formula_sum              "Cu2 H28 C46 N2 O10"
_cell_length_a       8.031568235016298
_cell_length_b       9.912352832835188
_cell_length_c       12.541727555765194
_cell_angle_alpha    87.09102536827274
_cell_angle_beta     75.31117382787066
_cell_angle_gamma    87.76382033745855

_space_group_name_H-M_alt    "P 1"
_space_group_IT_number       1

loop_
  _space_group_symop_operation_xyz
  'x, y, z'

loop_
  _atom_site_type_symbol
  _atom_site_label
  _atom_site_symmetry_multiplicity
  _atom_site_fract_x
  _atom_site_fract_y
  _atom_site_fract_z
  _atom_site_occupancy
  Cu  Cu1       1.0  0.8935925309775927  0.0693204844453987  0.9533934202756168  1.0000
  Cu  Cu2       1.0  0.10640703556416746  0.930695882406688  0.04659696355625438  1.0000
  H   H1        1.0  0.54829400144758  0.763352718766029  0.9122590409657929  1.0000
  H   H2        1.0  0.4517071343989087  0.2366566200824991  0.08773857104495865  1.0000
  H   H3        1.0  0.8999942630768628  0.5466282334062241  0.07108718678468051  1.0000
  H   H4        1.0  0.10000293018276098  0.4533801074818555  0.9289071606083891  1.0000
  H   H5        1.0  0.2846831257504761  0.6546938520734287  0.8962569439627186  1.0000
  H   H6        1.0  0.7153117328649047  0.3453227286652734  0.1037525798955484  1.0000
  H   H7        1.0  0.16193952245114218  0.0487368308125227  0.6208597274271594  1.0000
  H   H8        1.0  0.838059261802904  0.9512705842468281  0.3791463506758389  1.0000
  H   H9        1.0  0.5638226481107437  0.8903747108617206  0.7658487431616122  1.0000
  H   H10       1.0  0.43618251074266823  0.10963666958274841  0.23415605927043254  1.0000
  H   H11       1.0  0.22548651214104604  0.0985764840016401  0.4168610521799819  1.0000
  H   H12       1.0  0.7745173771628372  0.9014237443020859  0.5831380975434611  1.0000
  H   H13       1.0  0.5454245464615821  0.0948680861844053  0.8773221795905426  1.0000
  H   H14       1.0  0.454579793954636  0.905124172175945  0.12269081289423406  1.0000
  H   H15       1.0  0.4088512419213757  0.25944962269259964  0.7629206752993196  1.0000
  H   H16       1.0  0.5911440951287262  0.74053969780703  0.2370924025325322  1.0000
  H   H17       1.0  0.5705965195911346  0.4660252960863218  0.6779118089924907  1.0000
  H   H18       1.0  0.4293985653539565  0.5339578424194045  0.32208724016302165  1.0000
  H   H19       1.0  0.9861747450357754  0.3192818788622986  0.8164774415712157  1.0000
  H   H20       1.0  0.0138302577190075  0.680723352846215  0.18351730141170455  1.0000
  H   H21       1.0  0.0988017563728221  0.707546321372007  0.6907316425756985  1.0000
  H   H22       1.0  0.9011952590863147  0.29242889848122644  0.3092889674002633  1.0000
  H   H23       1.0  0.4045384280193147  0.7038481533489575  0.5921810167796264  1.0000
  H   H24       1.0  0.5954609571070079  0.2961340754391415  0.40783487921328987  1.0000
  H   H25       1.0  0.3512839117420583  0.30473253283663126  0.48335394795419956  1.0000
  H   H26       1.0  0.6487013313194223  0.6952707402022826  0.5166243416694838  1.0000
  H   H27       1.0  0.04610245575501179  0.3115000730617367  0.5795495652552629  1.0000
  H   H28       1.0  0.9538838659697646  0.688509207107927  0.4204234803588419  1.0000
  C   C1        1.0  0.47687443441584065  0.5594239931577435  0.9712913547061884  1.0000
  C   C2        1.0  0.5231152518275691  0.44059162480029096  0.02871750646602322  1.0000
  C   C3        1.0  0.5862292514171942  0.6710250715999847  0.9518921589528726  1.0000
  C   C4        1.0  0.4137721507587671  0.3289782648475494  0.0481128582084764  1.0000
  C   C5        1.0  0.7357014437295675  0.6661482519935049  0.987841239211235  1.0000
  C   C6        1.0  0.26430101067851547  0.33385905087491347  0.012156239251417815  1.0000
  C   C7        1.0  0.7821043669326286  0.5477906255890161  0.0434435723424826  1.0000
  C   C8        1.0  0.21789936538142027  0.45222478498431673  0.9565581014086956  1.0000
  C   C9        1.0  0.3212816776525429  0.562714395040608  0.9370439226132274  1.0000
  C   C10       1.0  0.678707935400702  0.43730221334021024  0.06296251359906078  1.0000
  C   C11       1.0  0.8392609652364058  0.7898787262355143  0.9785058628150334  1.0000
  C   C12       1.0  0.1607660611541846  0.2101273102380077  0.021491440787585185  1.0000
  C   C13       1.0  0.4116517600937541  0.020469683863360896  0.5050682787463783  1.0000
  C   C14       1.0  0.5883521461583213  0.9795407080801724  0.49493758135002935  1.0000
  C   C15       1.0  0.295734585283995  0.015057270228595597  0.610733269627502  1.0000
  C   C16       1.0  0.7042719436314825  0.984944981638151  0.38926932168533307  1.0000
  C   C17       1.0  0.34970295503136123  0.9692726724604128  0.7030082096985378  1.0000
  C   C18       1.0  0.650300927042629  0.030725521785044004  0.2969894391812246  1.0000
  C   C19       1.0  0.523584272723191  0.926004007815017  0.6925179735817648  1.0000
  C   C20       1.0  0.47642096157345293  0.07399622521846538  0.3074833372826971  1.0000
  C   C21       1.0  0.35985838455312796  0.06748717871449367  0.4090787488002973  1.0000
  C   C22       1.0  0.6401480015969767  0.932518071026962  0.5909197430145239  1.0000
  C   C23       1.0  0.22419931885168154  0.9722123134386179  0.8141019235362632  1.0000
  C   C24       1.0  0.7758242711798075  0.027778679562601404  0.1859046310607368  1.0000
  C   C25       1.0  0.6125299799150666  0.18390017776399498  0.8357746938273392  1.0000
  C   C26       1.0  0.3874728919442915  0.8160950803928984  0.16423283186384904  1.0000
  C   C27       1.0  0.5372734376639059  0.275888298735353  0.77293493051782  1.0000
  C   C28       1.0  0.46272566554662115  0.7241009428312922  0.2270735169009015  1.0000
  C   C29       1.0  0.6266252241365039  0.3902913460098176  0.7250497207314833  1.0000
  C   C30       1.0  0.3733698992111414  0.6096918057990948  0.2749509161149105  1.0000
  C   C31       1.0  0.7915966280811658  0.40594510670162975  0.7387639717941779  1.0000
  C   C32       1.0  0.2084009153075996  0.59404303993864  0.26123283176182344  1.0000
  C   C33       1.0  0.8588682262666935  0.3095311747366623  0.8024002538083577  1.0000
  C   C34       1.0  0.1411318632156906  0.6904650577319201  0.19759973079541734  1.0000
  C   C35       1.0  0.053560027860896794  0.5093790832960465  0.6427448741837904  1.0000
  C   C36       1.0  0.9464269765180829  0.49061722825520354  0.3572485820731969  1.0000
  C   C37       1.0  0.1560514786501486  0.6193947693715885  0.6450041488772126  1.0000
  C   C38       1.0  0.8439461763313288  0.3805924001490766  0.35499666732960117  1.0000
  C   C39       1.0  0.3296488706801241  0.6156050104206797  0.588870719377361  1.0000
  C   C40       1.0  0.6703424133169376  0.38437921074400083  0.4111321229222397  1.0000
  C   C41       1.0  0.40745453299395246  0.5024226556709905  0.5299122440485033  1.0000
  C   C42       1.0  0.5925390822677342  0.4975685611253837  0.4700842965771697  1.0000
  C   C43       1.0  0.2998859683841601  0.3936987204196853  0.5293184202151904  1.0000
  C   C44       1.0  0.7001033756158818  0.6063015423274295  0.4706672769478003  1.0000
  C   C45       1.0  0.12603368511635438  0.39636436497240624  0.5838188467883538  1.0000
  C   C46       1.0  0.87395172826821  0.603632872407573  0.41616287875871893  1.0000
  N   N1        1.0  0.7697454237599146  0.20167539623441405  0.8508708508895991  1.0000
  N   N2        1.0  0.23026376148003178  0.7983227903236952  0.14913226717246886  1.0000
  O   O1        1.0  0.7831709351419249  0.8981632443214522  0.9383725519297523  1.0000
  O   O2        1.0  0.216841729601164  0.101845937547175  0.06162069498690669  1.0000
  O   O3        1.0  0.9730831324876661  0.7783286484371744  0.016123058572034644  1.0000
  O   O4        1.0  0.026935928309143292  0.2216743484799508  0.9838637899916092  1.0000
  O   O5        1.0  0.080825880217084  0.03313025764725099  0.816827642379401  1.0000
  O   O6        1.0  0.9191766749388749  0.9668730170141444  0.18317159746855075  1.0000
  O   O7        1.0  0.27153715996154654  0.9168033112482799  0.8961326774937745  1.0000
  O   O8        1.0  0.7284691410270199  0.08320495632263909  0.10386409635935215  1.0000
  O   O9        1.0  0.8798061939428976  0.5213959522792209  0.6947575683378842  1.0000
  O   O10       1.0  0.12018738291624229  0.4785952512139744  0.3052373845969071  1.0000
