data_image0
_chemical_formula_structural       La2Ni3H30C24N6O24
_chemical_formula_sum              "La2 Ni3 H30 C24 N6 O24"
_cell_length_a       7.469100171363123
_cell_length_b       13.348216720552452
_cell_length_c       13.347776478658451
_cell_angle_alpha    120.00004363929705
_cell_angle_beta     90.00009367717703
_cell_angle_gamma    90.00184253926652

_space_group_name_H-M_alt    "P 1"
_space_group_IT_number       1

loop_
  _space_group_symop_operation_xyz
  'x, y, z'

loop_
  _atom_site_type_symbol
  _atom_site_label
  _atom_site_symmetry_multiplicity
  _atom_site_fract_x
  _atom_site_fract_y
  _atom_site_fract_z
  _atom_site_occupancy
  La  La1       1.0  0.6616792253627821  0.33334058657254667  0.6666750971426936  1.0000
  La  La2       1.0  0.3383227293590849  0.6666593224837031  0.3333280472801762  1.0000
  Ni  Ni1       1.0  9.573751781999998e-07  0.5000010478170793  6.250958790962053e-07  1.0000
  Ni  Ni2       1.0  0.9999993392326659  7.473589604999981e-07  0.5000002325384685  1.0000
  Ni  Ni3       1.0  1.6581098237000003e-06  0.4999981138459474  0.4999992900175768  1.0000
  H   H1        1.0  0.29308946749188897  0.2613306020653355  0.8203323620731027  1.0000
  H   H2        1.0  0.2931053365014478  0.17966332292925813  0.4409839627511403  1.0000
  H   H3        1.0  0.2931032497575146  0.5590237141600481  0.7386809074267403  1.0000
  H   H4        1.0  0.7069151649308054  0.7386693070410641  0.1796722807530172  1.0000
  H   H5        1.0  0.7068899239683547  0.8203365860016092  0.559015435663582  1.0000
  H   H6        1.0  0.7068933494588946  0.4409727345381357  0.2613160116541522  1.0000
  H   H7        1.0  0.4076586293534916  0.3413675808765503  0.9535191699120771  1.0000
  H   H8        1.0  0.4076373259253216  0.04647676703240931  0.38784502181137265  1.0000
  H   H9        1.0  0.40763653040832537  0.6121463866536913  0.6586100121584835  1.0000
  H   H10       1.0  0.5923433254711269  0.6586357884288958  0.04648645385351107  1.0000
  H   H11       1.0  0.5923579345953273  0.9535248720187751  0.6121552416783443  1.0000
  H   H12       1.0  0.5923627465332898  0.387850927146232  0.34138808867043474  1.0000
  H   H13       1.0  0.15810326470282376  0.3667876559850143  0.049508831120512305  1.0000
  H   H14       1.0  0.15807754441057403  0.9504962373427547  0.3172734774873335  1.0000
  H   H15       1.0  0.15807967617406857  0.6827176832361345  0.6332126313671367  1.0000
  H   H16       1.0  0.8418946734688504  0.6332122530045724  0.950492814890204  1.0000
  H   H17       1.0  0.8419203937579524  0.0495036716211388  0.6827259209451808  1.0000
  H   H18       1.0  0.8419209396433799  0.3172804956490225  0.36678665120090403  1.0000
  H   H19       1.0  0.9117141826005054  0.2536678111144681  0.9738262752528539  1.0000
  H   H20       1.0  0.9116892774970539  0.026168521550737005  0.2798357152183754  1.0000
  H   H21       1.0  0.9117218934680056  0.7201825662421085  0.7463607292739382  1.0000
  H   H22       1.0  0.088282416790733  0.7463346929791185  0.026171424012318298  1.0000
  H   H23       1.0  0.08830866067356881  0.9738313874302875  0.7201651815996043  1.0000
  H   H24       1.0  0.0882773835223603  0.27981647766100076  0.2536367382445022  1.0000
  H   H25       1.0  0.06813355013363781  0.17405546419118417  0.8606959436322439  1.0000
  H   H26       1.0  0.06811036447854242  0.1393103188908  0.3133598981290717  1.0000
  H   H27       1.0  0.0681562417027308  0.6866487238615732  0.8259604803087938  1.0000
  H   H28       1.0  0.9318670657621909  0.8259453098915794  0.1393061349337541  1.0000
  H   H29       1.0  0.9318862348406255  0.8606895900565804  0.6866395002945469  1.0000
  H   H30       1.0  0.9318430353660078  0.3133529152391361  0.17403978320761135  1.0000
  C   C1        1.0  0.31525135608606547  0.4420796609850227  0.8806210438320716  1.0000
  C   C2        1.0  0.31524700555966223  0.11938792612647119  0.5614543633676802  1.0000
  C   C3        1.0  0.3152052814133198  0.43854222047236396  0.5579284294533338  1.0000
  C   C4        1.0  0.684751937483064  0.5579202480706087  0.11938060221421408  1.0000
  C   C5        1.0  0.6847469160363958  0.8806111177362939  0.43854535169339226  1.0000
  C   C6        1.0  0.6847939954784864  0.5614533632158114  0.4420695554933189  1.0000
  C   C7        1.0  0.2908145350828519  0.34265277445427955  0.9038679521060615  1.0000
  C   C8        1.0  0.29080011589427107  0.096133537936673  0.4387762523244162  1.0000
  C   C9        1.0  0.2907910060270637  0.5612234562426578  0.657350587587871  1.0000
  C   C10       1.0  0.7091900973885928  0.6573488647553063  0.09613605740958064  1.0000
  C   C11       1.0  0.7091964834778467  0.9038681011481488  0.5612255095596694  1.0000
  C   C12       1.0  0.7092082709134999  0.4387738575487034  0.34264676404830396  1.0000
  C   C13       1.0  0.9978062342582844  0.25756261202212016  0.9091604080554061  1.0000
  C   C14       1.0  0.9977845984835342  0.09083843463363192  0.34839902411351886  1.0000
  C   C15       1.0  0.9978065959068516  0.6516175769767968  0.7424602761484066  1.0000
  C   C16       1.0  0.0021943816587680002  0.7424390270865402  0.09083910627715142  1.0000
  C   C17       1.0  0.002214678536454101  0.9091614743638983  0.6516018727133568  1.0000
  C   C18       1.0  0.0021926810866616997  0.34838146695201283  0.25753943894823544  1.0000
  C   C19       1.0  0.8739776833750384  0.271661397871533  0.8258824588087492  1.0000
  C   C20       1.0  0.8739636412053431  0.17412034666647003  0.445786249702138  1.0000
  C   C21       1.0  0.8739722660998411  0.5542478693458931  0.7283817905668498  1.0000
  C   C22       1.0  0.1260296268619641  0.728342836474461  0.17411610560255755  1.0000
  C   C23       1.0  0.12603295808944637  0.8258786972293135  0.554213465376719  1.0000
  C   C24       1.0  0.1260256720718331  0.4457520396436933  0.27161985544386613  1.0000
  N   N1        1.0  0.12390329098057151  0.354410152817067  0.9686958068169388  1.0000
  N   N2        1.0  0.12388918695099697  0.0313079605336881  0.3857092010018306  1.0000
  N   N3        1.0  0.12388351756224841  0.6142915358557771  0.645600723909773  1.0000
  N   N4        1.0  0.8760986637635709  0.6455906212736479  0.031305522565226236  1.0000
  N   N5        1.0  0.8761100900933629  0.9686928135154318  0.6142913791698064  1.0000
  N   N6        1.0  0.8761170982297698  0.385705777969221  0.3543981261207705  1.0000
  O   O1        1.0  0.44916963979657953  0.44062735008323967  0.8220538452339453  1.0000
  O   O2        1.0  0.4491711901803725  0.1779613888139693  0.6185530344855009  1.0000
  O   O3        1.0  0.44911134166024175  0.3814355386083079  0.5593968914102304  1.0000
  O   O4        1.0  0.5508349924947851  0.5593682336881044  0.17794563813374964  1.0000
  O   O5        1.0  0.5508267479394036  0.8220367900467308  0.3814469972574911  1.0000
  O   O6        1.0  0.5508892741042571  0.6185609101394007  0.440600027697343  1.0000
  O   O7        1.0  0.20036978325904187  0.5241629426829136  0.9221091010076704  1.0000
  O   O8        1.0  0.20038598521080084  0.07789633073959117  0.6020576991570222  1.0000
  O   O9        1.0  0.20032938760947872  0.39795147482183774  0.47584783138898246  1.0000
  O   O10       1.0  0.7996335103058883  0.4758369663384484  0.07788954826768449  1.0000
  O   O11       1.0  0.7996119529587774  0.922103578232864  0.3979424484682212  1.0000
  O   O12       1.0  0.7996712281316932  0.6020441088828435  0.5241501535665662  1.0000
  O   O13       1.0  0.8881306315969865  0.36428123777059807  0.820098360720749  1.0000
  O   O14       1.0  0.8881195995471745  0.17990973072814853  0.5441897895719237  1.0000
  O   O15       1.0  0.8881370164800374  0.45582965380652507  0.6357840947365715  1.0000
  O   O16       1.0  0.1118806951922977  0.6357229966591901  0.17990320048818378  1.0000
  O   O17       1.0  0.11187699979741689  0.8200910432793904  0.45581004138919223  1.0000
  O   O18       1.0  0.1118555663418945  0.5441719852116405  0.3642161687353606  1.0000
  O   O19       1.0  0.7602253889982294  0.19385107665397064  0.7679554311767021  1.0000
  O   O20       1.0  0.7602139556863179  0.23204281347785383  0.4258903499341713  1.0000
  O   O21       1.0  0.7602135938677178  0.574160062145701  0.8062009919375369  1.0000
  O   O22       1.0  0.23978058240957983  0.8061540226928372  0.2320398197995388  1.0000
  O   O23       1.0  0.23978398248010538  0.7679570954689012  0.5741075501128705  1.0000
  O   O24       1.0  0.23979103860372666  0.42584157706388487  0.1938030175781051  1.0000
