data_image0
_chemical_formula_structural       Hg8H24C32I16N8
_chemical_formula_sum              "Hg8 H24 C32 I16 N8"
_cell_length_a       4.347619085468524
_cell_length_b       14.765268444854783
_cell_length_c       24.922984265172108
_cell_angle_alpha    89.99870332834126
_cell_angle_beta     89.9992549270291
_cell_angle_gamma    92.65446717453169

_space_group_name_H-M_alt    "P 1"
_space_group_IT_number       1

loop_
  _space_group_symop_operation_xyz
  'x, y, z'

loop_
  _atom_site_type_symbol
  _atom_site_label
  _atom_site_symmetry_multiplicity
  _atom_site_fract_x
  _atom_site_fract_y
  _atom_site_fract_z
  _atom_site_occupancy
  Hg  Hg1       1.0  0.06490938385753255  0.7050530684253858  0.24990962205389175  1.0000
  Hg  Hg2       1.0  0.935116456922138  0.7949494756464474  0.7499086409723787  1.0000
  Hg  Hg3       1.0  0.9350953449365349  0.29494726629358337  0.7500932535565995  1.0000
  Hg  Hg4       1.0  0.06490282388152478  0.2050556038535234  0.2500902222280246  1.0000
  Hg  Hg5       1.0  0.2205676412868982  0.6989655432733244  0.5821176729860227  1.0000
  Hg  Hg6       1.0  0.7794178550178541  0.8010329179610167  0.08211637950618209  1.0000
  Hg  Hg7       1.0  0.7794305094084989  0.3010368261033208  0.4178823939672186  1.0000
  Hg  Hg8       1.0  0.22058687396233978  0.19896741686302727  0.9178812800355374  1.0000
  H   H1        1.0  0.5159059060864095  0.8502975273525097  0.509308416276042  1.0000
  H   H2        1.0  0.4840970839008775  0.6496943742240902  0.009309847946319401  1.0000
  H   H3        1.0  0.48405673137774835  0.14971298118725676  0.49069526179419404  1.0000
  H   H4        1.0  0.5159279163374321  0.35030324672678853  0.9906894165313674  1.0000
  H   H5        1.0  0.26652095192719827  0.8774522244726982  0.3140269683063934  1.0000
  H   H6        1.0  0.7334869876906892  0.6225362113668141  0.8140291481459415  1.0000
  H   H7        1.0  0.7334697618766483  0.12254675559745459  0.6859714937341792  1.0000
  H   H8        1.0  0.2665151191672592  0.3774620896795541  0.1859689126484199  1.0000
  H   H9        1.0  0.5945444960398801  0.9964598632533638  0.35948180748901143  1.0000
  H   H10       1.0  0.4054313720150802  0.5035335237721057  0.8594855728918206  1.0000
  H   H11       1.0  0.40543043922961897  0.0035411522332254  0.6405174570306187  1.0000
  H   H12       1.0  0.5945842132289201  0.4964627420252937  0.1405136916067278  1.0000
  H   H13       1.0  0.7211511745048682  0.9827765917667223  0.4562085139709993  1.0000
  H   H14       1.0  0.2788347497840959  0.5172183205413603  0.9562128263591562  1.0000
  H   H15       1.0  0.27879985538950797  0.0172332399088546  0.5437907505218363  1.0000
  H   H16       1.0  0.721201321434137  0.4827765873840164  0.043787240594142005  1.0000
  H   H17       1.0  0.8026755687685068  0.6037121690627743  0.36855764941709174  1.0000
  H   H18       1.0  0.19733810909610133  0.8962767809583525  0.8685536255608924  1.0000
  H   H19       1.0  0.19732600122755878  0.3962827419403183  0.6314444237606126  1.0000
  H   H20       1.0  0.8026619123296755  0.1037228762566258  0.1314456389354888  1.0000
  H   H21       1.0  0.8958003947957421  0.5953955402647395  0.4681953314112519  1.0000
  H   H22       1.0  0.1041956380096138  0.9045954982571092  0.9681910363009865  1.0000
  H   H23       1.0  0.10419764844137798  0.4046061510547502  0.5318079454350197  1.0000
  H   H24       1.0  0.8958042760867357  0.09540348097345938  0.03180782696388461  1.0000
  C   C1        1.0  0.46178594706743314  0.8568365037538754  0.46682115535226393  1.0000
  C   C2        1.0  0.5382094321766998  0.6431498440601116  0.966823165159802  1.0000
  C   C3        1.0  0.5381894175627123  0.1431672236945829  0.5331785103852269  1.0000
  C   C4        1.0  0.46180385299059873  0.3568464219451641  0.0331760993416879  1.0000
  C   C5        1.0  0.2751029664793164  0.7880624214366774  0.44180758201807185  1.0000
  C   C6        1.0  0.7249127059705529  0.7119256105903845  0.9418062129452878  1.0000
  C   C7        1.0  0.7248860912673221  0.21194062677203362  0.5581920837063237  1.0000
  C   C8        1.0  0.2751004719389059  0.28806997747089724  0.05819064414439621  1.0000
  C   C9        1.0  0.20854731517743366  0.7951133370735732  0.3854395721852343  1.0000
  C   C10       1.0  0.7914745727308343  0.7048762878315388  0.8854397295566374  1.0000
  C   C11       1.0  0.7914389057451601  0.2048863213644054  0.61456089603697  1.0000
  C   C12       1.0  0.2085317048769255  0.2951193008129565  0.11455913372216028  1.0000
  C   C13       1.0  0.3228568316698884  0.8718778459216525  0.35646446684726396  1.0000
  C   C14       1.0  0.6771527868469531  0.6281095576627675  0.8564663170121491  1.0000
  C   C15       1.0  0.677129603897235  0.1281231684770603  0.6435372050740186  1.0000
  C   C16       1.0  0.32286290581237864  0.37188738616753614  0.1435309413015489  1.0000
  C   C17       1.0  0.5035266737080093  0.9378150215449993  0.3820229449030706  1.0000
  C   C18       1.0  0.496468286365193  0.5621774554142576  0.8820265166475991  1.0000
  C   C19       1.0  0.4964456394678791  0.062183960180078705  0.617975918397093  1.0000
  C   C20       1.0  0.5035472988644968  0.43781881037506315  0.1179731490870068  1.0000
  C   C21       1.0  0.574854281634998  0.9299745034761744  0.4372297766143874  1.0000
  C   C22       1.0  0.4251316016380571  0.5700123596022523  0.9372338300547298  1.0000
  C   C23       1.0  0.42511910487807814  0.0700312581172113  0.5627718952926912  1.0000
  C   C24       1.0  0.5748930765690261  0.4299832273711601  0.0627654344365993  1.0000
  C   C25       1.0  0.9360126403179194  0.6579900529177819  0.38904905369037834  1.0000
  C   C26       1.0  0.06399957508366326  0.8419980714521172  0.8890468798421978  1.0000
  C   C27       1.0  0.06398716634878811  0.342008248271803  0.6109522169954006  1.0000
  C   C28       1.0  0.9360026391037123  0.15800090757866062  0.11095158218367371  1.0000
  C   C29       1.0  0.993016581764749  0.6525556894066896  0.4449383906008961  1.0000
  C   C30       1.0  0.0069828740692230214  0.8474328959319947  0.9449366930901918  1.0000
  C   C31       1.0  0.006978946765450204  0.3474446461680287  0.5550632813131813  1.0000
  C   C32       1.0  0.9930216401662193  0.15256608287473478  0.05506257140486071  1.0000
  I   I1        1.0  0.9230102428502249  0.8495245434302987  0.6043238094214587  1.0000
  I   I2        1.0  0.07699752816647991  0.6504784449443052  0.1043234636897097  1.0000
  I   I3        1.0  0.0769853929807667  0.15047647011265752  0.3956790661962444  1.0000
  I   I4        1.0  0.9230121229124464  0.3495239233929582  0.8956766032488305  1.0000
  I   I5        1.0  0.4649640196659703  0.5722794681550879  0.2603023896056413  1.0000
  I   I6        1.0  0.5350562645466539  0.9277213015970247  0.760302308744663  1.0000
  I   I7        1.0  0.5350501241796692  0.42772222174968283  0.7396988810397501  1.0000
  I   I8        1.0  0.46494637894409857  0.07228038936329281  0.2396981594433072  1.0000
  I   I9        1.0  0.6147608313775238  0.5630312743057148  0.5763418591082684  1.0000
  I   I10       1.0  0.38523679233876607  0.9369687746660703  0.0763365948406403  1.0000
  I   I11       1.0  0.3852395119935678  0.4369704168382357  0.4236598127908239  1.0000
  I   I12       1.0  0.6147608217095095  0.0630302047885394  0.923661465955057  1.0000
  I   I13       1.0  0.7659239055713625  0.8507072360469152  0.2193949789433489  1.0000
  I   I14       1.0  0.2341020275068004  0.649297893657767  0.7193948781596192  1.0000
  I   I15       1.0  0.2340926457519927  0.1492951316748048  0.7806046867503086  1.0000
  I   I16       1.0  0.7659076235721259  0.35070447467949617  0.28060518877892093  1.0000
  N   N1        1.0  0.16051233197402584  0.715536808071974  0.47076380203538554  1.0000
  N   N2        1.0  0.839497103169812  0.7844527696576052  0.9707632020652497  1.0000
  N   N3        1.0  0.8394857112630945  0.2844648832475158  0.5292394748108862  1.0000
  N   N4        1.0  0.16050532567640366  0.21554756534198566  0.029236062423642302  1.0000
  N   N5        1.0  0.040048234511807786  0.7276563351397273  0.3599525084719488  1.0000
  N   N6        1.0  0.9599626838538099  0.772326181814066  0.8599513568979804  1.0000
  N   N7        1.0  0.9599470793022745  0.27234264443384865  0.6400499659233392  1.0000
  N   N8        1.0  0.040044023157541596  0.22767211881654958  0.1400467038905049  1.0000
