data_image0
_chemical_formula_structural       Zn2H12C36Br8N6O8F2
_chemical_formula_sum              "Zn2 H12 C36 Br8 N6 O8 F2"
_cell_length_a       13.148551808666074
_cell_length_b       16.243090068809302
_cell_length_c       17.21825538201033
_cell_angle_alpha    99.19879335127699
_cell_angle_beta     93.67172147296625
_cell_angle_gamma    97.11324412667732

_space_group_name_H-M_alt    "P 1"
_space_group_IT_number       1

loop_
  _space_group_symop_operation_xyz
  'x, y, z'

loop_
  _atom_site_type_symbol
  _atom_site_label
  _atom_site_symmetry_multiplicity
  _atom_site_fract_x
  _atom_site_fract_y
  _atom_site_fract_z
  _atom_site_occupancy
  Zn  Zn1       1.0  0.5015766567155637  0.4105077616314433  0.4995649334181563  1.0000
  Zn  Zn2       1.0  0.5123699497853735  0.5927941416929413  0.5085406417072136  1.0000
  H   H1        1.0  0.38170136760993506  0.7003371852461414  0.4524896870422523  1.0000
  H   H2        1.0  0.3680309242821664  0.8538044681315144  0.44748890627722193  1.0000
  H   H3        1.0  0.3553860901301319  0.09397599450312552  0.385569611049597  1.0000
  H   H4        1.0  0.605010478879734  0.12414580189601308  0.5675788988849035  1.0000
  H   H5        1.0  0.42377078231099563  0.5968920384028634  0.26093948276630385  1.0000
  H   H6        1.0  0.4159479398250454  0.5847738801776858  0.11305224665935043  1.0000
  H   H7        1.0  0.5334653869742141  0.6604550154989752  0.920934180852889  1.0000
  H   H8        1.0  0.42618594671844073  0.39508158245885744  0.8749855411339879  1.0000
  H   H9        1.0  0.827372486895804  0.38031162356625003  0.5056466276220846  1.0000
  H   H10       1.0  0.8227254751238533  0.6383068650088363  0.4758628019386321  1.0000
  H   H11       1.0  0.18064055190585995  0.6024363142449759  0.4813509408604019  1.0000
  H   H12       1.0  0.1868057096519209  0.3474185660090258  0.5193326303876588  1.0000
  C   C1        1.0  0.4998668683368165  0.501151268327746  0.35196410513334797  1.0000
  C   C2        1.0  0.3095993943691581  0.4884629031935148  0.5003038148402155  1.0000
  C   C3        1.0  0.5039181646212184  0.5243190016894629  0.6550710868744574  1.0000
  C   C4        1.0  0.700245379080428  0.49700474221201313  0.49537591652509866  1.0000
  C   C5        1.0  0.44149885776972303  0.7508819255884874  0.4804792396116611  1.0000
  C   C6        1.0  0.4343091373980954  0.8347586323324734  0.4776791813746897  1.0000
  C   C7        1.0  0.5140749041720554  0.8957687012654747  0.5162436806991195  1.0000
  C   C8        1.0  0.5986544686443053  0.8700065510885369  0.5553476061949212  1.0000
  C   C9        1.0  0.5998743203755694  0.783450479052789  0.554512963299686  1.0000
  C   C10       1.0  0.4118675525117936  0.13319221792330896  0.4292681428553209  1.0000
  C   C11       1.0  0.4780379336268439  0.09783597719794561  0.47691629582374157  1.0000
  C   C12       1.0  0.5511921683988277  0.15044693600653147  0.5311315059057264  1.0000
  C   C13       1.0  0.5543192146244847  0.23695270520845924  0.536071914512803  1.0000
  C   C14       1.0  0.4203374563678465  0.22083349444497463  0.43953242790507824  1.0000
  C   C15       1.0  0.5006900017533056  0.48849417600065703  0.2633405424234212  1.0000
  C   C16       1.0  0.45529131946628354  0.5464258796424846  0.22473103391014604  1.0000
  C   C17       1.0  0.45119240213869455  0.5402588067783968  0.1435555767184127  1.0000
  C   C18       1.0  0.4931883087668325  0.47519863897333897  0.0980480476118757  1.0000
  C   C19       1.0  0.5390629428362886  0.4162653919384951  0.13561062850068592  1.0000
  C   C20       1.0  0.543660525740549  0.42331666571193693  0.21825858587025954  1.0000
  C   C21       1.0  0.5120758906216166  0.6025146359447221  0.8786144782658666  1.0000
  C   C22       1.0  0.4838817070468195  0.5274802763608691  0.9064416789815724  1.0000
  C   C23       1.0  0.4520617127098773  0.45263079542826284  0.8529700099110754  1.0000
  C   C24       1.0  0.453654320534568  0.4539086919389419  0.7726580308176166  1.0000
  C   C25       1.0  0.489475352587938  0.5273016429217208  0.7418661545007481  1.0000
  C   C26       1.0  0.5154849408899408  0.6018036144610264  0.7978945016396323  1.0000
  C   C27       1.0  0.8685962414849939  0.4407222058972735  0.4988168339823246  1.0000
  C   C28       1.0  0.8662325831311575  0.5865163974302448  0.4818570531371478  1.0000
  C   C29       1.0  0.9709688783726519  0.5961146448392896  0.48009438617679473  1.0000
  C   C30       1.0  0.031519474397043716  0.5311561409709001  0.4889347608815058  1.0000
  C   C31       1.0  0.1397679056811825  0.542239675579232  0.48898804433977716  1.0000
  C   C32       1.0  0.1427937134919546  0.3980426150290981  0.5102144279046072  1.0000
  C   C33       1.0  0.03773639064630171  0.38740682808758464  0.5093108482861055  1.0000
  C   C34       1.0  0.9768786911250728  0.45169867687536686  0.4988719061924415  1.0000
  C   C35       1.0  0.814439101401028  0.5072817983382479  0.49132779118743025  1.0000
  C   C36       1.0  0.19461344868913952  0.47682777717894714  0.4994622441973959  1.0000
  Br  Br1       1.0  0.7117007886922408  0.7465098069562189  0.6057529704091209  1.0000
  Br  Br2       1.0  0.7083948509151907  0.9513452366904928  0.6036992493815276  1.0000
  Br  Br3       1.0  0.32894495520613276  0.2664316975305141  0.3747679693894526  1.0000
  Br  Br4       1.0  0.6548785411859439  0.3038676386849133  0.6103309578050399  1.0000
  Br  Br5       1.0  0.6149380704145315  0.34867085160269096  0.2681578778570781  1.0000
  Br  Br6       1.0  0.5991891752152227  0.33190255776001015  0.07238880545416042  1.0000
  Br  Br7       1.0  0.5610018991074099  0.7087098520413804  0.7706491891805667  1.0000
  Br  Br8       1.0  0.39634321259239863  0.35081344692235217  0.7057600357276286  1.0000
  N   N1        1.0  0.5226488487934162  0.7257902059596902  0.5181448979169829  1.0000
  N   N2        1.0  0.512650502827249  0.9831473830567533  0.523466414712189  1.0000
  N   N3        1.0  0.4720361183994298  0.008457870291025005  0.4649503702787853  1.0000
  N   N4        1.0  0.4898452048226716  0.2732680458754261  0.4916400421254892  1.0000
  N   N5        1.0  0.4899594563744428  0.4659206906091314  0.014998571637690406  1.0000
  N   N6        1.0  0.48985661139591485  0.5348405707592221  0.9894991520489852  1.0000
  O   O1        1.0  0.48071098603333695  0.43657336885241455  0.38388329198248516  1.0000
  O   O2        1.0  0.5157297713516513  0.5774903805076336  0.3869057202778805  1.0000
  O   O3        1.0  0.3538392181949915  0.5581112326327613  0.48640259061144053  1.0000
  O   O4        1.0  0.35382723778555897  0.42638515973590785  0.5154573477941042  1.0000
  O   O5        1.0  0.4858994525280664  0.5876598585298325  0.6242948367986401  1.0000
  O   O6        1.0  0.535258067843948  0.4587096913219213  0.6200442926536097  1.0000
  O   O7        1.0  0.6530984320602471  0.4222193528362936  0.4839412619051444  1.0000
  O   O8        1.0  0.6596607467965613  0.5643147260314549  0.510881540112308  1.0000
  F   F1        1.0  0.9876431122992384  0.31154589271353933  0.5195126773015204  1.0000
  F   F2        1.0  0.02123541603682361  0.6720459610234856  0.4700381993167396  1.0000
