data_image0
_chemical_formula_structural       Zn2H36Pd2C44N16O8
_chemical_formula_sum              "Zn2 H36 Pd2 C44 N16 O8"
_cell_length_a       8.440280130974427
_cell_length_b       9.929445194634175
_cell_length_c       17.138
_cell_angle_alpha    85.83000857364932
_cell_angle_beta     82.3520026625861
_cell_angle_gamma    66.88028155411875

_space_group_name_H-M_alt    "P 1"
_space_group_IT_number       1

loop_
  _space_group_symop_operation_xyz
  'x, y, z'

loop_
  _atom_site_type_symbol
  _atom_site_label
  _atom_site_symmetry_multiplicity
  _atom_site_fract_x
  _atom_site_fract_y
  _atom_site_fract_z
  _atom_site_occupancy
  Zn  Zn1       1.0  0.13779851303179666  0.2833813805676542  0.18931398965144552  1.0000
  Zn  Zn2       1.0  0.8622009848766723  0.7166169399640765  0.8106851220661967  1.0000
  H   H1        1.0  0.9619837160857969  0.1756469908851699  0.3037642798463551  1.0000
  H   H2        1.0  0.03801987050469074  0.8243502343173645  0.6962351935288211  1.0000
  H   H3        1.0  0.9801479235536733  0.0945060989059812  0.22475811468773801  1.0000
  H   H4        1.0  0.019852769783653815  0.9054922216257496  0.7752415021756605  1.0000
  H   H5        1.0  0.4479550936682415  0.3217299512703278  0.1528690009063283  1.0000
  H   H6        1.0  0.5520442136022721  0.6782661786030033  0.8471302155993998  1.0000
  H   H7        1.0  0.3809955209760928  0.3552546921659498  0.069778158907873  1.0000
  H   H8        1.0  0.6190053629991893  0.6447458190241875  0.9302219366661006  1.0000
  H   H9        1.0  0.5722203416991647  0.2323280864471897  0.5109927530045368  1.0000
  H   H10       1.0  0.42778601702494257  0.767673520072151  0.4890069375873125  1.0000
  H   H11       1.0  0.7580007949847172  0.3917729677715371  0.8503807324441723  1.0000
  H   H12       1.0  0.24199738637535262  0.6082308294062102  0.14962115232589926  1.0000
  H   H13       1.0  0.4070260723925685  0.11178272641428322  0.3108082525254261  1.0000
  H   H14       1.0  0.5929729231204491  0.8882166894466509  0.6891925964706048  1.0000
  H   H15       1.0  0.4987122559303501  0.145105926736683  0.43359093632152934  1.0000
  H   H16       1.0  0.5012901352312794  0.8548912984658515  0.5664091989052126  1.0000
  H   H17       1.0  0.08792014256683699  0.5785704099363969  0.44401775207320776  1.0000
  H   H18       1.0  0.9120869091906767  0.4214322919121472  0.5559795129535133  1.0000
  H   H19       1.0  0.010137747480385375  0.5250854849867608  0.3175922486414109  1.0000
  H   H20       1.0  0.9898655273526064  0.4749150262033766  0.6824065232294315  1.0000
  H   H21       1.0  0.8082400412487232  0.1335414410185152  0.5758607884659881  1.0000
  H   H22       1.0  0.19176650811334645  0.8664623561592323  0.4241393808364435  1.0000
  H   H23       1.0  0.9532099264192198  0.12145557860003461  0.6939225957788011  1.0000
  H   H24       1.0  0.046794925118540165  0.878549313906909  0.306077638658941  1.0000
  H   H25       1.0  0.5051732266318752  0.48506325126293603  0.7899203654012723  1.0000
  H   H26       1.0  0.49482627127659407  0.5149350692688017  0.21007991331368459  1.0000
  H   H27       1.0  0.36456353712716805  0.5044144322804485  0.6691328302738597  1.0000
  H   H28       1.0  0.6354371562101592  0.49558388825128924  0.3308679535868535  1.0000
  H   H29       1.0  0.2003606060312038  0.0100091182508635  0.9259616216349258  1.0000
  H   H30       1.0  0.7996314075466344  0.9899924882684772  0.0740419266850765  1.0000
  H   H31       1.0  0.2846105169913784  0.05691001936530431  0.0529367201258566  1.0000
  H   H32       1.0  0.7153855852684784  0.9430904918248331  0.9470654393557041  1.0000
  H   H33       1.0  0.8314416001260412  0.4257676048949577  0.0914718557713243  1.0000
  H   H34       1.0  0.16854852498953923  0.5742329062951796  0.9085312789734203  1.0000
  H   H35       1.0  0.7283536964001769  0.3943776606146727  0.9689996843964296  1.0000
  H   H36       1.0  0.2716360474394861  0.6056184692586584  0.0310030764258258  1.0000
  Pd  Pd1       1.0  0.6484001586247033  0.7877103771703204  0.18577198541318296  1.0000
  Pd  Pd2       1.0  0.35159606475468763  0.2122846573738073  0.8142263123715382  1.0000
  C   C1        1.0  0.8480388793537584  0.601606278390534  0.1891854753924491  1.0000
  C   C2        1.0  0.15195942312585228  0.3983920421411966  0.8108125476807829  1.0000
  C   C3        1.0  0.6984423684559358  0.8491528687748584  0.2850329806770732  1.0000
  C   C4        1.0  0.3015546690764097  0.15083778445246313  0.7149666153282297  1.0000
  C   C5        1.0  0.4561648743237682  0.9777105619227839  0.18134091567754504  1.0000
  C   C6        1.0  0.5438358190135589  0.022287758608953802  0.8186604516818292  1.0000
  C   C7        1.0  0.5966341790963982  0.7276282844350703  0.08639160897671158  1.0000
  C   C8        1.0  0.4033629279543546  0.2723700360966603  0.9136064924494249  1.0000
  C   C9        1.0  0.33844050853583946  0.21471081155696237  0.3412986510538261  1.0000
  C   C10       1.0  0.6615596824060362  0.7852886043039717  0.6587003690933245  1.0000
  C   C11       1.0  0.390191456697167  0.2360675403439316  0.4114882048534625  1.0000
  C   C12       1.0  0.609811125102425  0.7639318755170024  0.5885100750892178  1.0000
  C   C13       1.0  0.3016011810015868  0.3698028546312599  0.4496310360293023  1.0000
  C   C14       1.0  0.6984063731513785  0.6301987518880807  0.5503668257136739  1.0000
  C   C15       1.0  0.1611692420822237  0.4742293501227195  0.4156659758443411  1.0000
  C   C16       1.0  0.8388371166418905  0.5257722563966212  0.5843307972542249  1.0000
  C   C17       1.0  0.11798756434483691  0.4444637790494781  0.34529178278533834  1.0000
  C   C18       1.0  0.8820167152790576  0.5555345414822526  0.6547070155206854  1.0000
  C   C19       1.0  0.3455856717305893  0.4100781094008283  0.524455568865271  1.0000
  C   C20       1.0  0.6544206869935181  0.5899234971185124  0.47554353822793166  1.0000
  C   C21       1.0  0.575239087734019  0.3179466842054879  0.6152575476645339  1.0000
  C   C22       1.0  0.42476796402350186  0.6820560176430561  0.3847414678581629  1.0000
  C   C23       1.0  0.7409776248243888  0.2102298197902428  0.623393988123766  1.0000
  C   C24       1.0  0.25902804086631886  0.7897706913998946  0.3766069610358969  1.0000
  C   C25       1.0  0.8218082317638249  0.2006402126238669  0.6901992065415925  1.0000
  C   C26       1.0  0.17819731280734172  0.79936577521228  0.3098009363256509  1.0000
  C   C27       1.0  0.7352678840255251  0.2988079970532311  0.7513749523470921  1.0000
  C   C28       1.0  0.2647338836211188  0.7011958001245162  0.24862553036695093  1.0000
  C   C29       1.0  0.5720258503355709  0.40887215194906196  0.7423376422263317  1.0000
  C   C30       1.0  0.4279721403865508  0.5911294545702788  0.2576614298385351  1.0000
  C   C31       1.0  0.49198638654154075  0.4200937996269047  0.6749992775056057  1.0000
  C   C32       1.0  0.5080149998291861  0.5799056162340293  0.325000247787294  1.0000
  C   C33       1.0  0.9176709393074631  0.174561519645664  0.8573802090879639  1.0000
  C   C34       1.0  0.08232843748146468  0.8254422775320835  0.14262276432652501  1.0000
  C   C35       1.0  0.9609644978329046  0.2011276341189046  0.9352269440299991  1.0000
  C   C36       1.0  0.03902713446902339  0.7988695910836299  0.06477447987154511  1.0000
  C   C37       1.0  0.1164409443286019  0.10370905486393411  0.9612920017867168  1.0000
  C   C38       1.0  0.8835505668537849  0.89629364698461  0.03870803232374701  1.0000
  C   C39       1.0  0.16284115225222712  0.12930361233470933  0.03185678003973181  1.0000
  C   C40       1.0  0.8371501682922047  0.870696898855428  0.9681445258561325  1.0000
  C   C41       1.0  0.910630372223842  0.33490457091591713  0.053346857409600525  1.0000
  C   C42       1.0  0.0893643439692084  0.6650937496158136  0.9466566522102654  1.0000
  C   C43       1.0  0.8546186146491195  0.3175830349103137  0.983510471900992  1.0000
  C   C44       1.0  0.14537799000618887  0.6824163809506203  0.016491117299509007  1.0000
  N   N1        1.0  0.967132800853591  0.49010286092283917  0.1893349500989387  1.0000
  N   N2        1.0  0.03286619465942656  0.5098965549380949  0.8106647318997773  1.0000
  N   N3        1.0  0.7220838019824  0.8878157989585987  0.34400182882859554  1.0000
  N   N4        1.0  0.2779122307590427  0.1121770449271224  0.6559989077388408  1.0000
  N   N5        1.0  0.34549100778934877  0.0941128757223453  0.1796167359037923  1.0000
  N   N6        1.0  0.6545131507150047  0.905890921455402  0.8203812561098118  1.0000
  N   N7        1.0  0.570856229694961  0.6905349609982707  0.02753342862542501  1.0000
  N   N8        1.0  0.42914157038920564  0.3094644548626704  0.97246458123022  1.0000
  N   N9        1.0  0.20547587543360626  0.3172697707584504  0.30765104162205864  1.0000
  N   N10       1.0  0.7945282135523327  0.6827263591148807  0.6923490284693656  1.0000
  N   N11       1.0  0.5007008218615708  0.3160408113934423  0.5475235126352658  1.0000
  N   N12       1.0  0.4993043414336853  0.6839607951258984  0.45247508931218056  1.0000
  N   N13       1.0  0.8045885465051441  0.2937749593685339  0.8221496551418994  1.0000
  N   N14       1.0  0.19541303050353767  0.7062266471508067  0.17785209935755125  1.0000
  N   N15       1.0  0.06311853904700365  0.24411054267662283  0.07705945807472861  1.0000
  N   N16       1.0  0.9368792610371625  0.7558888731843112  0.922941469274207  1.0000
  O   O1        1.0  0.956213808284076  0.19127076662716294  0.24741409140040102  1.0000
  O   O2        1.0  0.04378858287755343  0.8087264585753715  0.7525860438263408  1.0000
  O   O3        1.0  0.3478428791145234  0.3843378731461371  0.1267889610392317  1.0000
  O   O4        1.0  0.6521597026850615  0.6156615427147969  0.8732093189034487  1.0000
  O   O5        1.0  0.2472940778585055  0.521994465977798  0.5601075190976416  1.0000
  O   O6        1.0  0.7527129738990154  0.478008235870746  0.4398897459290865  1.0000
  O   O7        1.0  0.9864933483790851  0.04951873790800221  0.8295243877872807  1.0000
  O   O8        1.0  0.013501749089875996  0.9504839639405419  0.17047716176044503  1.0000
