data_image0
_chemical_formula_structural       Fe2H12C12N4O12
_chemical_formula_sum              "Fe2 H12 C12 N4 O12"
_cell_length_a       6.867244362667515
_cell_length_b       6.867264133278293
_cell_length_c       9.656094375257736
_cell_angle_alpha    77.92274758436811
_cell_angle_beta     77.92258370827912
_cell_angle_gamma    66.98190103776557

_space_group_name_H-M_alt    "P 1"
_space_group_IT_number       1

loop_
  _space_group_symop_operation_xyz
  'x, y, z'

loop_
  _atom_site_type_symbol
  _atom_site_label
  _atom_site_symmetry_multiplicity
  _atom_site_fract_x
  _atom_site_fract_y
  _atom_site_fract_z
  _atom_site_occupancy
  Fe  Fe1       1.0  0.5004508064580053  0.9996615014075513  0.5000074362740959  1.0000
  Fe  Fe2       1.0  0.9996472739734868  0.5004745466674763  5.366267458883159e-06  1.0000
  H   H1        1.0  0.6384339946535676  0.5417219433435391  0.6414786097844996  1.0000
  H   H2        1.0  0.4583082482376426  0.36204238295189134  0.859104588763529  1.0000
  H   H3        1.0  0.3620507069676292  0.45830240172414  0.3591135452739992  1.0000
  H   H4        1.0  0.5417142875127395  0.6384534271008704  0.141476644232938  1.0000
  H   H5        1.0  0.4324984731360215  0.1943432946570951  0.7099975946781214  1.0000
  H   H6        1.0  0.8019807809457475  0.5693741874137217  0.7917962629472584  1.0000
  H   H7        1.0  0.5693937609792031  0.8019639451529342  0.2918029775743989  1.0000
  H   H8        1.0  0.19432423950619432  0.432509181191179  0.21001553192689218  1.0000
  H   H9        1.0  0.680821615180065  0.13872177385476903  0.6443617088873665  1.0000
  H   H10       1.0  0.8611244480274818  0.3201349945606609  0.8552808336403147  1.0000
  H   H11       1.0  0.32014204768946525  0.8611186498624763  0.35528130242441586  1.0000
  H   H12       1.0  0.1387083168472002  0.6808395641131142  0.1443616218184687  1.0000
  C   C1        1.0  0.06652260195616577  0.13742112113318683  0.5951627069330243  1.0000
  C   C2        1.0  0.8623639456368153  0.9339280316716266  0.9043246338527382  1.0000
  C   C3        1.0  0.9339266541254078  0.8623632169691647  0.4043210557761583  1.0000
  C   C4        1.0  0.1374163830331128  0.0665383471565022  0.09516517194028751  1.0000
  C   C5        1.0  0.1648147326639346  0.929676860322182  0.6884393741211953  1.0000
  C   C6        1.0  0.06982983907797537  0.8350223154499828  0.8108260685598623  1.0000
  C   C7        1.0  0.8350061102691839  0.0698324571016684  0.31084271054303503  1.0000
  C   C8        1.0  0.9296901363554111  0.1647991618878351  0.18845718954275992  1.0000
  C   C9        1.0  0.47621506890110504  0.6233174398007294  0.6919731556342867  1.0000
  C   C10       1.0  0.3763980381680411  0.5238127336550278  0.8080296667540595  1.0000
  C   C11       1.0  0.5238201134510092  0.37638597665067397  0.3080525097999782  1.0000
  C   C12       1.0  0.623336312152773  0.47620287818670437  0.19199819637591983  1.0000
  N   N1        1.0  0.3728032336340448  0.8253818677422301  0.6336029990972777  1.0000
  N   N2        1.0  0.17413356557965895  0.6272622169190142  0.8662055860275758  1.0000
  N   N3        1.0  0.6272848098104404  0.1741422326067124  0.3662038921641368  1.0000
  N   N4        1.0  0.8254141434488104  0.37280881265417065  0.13360224721397176  1.0000
  O   O1        1.0  0.2069128751266689  0.2030248142959081  0.5094043945080742  1.0000
  O   O2        1.0  0.7966382925820527  0.7940354840501912  0.9905647994993245  1.0000
  O   O3        1.0  0.7940496934423887  0.7966489983222261  0.49056170432142204  1.0000
  O   O4        1.0  0.20305329478247802  0.2069052380859873  0.00939785039464883  1.0000
  O   O5        1.0  0.8685462963773671  0.2273099548516058  0.5937387430726064  1.0000
  O   O6        1.0  0.7729103206704763  0.13199096408126818  0.9053986274474326  1.0000
  O   O7        1.0  0.13196671296011428  0.7729081592845546  0.4054089293280684  1.0000
  O   O8        1.0  0.2272991745263011  0.8685741933316963  0.0937260374478583  1.0000
  O   O9        1.0  0.5573028091296093  0.08451506858833818  0.6669431340489921  1.0000
  O   O10       1.0  0.91354142072867  0.4446869293660355  0.8333078515768619  1.0000
  O   O11       1.0  0.44469849123642274  0.9135345653690122  0.33331504952833774  1.0000
  O   O12       1.0  0.08450897817117202  0.5573059830182671  0.16693505231850034  1.0000
