data_image0
_chemical_formula_structural       Al2H6C48Cl24O12
_chemical_formula_sum              "Al2 H6 C48 Cl24 O12"
_cell_length_a       4.053337344710352
_cell_length_b       28.806213243247083
_cell_length_c       28.806841815582942
_cell_angle_alpha    120.00163344803987
_cell_angle_beta     90.00228418497582
_cell_angle_gamma    89.99679112184512

_space_group_name_H-M_alt    "P 1"
_space_group_IT_number       1

loop_
  _space_group_symop_operation_xyz
  'x, y, z'

loop_
  _atom_site_type_symbol
  _atom_site_label
  _atom_site_symmetry_multiplicity
  _atom_site_fract_x
  _atom_site_fract_y
  _atom_site_fract_z
  _atom_site_occupancy
  Al  Al1       1.0  0.9787974249757528  0.4999927250421193  0.4999974975669231  1.0000
  Al  Al2       1.0  0.9788016764767705  0.16667013262156868  0.8333326213458887  1.0000
  H   H1        1.0  0.5078523809675631  0.38305097496716906  0.7226282504033391  1.0000
  H   H2        1.0  0.5077994604664227  0.28362451843609904  0.6107122446641924  1.0000
  H   H3        1.0  0.5078436143522255  0.8395787791505072  0.6169592192527915  1.0000
  H   H4        1.0  0.5079439916822466  0.8270806762278726  0.7163776032079809  1.0000
  H   H5        1.0  0.5078185603647966  0.27738210203161623  0.16041627474195505  1.0000
  H   H6        1.0  0.5079067960318967  0.38930209055295245  0.17292054981161434  1.0000
  C   C1        1.0  0.4803493348764435  0.4643748362683624  0.41828360448507595  1.0000
  C   C2        1.0  0.4804173013463925  0.4539002399243516  0.5356143867898524  1.0000
  C   C3        1.0  0.48040836599970765  0.5817093249147548  0.5460903518404976  1.0000
  C   C4        1.0  0.48038590996549163  0.21277059536388518  0.7977183960807394  1.0000
  C   C5        1.0  0.48041458177873153  0.08495677190073538  0.7872332834687938  1.0000
  C   C6        1.0  0.4803625954741479  0.20228534117362773  0.9150473387747978  1.0000
  C   C7        1.0  0.49061651339069107  0.2452018011541384  0.7697861864926452  1.0000
  C   C8        1.0  0.6159325996578602  0.22248872169003425  0.7177036107393775  1.0000
  C   C9        1.0  0.6362987730434854  0.25275298109207256  0.6917840973147873  1.0000
  C   C10       1.0  0.5145328104023649  0.30600345579436805  0.7163667283612297  1.0000
  C   C11       1.0  0.38406816860409526  0.32769508814448045  0.7690624766064927  1.0000
  C   C12       1.0  0.37814683797884646  0.29819075827492014  0.7957307503535418  1.0000
  C   C13       1.0  0.521075281591273  0.34071661171654455  0.6929462953853615  1.0000
  C   C14       1.0  0.5210584415340379  0.3259582971857498  0.6403933342159362  1.0000
  C   C15       1.0  0.3840765161704029  0.33897684658373345  0.5642717361657006  1.0000
  C   C16       1.0  0.514527734893953  0.36067080353350184  0.6169721925010306  1.0000
  C   C17       1.0  0.6363042946468198  0.41391826890366445  0.6415517141014176  1.0000
  C   C18       1.0  0.6159830085691315  0.4441779540968938  0.6156278432085854  1.0000
  C   C19       1.0  0.4906784544391628  0.42146587895521753  0.5635455382013888  1.0000
  C   C20       1.0  0.3781828916701074  0.3684768506008566  0.5375994839908812  1.0000
  C   C21       1.0  0.4906973980291627  0.02459114156875583  0.7548003548317083  1.0000
  C   C22       1.0  0.6160254238448816  0.9952232052542628  0.7775137716901879  1.0000
  C   C23       1.0  0.6363661002856917  0.9390360037886938  0.7472518468303377  1.0000
  C   C24       1.0  0.5146127178009295  0.9103680052834662  0.6940045682757938  1.0000
  C   C25       1.0  0.3841258725838515  0.9413710286946253  0.6723108395347522  1.0000
  C   C26       1.0  0.3782176427128334  0.997545499384394  0.7018113288515692  1.0000
  C   C27       1.0  0.5211349079932505  0.8522310379168585  0.6592923995417123  1.0000
  C   C28       1.0  0.5211493815830438  0.8144324139822741  0.6740445309093201  1.0000
  C   C29       1.0  0.3841151015367431  0.7252913604467252  0.6610173743019201  1.0000
  C   C30       1.0  0.5145885243726982  0.7562973632816465  0.6393270044634249  1.0000
  C   C31       1.0  0.6363258549665859  0.7276291328586738  0.5860793936023114  1.0000
  C   C32       1.0  0.615961800817722  0.6714452774981012  0.5558142171040712  1.0000
  C   C33       1.0  0.49065184537697365  0.6420736431181381  0.578522462118357  1.0000
  C   C34       1.0  0.37817630260759943  0.6691182546126414  0.6315113819063213  1.0000
  C   C35       1.0  0.49066082283101764  0.23021922009608173  0.975410868331778  1.0000
  C   C36       1.0  0.615941079168593  0.2823012243134713  0.004784315255989166  1.0000
  C   C37       1.0  0.6362876235931695  0.3082234885452094  0.060969761315732215  1.0000
  C   C38       1.0  0.5145647312617784  0.2836413137304418  0.08963425950120298  1.0000
  C   C39       1.0  0.3840955527776871  0.2309434843536806  0.05862729471194679  1.0000
  C   C40       1.0  0.3781669059600219  0.2042763176612041  0.002454210221109982  1.0000
  C   C41       1.0  0.5210987352141248  0.30706330797294606  0.14776793863086365  1.0000
  C   C42       1.0  0.5211208389798117  0.35961681415761143  0.1855673404943374  1.0000
  C   C43       1.0  0.38404616912637846  0.43573048205722387  0.27471060922022156  1.0000
  C   C44       1.0  0.5145347914780772  0.38303162734995067  0.24370059358260215  1.0000
  C   C45       1.0  0.6362730073026129  0.3584456954747139  0.27236203591729685  1.0000
  C   C46       1.0  0.6158876854211074  0.38435953821970514  0.3285448888545162  1.0000
  C   C47       1.0  0.4905922046484506  0.4364464165621627  0.3579208169541488  1.0000
  C   C48       1.0  0.37810311733651514  0.4623954060192688  0.3308817981181419  1.0000
  Cl  Cl1       1.0  0.23078795228867224  0.32580387997347054  0.8600798462052666  1.0000
  Cl  Cl2       1.0  0.22149782742705784  0.3915163349283618  0.8015860267856851  1.0000
  Cl  Cl3       1.0  0.7459993318549324  0.15700441840684926  0.6861904880700748  1.0000
  Cl  Cl4       1.0  0.8254141552156257  0.22302042050215926  0.6300076218733465  1.0000
  Cl  Cl5       1.0  0.8253908408164822  0.4436549967750665  0.7033328661246471  1.0000
  Cl  Cl6       1.0  0.7460698017260088  0.509660540492419  0.6471372198419941  1.0000
  Cl  Cl7       1.0  0.22147777066281552  0.27516102507382817  0.5317525401857779  1.0000
  Cl  Cl8       1.0  0.23086114682270423  0.34086694195181616  0.4732478580608087  1.0000
  Cl  Cl9       1.0  0.2308759797211408  0.03428755011760382  0.674202088098866  1.0000
  Cl  Cl10      1.0  0.22154589978246975  0.9100729601887921  0.6084930925940597  1.0000
  Cl  Cl11      1.0  0.7461206892662917  0.02919594651437756  0.8429931426773649  1.0000
  Cl  Cl12      1.0  0.8254603137377077  0.9069896405168693  0.7769871679905974  1.0000
  Cl  Cl13      1.0  0.825455774605892  0.7596760700299043  0.5563495650413586  1.0000
  Cl  Cl14      1.0  0.746024923552639  0.6374718180891606  0.4903317594756516  1.0000
  Cl  Cl15      1.0  0.22153585624118222  0.7565897005708279  0.7248335202245781  1.0000
  Cl  Cl16      1.0  0.23081752720466406  0.632377878274447  0.6591178178697205  1.0000
  Cl  Cl17      1.0  0.23080499256290213  0.13992547242725817  0.9657090706770004  1.0000
  Cl  Cl18      1.0  0.22152430921811833  0.19842321689066722  0.08992179379608702  1.0000
  Cl  Cl19      1.0  0.7460036259334759  0.3138167349632112  0.9708181753714626  1.0000
  Cl  Cl20      1.0  0.8254055922230068  0.37000452954009694  0.09301720399759006  1.0000
  Cl  Cl21      1.0  0.8253841050795501  0.2966649636342282  0.24031340766600096  1.0000
  Cl  Cl22      1.0  0.7459396864598062  0.3528445236652047  0.36251184436338235  1.0000
  Cl  Cl23      1.0  0.22149026642039626  0.46825598858899303  0.24341787327895753  1.0000
  Cl  Cl24      1.0  0.23074789035050003  0.526747003173945  0.3676267002553501  1.0000
  O   O1        1.0  0.7141032292699167  0.5566760331897527  0.5532523973625061  1.0000
  O   O2        1.0  0.7141094429981295  0.4965671203094502  0.44331826648041067  1.0000
  O   O3        1.0  0.7141548945330815  0.4467371767397593  0.5034235966124783  1.0000
  O   O4        1.0  0.24011955155277323  0.5608411756473828  0.5140748425499098  1.0000
  O   O5        1.0  0.24017101970029134  0.4859148050753177  0.5467636444553818  1.0000
  O   O6        1.0  0.24014254662129997  0.45322423328161676  0.43915363025905646  1.0000
  O   O7        1.0  0.7141702824768714  0.1700902939476948  0.890016439267633  1.0000
  O   O8        1.0  0.7141124938966145  0.21992534124398588  0.8299073942384252  1.0000
  O   O9        1.0  0.7141518221831546  0.10998935886426141  0.7800722481267426  1.0000
  O   O10       1.0  0.24016032128927384  0.2134316683094681  0.894184090442252  1.0000
  O   O11       1.0  0.24018331246459476  0.10582159789026936  0.8192448978795  1.0000
  O   O12       1.0  0.24011210815996262  0.18075324015142505  0.7865681817876434  1.0000
