data_image0
_chemical_formula_structural       Al4H24C40Br4O20
_chemical_formula_sum              "Al4 H24 C40 Br4 O20"
_cell_length_a       6.6858238836096
_cell_length_b       17.304032257913093
_cell_length_c       19.565162662439
_cell_angle_alpha    108.46582350620416
_cell_angle_beta     89.99871254964849
_cell_angle_gamma    90.00128652779624

_space_group_name_H-M_alt    "P 1"
_space_group_IT_number       1

loop_
  _space_group_symop_operation_xyz
  'x, y, z'

loop_
  _atom_site_type_symbol
  _atom_site_label
  _atom_site_symmetry_multiplicity
  _atom_site_fract_x
  _atom_site_fract_y
  _atom_site_fract_z
  _atom_site_occupancy
  Al  Al1       1.0  0.0036401374430710003  0.5033425915706432  0.49983852640718845  1.0000
  Al  Al2       1.0  0.9963611779959793  0.0033409444394081073  0.9998365357053556  1.0000
  Al  Al3       1.0  0.5024193243973939  0.5023700679842024  0.4998232204205946  1.0000
  Al  Al4       1.0  0.49758342704350866  0.002364423273739668  0.9998178676627275  1.0000
  H   H1        1.0  0.8566761972289356  0.377005350687064  0.8006740570930687  1.0000
  H   H2        1.0  0.14323412585050482  0.8770113343043279  0.3006703739099308  1.0000
  H   H3        1.0  0.8700904241598479  0.46093290842696893  0.7186940501227284  1.0000
  H   H4        1.0  0.12980199796137273  0.9609244504741808  0.21867743875690587  1.0000
  H   H5        1.0  0.6498258992204526  0.17245259698979257  0.6242554943277553  1.0000
  H   H6        1.0  0.35022512038059267  0.6724621337239329  0.12426720323086468  1.0000
  H   H7        1.0  0.44560412390494264  0.09156847926703182  0.8283439350448202  1.0000
  H   H8        1.0  0.5544376760584272  0.5915993001287561  0.32835400150482735  1.0000
  H   H9        1.0  0.0409065898805707  0.17658594160987212  0.8941289629996517  1.0000
  H   H10       1.0  0.9591063605011813  0.676575524655128  0.3941291821864467  1.0000
  H   H11       1.0  0.0315876539932916  0.2598858398297068  0.8111832378195414  1.0000
  H   H12       1.0  0.9684014356721422  0.7598789073355477  0.3111882628003214  1.0000
  H   H13       1.0  0.0558177497776526  0.3074310405470371  0.30862108435101726  1.0000
  H   H14       1.0  0.9441640021084653  0.807448143425269  0.8086181119291849  1.0000
  H   H15       1.0  0.5950947086273431  0.3041460836007773  0.3018602847835936  1.0000
  H   H16       1.0  0.4048992388804962  0.8041409716471294  0.8018556686106207  1.0000
  H   H17       1.0  0.0520382974535636  0.19494156831969892  0.19390611934328206  1.0000
  H   H18       1.0  0.9479498104266428  0.6949588968223354  0.6939020504491464  1.0000
  H   H19       1.0  0.5917638998615616  0.203448532893475  0.20064436968185356  1.0000
  H   H20       1.0  0.4082138336561201  0.7034429547246576  0.7006499380984647  1.0000
  H   H21       1.0  0.25164805008301994  0.4079964832963725  0.5132601415198792  1.0000
  H   H22       1.0  0.7483485340006126  0.9079901347812367  0.0132536511214951  1.0000
  H   H23       1.0  0.7513718357768012  0.60710074856906  0.5425151292876789  1.0000
  H   H24       1.0  0.24863699765601413  0.107094243567694  0.042515907172990794  1.0000
  C   C1        1.0  0.2506373295159179  0.6174755700257891  0.6116262857777243  1.0000
  C   C2        1.0  0.7493572288171465  0.1174721654381585  0.11162449576495699  1.0000
  C   C3        1.0  0.25599406958951937  0.5811596692556835  0.41757050172964216  1.0000
  C   C4        1.0  0.7440084262726858  0.08115462771078792  0.9175695238935119  1.0000
  C   C5        1.0  0.7552752676621494  0.39011575953337296  0.3897141974892761  1.0000
  C   C6        1.0  0.24473034863020626  0.8901157150633949  0.8897095488073601  1.0000
  C   C7        1.0  0.7523998151607642  0.4195562583183872  0.5796583293549701  1.0000
  C   C8        1.0  0.2475976995714362  0.9195467309001728  0.0796425852883758  1.0000
  C   C9        1.0  0.8126377345561197  0.35051125235006003  0.7444008334925057  1.0000
  C   C10       1.0  0.18730447510996842  0.8505138112798178  0.24439792195994403  1.0000
  C   C11       1.0  0.8183348230134796  0.3979568915018278  0.6987330195701772  1.0000
  C   C12       1.0  0.1815893575170833  0.8979544518862639  0.19872419288908105  1.0000
  C   C13       1.0  0.7546297105526281  0.36632632379210867  0.6270709410750184  1.0000
  C   C14       1.0  0.245359933023181  0.8663242079264819  0.12706655445531104  1.0000
  C   C15       1.0  0.6939114590992118  0.28482566408077054  0.6017158702628719  1.0000
  C   C16       1.0  0.3061345616838906  0.7848290392039559  0.10171920797334617  1.0000
  C   C17       1.0  0.6928315999352108  0.2361380111448739  0.6462651665803774  1.0000
  C   C18       1.0  0.307187573529447  0.7361433034278235  0.14627066236027986  1.0000
  C   C19       1.0  0.7470853795519689  0.2692085187186635  0.7190747760661366  1.0000
  C   C20       1.0  0.25290274785817246  0.7692162051372409  0.21908009306991252  1.0000
  C   C21       1.0  0.5767559688282305  0.17025963497843574  0.7738961924122092  1.0000
  C   C22       1.0  0.42326582936439644  0.6702792610325617  0.2739069885998545  1.0000
  C   C23       1.0  0.5757389536422437  0.1270961624520908  0.8230341333945572  1.0000
  C   C24       1.0  0.4242889517522599  0.627117157163781  0.32304385958990167  1.0000
  C   C25       1.0  0.7438171328880118  0.1290162104788593  0.866193884715649  1.0000
  C   C26       1.0  0.25621259853555506  0.6290292886300578  0.36620298585806654  1.0000
  C   C27       1.0  0.9092045228128002  0.17651488326436043  0.8612910052171898  1.0000
  C   C28       1.0  0.09080605188052  0.6765148914657646  0.36129458712837687  1.0000
  C   C29       1.0  0.9033039252407705  0.22253071874569497  0.8146391536521874  1.0000
  C   C30       1.0  0.09669457720693941  0.7225313094649551  0.3146459273403153  1.0000
  C   C31       1.0  0.7396949744974536  0.2198416118348377  0.7685308162822792  1.0000
  C   C32       1.0  0.26030633106557133  0.719854510256674  0.26854096494037083  1.0000
  C   C33       1.0  0.9100730450031094  0.2853228179402407  0.28510115259602736  1.0000
  C   C34       1.0  0.08992679113514872  0.7853342002923328  0.7851013249505243  1.0000
  C   C35       1.0  0.7463310629633709  0.3223937617935562  0.32124834871873276  1.0000
  C   C36       1.0  0.2536433299436355  0.8223938005743961  0.8212404209603787  1.0000
  C   C37       1.0  0.907528955120796  0.21873668237129346  0.2175471373257308  1.0000
  C   C38       1.0  0.09243817391828911  0.7187474998751  0.7175472893271075  1.0000
  C   C39       1.0  0.7420759881677556  0.1838800264414218  0.18100023869794762  1.0000
  C   C40       1.0  0.25792572180200324  0.683880403342414  0.6809998094865648  1.0000
  Br  Br1       1.0  0.6150118684976035  0.23727038274201107  0.5035129216045461  1.0000
  Br  Br2       1.0  0.3851541771216063  0.7372772402098775  0.003522778959776901  1.0000
  Br  Br3       1.0  0.3408270155069104  0.16182092491357036  0.7166508888746463  1.0000
  Br  Br4       1.0  0.6591964491136012  0.661849880303045  0.2166565241121531  1.0000
  O   O1        1.0  0.42496526865510725  0.5585931604713039  0.43435837633354163  1.0000
  O   O2        1.0  0.5750586691293053  0.058577221125055715  0.9343449338599326  1.0000
  O   O3        1.0  0.0798550628886829  0.5901714294633321  0.5859167902335896  1.0000
  O   O4        1.0  0.9201514134178624  0.09015405960474254  0.08592241719222217  1.0000
  O   O5        1.0  0.9219538018366223  0.4380890058048407  0.5600240127265221  1.0000
  O   O6        1.0  0.07802968114225452  0.9380702374489829  0.060003880956862994  1.0000
  O   O7        1.0  0.08707576989991853  0.5674008352354463  0.44140376781684393  1.0000
  O   O8        1.0  0.9129392891380662  0.06740689490607822  0.9414141818377214  1.0000
  O   O9        1.0  0.9252738408628645  0.418580141097145  0.41485810999897405  1.0000
  O   O10       1.0  0.07471248764900912  0.9185942230806531  0.9148498020221892  1.0000
  O   O11       1.0  0.4205507512745116  0.593136953484347  0.5824260726442603  1.0000
  O   O12       1.0  0.579463614504249  0.09314341548122941  0.08242166300075127  1.0000
  O   O13       1.0  0.25261180699245506  0.45416289699213763  0.49523907126831535  1.0000
  O   O14       1.0  0.7473895103722727  0.9541616567292975  0.9952377185222544  1.0000
  O   O15       1.0  0.5859676186586283  0.41457821290522656  0.4186166555681153  1.0000
  O   O16       1.0  0.4140107384523972  0.9145678754005787  0.9186183881446648  1.0000
  O   O17       1.0  0.5817653397637059  0.4414440643560553  0.5639433962787732  1.0000
  O   O18       1.0  0.41821809995289533  0.9414477000013903  0.0639465725457598  1.0000
  O   O19       1.0  0.7524181864699742  0.5520808263112258  0.5091285744136228  1.0000
  O   O20       1.0  0.2475908614313767  0.052077996151688  0.009128313806634498  1.0000
