data_image0
_chemical_formula_structural       La4H36C48N12O30
_chemical_formula_sum              "La4 H36 C48 N12 O30"
_cell_length_a       11.10314800938372
_cell_length_b       11.348587845629906
_cell_length_c       11.67095302366177
_cell_angle_alpha    80.8188243987303
_cell_angle_beta     89.96259339177843
_cell_angle_gamma    73.8629118684674

_space_group_name_H-M_alt    "P 1"
_space_group_IT_number       1

loop_
  _space_group_symop_operation_xyz
  'x, y, z'

loop_
  _atom_site_type_symbol
  _atom_site_label
  _atom_site_symmetry_multiplicity
  _atom_site_fract_x
  _atom_site_fract_y
  _atom_site_fract_z
  _atom_site_occupancy
  La  La1       1.0  0.29469450877949305  0.004982853160321102  0.98032327353603  1.0000
  La  La2       1.0  0.7053067814526558  0.9950191863373452  0.019676052912401952  1.0000
  La  La3       1.0  0.6941442801012272  0.007813787962327002  0.5718777178808666  1.0000
  La  La4       1.0  0.30585753353472  0.9921863915951054  0.4281210391434486  1.0000
  H   H1        1.0  0.8385364496883272  0.14348342209375892  0.3769032593209119  1.0000
  H   H2        1.0  0.161463826465834  0.856515829825952  0.6230965024933754  1.0000
  H   H3        1.0  0.8967803916117917  0.991348167382917  0.40326204182579073  1.0000
  H   H4        1.0  0.1032198865155891  0.008651084076618104  0.5967385768848319  1.0000
  H   H5        1.0  0.9814063586316951  0.8455917646259583  0.6735813016261007  1.0000
  H   H6        1.0  0.018592753762170792  0.15440841900529995  0.32641831853086256  1.0000
  H   H7        1.0  0.9118567747697739  0.916307879907585  0.772585890035522  1.0000
  H   H8        1.0  0.08814297798058132  0.08369323195235981  0.22741444120288895  1.0000
  H   H9        1.0  0.7693835362168502  0.18824374450981204  0.7239761181851707  1.0000
  H   H10       1.0  0.23061737832055942  0.8117564360987687  0.2760234978142435  1.0000
  H   H11       1.0  0.867801489399568  0.18200971930841095  0.6243281898427285  1.0000
  H   H12       1.0  0.13219968979958452  0.8179895306397856  0.37567242678912294  1.0000
  H   H13       1.0  0.2783272828977488  0.34782026664445453  0.9652107230290101  1.0000
  H   H14       1.0  0.7216722051908561  0.6521817758758746  0.03478860757696368  1.0000
  H   H15       1.0  0.5791621338304723  0.20794138588382793  0.28621228047789776  1.0000
  H   H16       1.0  0.4208381462701424  0.7920578651155241  0.7137891951290528  1.0000
  H   H17       1.0  0.3594667812571116  0.4237737900825282  0.780680448254387  1.0000
  H   H18       1.0  0.6405343979420407  0.5762254598656756  0.21932016837746462  1.0000
  H   H19       1.0  0.7879470384781515  0.7703676260235994  0.2953065887910001  1.0000
  H   H20       1.0  0.21205323570277565  0.22963162635629433  0.7046923161269592  1.0000
  H   H21       1.0  0.47375380236352554  0.32004152829058097  0.6077083487361677  1.0000
  H   H22       1.0  0.526242988429452  0.679960517383215  0.3922935587951174  1.0000
  H   H23       1.0  0.04657379989874503  0.3809782684322159  0.33657738771638895  1.0000
  H   H24       1.0  0.9534267369706912  0.6190200537474697  0.6634216609376795  1.0000
  H   H25       1.0  0.3917713812484038  0.5978991711559022  0.23520098666624992  1.0000
  H   H26       1.0  0.6082286341904676  0.40210101050384156  0.7647994883082704  1.0000
  H   H27       1.0  0.9757913790116536  0.6998711990628976  0.9898951103316026  1.0000
  H   H28       1.0  0.024210438570754902  0.30012897957416845  0.010105360485368904  1.0000
  H   H29       1.0  0.1026417987135915  0.5216527812479584  0.17479894847403446  1.0000
  H   H30       1.0  0.8973602776108792  0.4783464681092653  0.8251999522863829  1.0000
  H   H31       1.0  0.3186616325191949  0.48856963584955093  0.4300854086059759  1.0000
  H   H32       1.0  0.6813353059828556  0.511428690994933  0.5699162190521677  1.0000
  H   H33       1.0  0.2458606819408472  0.5912983997368432  0.5830004152648984  1.0000
  H   H34       1.0  0.7541398549285959  0.4086999224428426  0.41699863338917015  1.0000
  H   H35       1.0  0.14788841092842375  0.7642724448759852  0.8755888742942235  1.0000
  H   H36       1.0  0.8521125016357587  0.23572773619277854  0.12440988480885552  1.0000
  C   C1        1.0  0.414767566902917  0.03561600669009831  0.711960598590345  1.0000
  C   C2        1.0  0.5852318081794649  0.9643832467409513  0.2880391653027132  1.0000
  C   C3        1.0  0.5054632192943203  0.07651597054360343  0.7883098768597777  1.0000
  C   C4        1.0  0.4945370568598337  0.9234832813761147  0.2116898849545096  1.0000
  C   C5        1.0  0.3234809463715961  0.7354028887361044  0.031824424067920576  1.0000
  C   C6        1.0  0.6765199681658134  0.2645972918724766  0.9681751919314936  1.0000
  C   C7        1.0  0.9551947450292249  0.6308038276118425  0.4781678548128171  1.0000
  C   C8        1.0  0.04480489076844659  0.3691944960791816  0.5218311959200223  1.0000
  C   C9        1.0  0.9109104645951974  0.7712565848383622  0.4606092110777313  1.0000
  C   C10       1.0  0.08908891246041861  0.2287426681325045  0.5393914097116694  1.0000
  C   C11       1.0  0.3068029453943525  0.4029700743112628  0.022702254544952893  1.0000
  C   C12       1.0  0.693196805382769  0.5970310380088649  0.977297219797123  1.0000
  C   C13       1.0  0.004865962102698491  0.9736731793372543  0.9423374642262915  1.0000
  C   C14       1.0  0.9951343179979162  0.0263260716620977  0.05766401138065901  1.0000
  C   C15       1.0  0.530335425487614  0.25815853788458304  0.35209701390535036  1.0000
  C   C16       1.0  0.4696622644039081  0.7418435067380645  0.6479040346508286  1.0000
  C   C17       1.0  0.29748794372231663  0.5175333162877394  0.7698532669288344  1.0000
  C   C18       1.0  0.7025138718868648  0.48246686280950984  0.23014634699180905  1.0000
  C   C19       1.0  0.8550333808330421  0.7289596792630848  0.23558775017931316  1.0000
  C   C20       1.0  0.14496779441964946  0.27103957160547765  0.7644111526598749  1.0000
  C   C21       1.0  0.47245088389107787  0.32173795578889053  0.5146193717424128  1.0000
  C   C22       1.0  0.5275441027851286  0.6782640933677586  0.4853816830500862  1.0000
  C   C23       1.0  0.9815371499299063  0.5630172636461809  0.3859250836448496  1.0000
  C   C24       1.0  0.018463124251020705  0.43698198873371313  0.6140738212731095  1.0000
  C   C25       1.0  0.3802305087828089  0.4170320822385066  0.21246963317536685  1.0000
  C   C26       1.0  0.6197665407522308  0.5829690341554469  0.7875307042993642  1.0000
  C   C27       1.0  0.3440667578326426  0.34590610745025446  0.13738775322978822  1.0000
  C   C28       1.0  0.6559305563641403  0.6540940782833079  0.862613584877373  1.0000
  C   C29       1.0  0.3322342780532921  0.21552893736961926  0.17526575831528396  1.0000
  C   C30       1.0  0.6677648343405737  0.7844712462616387  0.8247338618416794  1.0000
  C   C31       1.0  0.30171994929754936  0.5270728308899921  0.9831344198318563  1.0000
  C   C32       1.0  0.69828187223132  0.47292734682671533  0.01686776477777129  1.0000
  C   C33       1.0  0.027607167511689623  0.43367476362793417  0.408074616355485  1.0000
  C   C34       1.0  0.9723940077410094  0.5663244872406281  0.5919242864837031  1.0000
  C   C35       1.0  0.36819500961213  0.5427114522856799  0.17496580516587562  1.0000
  C   C36       1.0  0.6318047431382254  0.4572896595742651  0.8250345260725356  1.0000
  C   C37       1.0  0.3296656540725423  0.5997195965361047  0.060855159180327696  1.0000
  C   C38       1.0  0.6703349997495779  0.40028151381250865  0.9391451699793053  1.0000
  C   C39       1.0  0.9552496115424776  0.6877632603438502  0.0811141467437366  1.0000
  C   C40       1.0  0.0447509273001927  0.3122350613756596  0.9188857588066599  1.0000
  C   C41       1.0  0.018235609253487398  0.5983809503705262  0.17099868679687094  1.0000
  C   C42       1.0  0.9817667317327263  0.4016173683263134  0.8290012145959837  1.0000
  C   C43       1.0  0.39583859219234085  0.40584770079996724  0.4289363256120496  1.0000
  C   C44       1.0  0.6041578169862163  0.5941524873652925  0.5710633007812265  1.0000
  C   C45       1.0  0.24015230359899686  0.6009737775313513  0.6738869808320446  1.0000
  C   C46       1.0  0.7598486089651856  0.39902640353741264  0.3261117782710415  1.0000
  C   C47       1.0  0.18699962965052203  0.6940208624138864  0.8224204364424851  1.0000
  C   C48       1.0  0.8130021839854252  0.305979317143546  0.177578320581823  1.0000
  N   N1        1.0  0.5559374485011476  0.23018410272494097  0.46558148466520083  1.0000
  N   N2        1.0  0.4440579178162666  0.7698198044004274  0.534420994368972  1.0000
  N   N3        1.0  0.8536319239478161  0.7690906356969694  0.1226558305789283  1.0000
  N   N4        1.0  0.1463689905895933  0.2309095449116185  0.8773437854204857  1.0000
  N   N5        1.0  0.953963741161374  0.6262667227309395  0.26978745622756867  1.0000
  N   N6        1.0  0.046037436064551705  0.37373252767744003  0.7302123035079477  1.0000
  N   N7        1.0  0.43315453625221795  0.3636427455271304  0.32569447640392474  1.0000
  N   N8        1.0  0.5668434123813668  0.6363583698156605  0.6743050020957  1.0000
  N   N9        1.0  0.26354683395579304  0.5780536433283887  0.8647884707747765  1.0000
  N   N10       1.0  0.7364547189648648  0.4219474659690692  0.13521099940975745  1.0000
  N   N11       1.0  0.17065913467988045  0.7104820162600448  0.7078497704420245  1.0000
  N   N12       1.0  0.8293417798575291  0.2895181643485358  0.2921498455573897  1.0000
  O   O1        1.0  0.3132059530939344  0.15895475320432692  0.09431635471080572  1.0000
  O   O2        1.0  0.6867926339228917  0.8410472908273408  0.9056829779739392  1.0000
  O   O3        1.0  0.6007251485374853  0.09995682923162263  0.7432897798857925  1.0000
  O   O4        1.0  0.39927655406547313  0.9000405607763396  0.2567102673219353  1.0000
  O   O5        1.0  0.47993888500639775  0.07997637806911233  0.8945786392900035  1.0000
  O   O6        1.0  0.5200608677439504  0.9200247337908325  0.10542169194840771  1.0000
  O   O7        1.0  0.37757786061703774  0.7751626925245747  0.9442325963235876  1.0000
  O   O8        1.0  0.6224224155371161  0.22483655939514346  0.05576716549070681  1.0000
  O   O9        1.0  0.8039654084932553  0.8156988111084472  0.49972271072416435  1.0000
  O   O10       1.0  0.1960342312508772  0.18429951166221775  0.5002780538013313  1.0000
  O   O11       1.0  0.4439887125703948  0.027442337350628114  0.6075733543622877  1.0000
  O   O12       1.0  0.5560115655569929  0.9725569141089071  0.3924272643483349  1.0000
  O   O13       1.0  0.1060170853433745  0.9612024600328514  0.8906015992601938  1.0000
  O   O14       1.0  0.8939829300954971  0.038797721626892205  0.1093988757143194  1.0000
  O   O15       1.0  0.26348903159806975  0.8050199755811464  0.1010091807711717  1.0000
  O   O16       1.0  0.7365116182775965  0.19498113568782574  0.898989434595805  1.0000
  O   O17       1.0  0.33738550507818127  0.17288374146917826  0.2823320878513159  1.0000
  O   O18       1.0  0.6626145083874563  0.8271164406507414  0.7176675302268694  1.0000
  O   O19       1.0  0.8364528739445305  0.064853162792339  0.4279737936420959  1.0000
  O   O20       1.0  0.16354649916461736  0.9351460910988936  0.5720251133546413  1.0000
  O   O21       1.0  0.3218380768792813  0.011157953329942006  0.7620722481078063  1.0000
  O   O22       1.0  0.6781622012481066  0.9888412981295862  0.23792837060281616  1.0000
  O   O23       1.0  0.9800119843583417  0.8335163894486401  0.41067338299479433  1.0000
  O   O24       1.0  0.019986228936986098  0.16648379523377346  0.5893270961372609  1.0000
  O   O25       1.0  0.9088429141297353  0.9451542629457497  0.9090081550951085  1.0000
  O   O26       1.0  0.0911570973626681  0.05484591963435293  0.0909906060867485  1.0000
  O   O27       1.0  0.902035877791953  0.901754039131376  0.691267070948854  1.0000
  O   O28       1.0  0.09796477405694048  0.0982470716774202  0.3087324013144511  1.0000
  O   O29       1.0  0.7796150303696835  0.18358882212969263  0.6412009940213965  1.0000
  O   O30       1.0  0.2203861468562421  0.8164104282786869  0.3587987657141199  1.0000
